
     RDKit          3D

 63 67  0  0  0  0  0  0  0  0999 V2000
   15.5563    5.3558   -1.3926 H   0  0  0  0  0  0  0  0  0  0  0  0
   15.5867    4.2886   -1.6039 C   0  0  0  0  0  0  0  0  0  0  0  0
   15.8210    3.8703   -2.8581 N   0  0  0  0  0  0  0  0  0  0  0  0
   15.8768    2.5429   -3.0924 C   0  0  0  0  0  0  0  0  0  0  0  0
   16.0668    2.2037   -4.1048 H   0  0  0  0  0  0  0  0  0  0  0  0
   15.6949    1.5671   -2.0969 C   0  0  0  0  0  0  0  0  0  0  0  0
   15.7708    0.1179   -2.4043 C   0  0  0  0  0  0  0  0  0  0  0  0
   16.3312   -0.3203   -3.6080 C   0  0  0  0  0  0  0  0  0  0  0  0
   16.7124    0.4234   -4.3015 H   0  0  0  0  0  0  0  0  0  0  0  0
   16.4207   -1.6883   -3.8989 C   0  0  0  0  0  0  0  0  0  0  0  0
   16.8622   -2.0050   -4.8374 H   0  0  0  0  0  0  0  0  0  0  0  0
   15.9306   -2.6388   -2.9919 C   0  0  0  0  0  0  0  0  0  0  0  0
   15.9959   -3.6959   -3.2340 H   0  0  0  0  0  0  0  0  0  0  0  0
   15.3529   -2.2392   -1.7734 C   0  0  0  0  0  0  0  0  0  0  0  0
   14.7892   -3.2582   -0.7699 C   0  0  2  0  0  0  0  0  0  0  0  0
   15.1714   -4.7105   -1.0678 C   0  0  0  0  0  0  0  0  0  0  0  0
   16.3942   -5.2260   -0.6031 C   0  0  0  0  0  0  0  0  0  0  0  0
   17.0696   -4.5729   -0.0576 H   0  0  0  0  0  0  0  0  0  0  0  0
   16.7349   -6.5689   -0.8039 C   0  0  0  0  0  0  0  0  0  0  0  0
   17.6715   -6.9558   -0.4147 H   0  0  0  0  0  0  0  0  0  0  0  0
   15.8577   -7.4215   -1.4788 C   0  0  0  0  0  0  0  0  0  0  0  0
   16.1087   -8.4700   -1.6140 H   0  0  0  0  0  0  0  0  0  0  0  0
   14.6456   -6.9236   -1.9648 C   0  0  0  0  0  0  0  0  0  0  0  0
   13.9648   -7.5887   -2.4879 H   0  0  0  0  0  0  0  0  0  0  0  0
   14.3063   -5.5766   -1.7643 C   0  0  0  0  0  0  0  0  0  0  0  0
   13.3551   -5.2027   -2.1316 H   0  0  0  0  0  0  0  0  0  0  0  0
   13.2627   -3.0787   -0.5667 C   0  0  0  0  0  0  0  0  0  0  0  0
   12.3716   -3.1481   -1.4054 O   0  0  0  0  0  0  0  0  0  0  0  0
   13.0188   -2.6382    0.7050 N   0  0  0  0  0  0  0  0  0  0  0  0
   11.7113   -2.4912    1.2906 C   0  0  0  0  0  0  0  0  0  0  0  0
   11.7514   -1.8235    2.1598 H   0  0  0  0  0  0  0  0  0  0  0  0
   11.0113   -2.0535    0.5678 H   0  0  0  0  0  0  0  0  0  0  0  0
   11.2829   -3.8400    1.6711 N   0  0  0  0  0  0  0  0  0  0  0  0
   11.9571   -4.4299    2.8461 C   0  0  0  0  0  0  0  0  0  0  0  0
   12.9626   -4.7957    2.5921 H   0  0  0  0  0  0  0  0  0  0  0  0
   12.0461   -3.6981    3.6572 H   0  0  0  0  0  0  0  0  0  0  0  0
   11.3582   -5.2705    3.2103 H   0  0  0  0  0  0  0  0  0  0  0  0
   10.9543   -4.7879    0.5810 C   0  0  0  0  0  0  0  0  0  0  0  0
   11.8734   -5.2692    0.2189 H   0  0  0  0  0  0  0  0  0  0  0  0
   10.5142   -4.2417   -0.2621 H   0  0  0  0  0  0  0  0  0  0  0  0
    9.9747   -5.8609    1.0295 C   0  0  0  0  0  0  0  0  0  0  0  0
   10.4043   -7.1877    1.2034 C   0  0  0  0  0  0  0  0  0  0  0  0
   11.4476   -7.4406    1.0426 H   0  0  0  0  0  0  0  0  0  0  0  0
    9.5026   -8.1959    1.5692 C   0  0  0  0  0  0  0  0  0  0  0  0
    9.8557   -9.2153    1.6961 H   0  0  0  0  0  0  0  0  0  0  0  0
    8.1518   -7.8921    1.7693 C   0  0  0  0  0  0  0  0  0  0  0  0
    7.4534   -8.6740    2.0558 H   0  0  0  0  0  0  0  0  0  0  0  0
    7.7079   -6.5750    1.6068 C   0  0  0  0  0  0  0  0  0  0  0  0
    6.6601   -6.3322    1.7646 H   0  0  0  0  0  0  0  0  0  0  0  0
    8.6140   -5.5687    1.2392 C   0  0  0  0  0  0  0  0  0  0  0  0
    8.2580   -4.5522    1.1076 H   0  0  0  0  0  0  0  0  0  0  0  0
   14.2025   -2.6443    1.3830 C   0  0  0  0  0  0  0  0  0  0  0  0
   14.3741   -2.3774    2.7062 N   0  0  0  0  0  0  0  0  0  0  0  0
   13.5918   -2.0347    3.2598 H   0  0  0  0  0  0  0  0  0  0  0  0
   15.3258   -2.3544    3.0797 H   0  0  0  0  0  0  0  0  0  0  0  0
   15.2016   -2.9246    0.6147 N   0  0  0  0  0  4  0  0  0  0  0  0
   16.1707   -2.9396    0.9399 H   0  0  0  0  0  0  0  0  0  0  0  0
   15.2925   -0.8520   -1.5003 C   0  0  0  0  0  0  0  0  0  0  0  0
   14.8623   -0.5075   -0.5662 H   0  0  0  0  0  0  0  0  0  0  0  0
   15.4454    2.0130   -0.8000 C   0  0  0  0  0  0  0  0  0  0  0  0
   15.3304    1.2776   -0.0108 H   0  0  0  0  0  0  0  0  0  0  0  0
   15.3828    3.3883   -0.5554 C   0  0  0  0  0  0  0  0  0  0  0  0
   15.1782    3.7752    0.4362 H   0  0  0  0  0  0  0  0  0  0  0  0
  1  2  1  0
  2  3  2  0
  3  4  1  0
  4  5  1  0
  4  6  2  0
  6  7  1  0
  7  8  2  0
  8  9  1  0
  8 10  1  0
 10 11  1  0
 10 12  2  0
 12 13  1  0
 12 14  1  0
 15 14  1  6
 15 16  1  0
 16 17  2  0
 17 18  1  0
 17 19  1  0
 19 20  1  0
 19 21  2  0
 21 22  1  0
 21 23  1  0
 23 24  1  0
 23 25  2  0
 25 26  1  0
 15 27  1  0
 27 28  2  0
 27 29  1  0
 29 30  1  0
 30 31  1  0
 30 32  1  0
 30 33  1  0
 33 34  1  0
 34 35  1  0
 34 36  1  0
 34 37  1  0
 33 38  1  0
 38 39  1  0
 38 40  1  0
 38 41  1  0
 41 42  2  0
 42 43  1  0
 42 44  1  0
 44 45  1  0
 44 46  2  0
 46 47  1  0
 46 48  1  0
 48 49  1  0
 48 50  2  0
 50 51  1  0
 29 52  1  0
 52 53  1  0
 53 54  1  0
 53 55  1  0
 52 56  2  0
 56 57  1  0
 14 58  2  0
 58 59  1  0
  6 60  1  0
 60 61  1  0
 60 62  2  0
 62 63  1  0
 62  2  1  0
 58  7  1  0
 56 15  1  0
 25 16  1  0
 50 41  1  0
M  CHG  1  56   1
M  END
>  <score>  (1) 
6.36283

$$$$

     RDKit          3D

 64 69  0  0  0  0  0  0  0  0999 V2000
    5.3764   -2.1587   -1.7260 H   0  0  0  0  0  0  0  0  0  0  0  0
    5.9888   -2.9182   -1.2387 C   0  0  0  0  0  0  0  0  0  0  0  0
    7.2227   -2.6330   -0.8521 N   0  0  0  0  0  0  0  0  0  0  0  0
    7.9406   -3.6004   -0.2855 C   0  0  0  0  0  0  0  0  0  0  0  0
    9.2273   -3.2991    0.1182 N   0  0  0  0  0  0  0  0  0  0  0  0
   10.1765   -4.3849    0.4570 C   0  0  0  0  0  0  0  0  0  0  0  0
    9.6478   -5.3108    0.7327 H   0  0  0  0  0  0  0  0  0  0  0  0
   10.7952   -4.5946   -0.4219 H   0  0  0  0  0  0  0  0  0  0  0  0
   11.1042   -3.9544    1.6039 C   0  0  0  0  0  0  0  0  0  0  0  0
   11.8890   -4.7044    1.7218 H   0  0  0  0  0  0  0  0  0  0  0  0
   10.5421   -3.8834    2.5414 H   0  0  0  0  0  0  0  0  0  0  0  0
   11.7359   -2.6543    1.3096 N   0  0  0  0  0  0  0  0  0  0  0  0
   13.0367   -2.6954    0.6883 N   0  0  0  0  0  0  0  0  0  0  0  0
   13.3183   -3.0453   -0.6207 C   0  0  0  0  0  0  0  0  0  0  0  0
   12.4846   -3.1616   -1.5220 O   0  0  0  0  0  0  0  0  0  0  0  0
   14.8368   -3.2395   -0.7829 C   0  0  1  0  0  0  0  0  0  0  0  0
   15.1905   -4.7023   -1.0758 C   0  0  0  0  0  0  0  0  0  0  0  0
   16.4026   -5.2285   -0.6060 C   0  0  0  0  0  0  0  0  0  0  0  0
   17.0762   -4.5761   -0.0585 H   0  0  0  0  0  0  0  0  0  0  0  0
   16.7372   -6.5727   -0.8030 C   0  0  0  0  0  0  0  0  0  0  0  0
   17.6736   -6.9586   -0.4123 H   0  0  0  0  0  0  0  0  0  0  0  0
   15.8575   -7.4216   -1.4795 C   0  0  0  0  0  0  0  0  0  0  0  0
   16.1075   -8.4705   -1.6147 H   0  0  0  0  0  0  0  0  0  0  0  0
   14.6461   -6.9201   -1.9644 C   0  0  0  0  0  0  0  0  0  0  0  0
   13.9631   -7.5855   -2.4866 H   0  0  0  0  0  0  0  0  0  0  0  0
   14.3141   -5.5687   -1.7661 C   0  0  0  0  0  0  0  0  0  0  0  0
   13.3602   -5.1981   -2.1310 H   0  0  0  0  0  0  0  0  0  0  0  0
   15.3852   -2.2295   -1.7844 C   0  0  0  0  0  0  0  0  0  0  0  0
   15.9444   -2.6355   -3.0040 C   0  0  0  0  0  0  0  0  0  0  0  0
   16.0011   -3.6961   -3.2380 H   0  0  0  0  0  0  0  0  0  0  0  0
   16.4242   -1.6832   -3.9102 C   0  0  0  0  0  0  0  0  0  0  0  0
   16.8665   -2.0017   -4.8474 H   0  0  0  0  0  0  0  0  0  0  0  0
   16.3319   -0.3165   -3.6135 C   0  0  0  0  0  0  0  0  0  0  0  0
   16.7136    0.4276   -4.3040 H   0  0  0  0  0  0  0  0  0  0  0  0
   15.7729    0.1232   -2.4091 C   0  0  0  0  0  0  0  0  0  0  0  0
   15.6945    1.5691   -2.0984 C   0  0  0  0  0  0  0  0  0  0  0  0
   15.8774    2.5439   -3.0931 C   0  0  0  0  0  0  0  0  0  0  0  0
   16.0679    2.2047   -4.1056 H   0  0  0  0  0  0  0  0  0  0  0  0
   15.8216    3.8706   -2.8587 N   0  0  0  0  0  0  0  0  0  0  0  0
   15.5869    4.2871   -1.6041 C   0  0  0  0  0  0  0  0  0  0  0  0
   15.5553    5.3542   -1.3935 H   0  0  0  0  0  0  0  0  0  0  0  0
   15.3829    3.3875   -0.5554 C   0  0  0  0  0  0  0  0  0  0  0  0
   15.1794    3.7742    0.4365 H   0  0  0  0  0  0  0  0  0  0  0  0
   15.4447    2.0126   -0.8001 C   0  0  0  0  0  0  0  0  0  0  0  0
   15.3314    1.2756   -0.0113 H   0  0  0  0  0  0  0  0  0  0  0  0
   15.3047   -0.8467   -1.5072 C   0  0  0  0  0  0  0  0  0  0  0  0
   14.8651   -0.5129   -0.5720 H   0  0  0  0  0  0  0  0  0  0  0  0
   15.2694   -2.8874    0.5893 N   0  0  0  0  0  4  0  0  0  0  0  0
   16.2380   -2.9489    0.9123 H   0  0  0  0  0  0  0  0  0  0  0  0
   14.2560   -2.6282    1.3591 C   0  0  0  0  0  0  0  0  0  0  0  0
   14.4373   -2.3396    2.6894 N   0  0  0  0  0  0  0  0  0  0  0  0
   15.3725   -2.3388    3.0929 H   0  0  0  0  0  0  0  0  0  0  0  0
   13.6245   -2.1262    3.2681 H   0  0  0  0  0  0  0  0  0  0  0  0
   10.8051   -1.5625    0.9541 C   0  0  0  0  0  0  0  0  0  0  0  0
   10.2392   -1.2855    1.8457 H   0  0  0  0  0  0  0  0  0  0  0  0
   11.3800   -0.6984    0.6139 H   0  0  0  0  0  0  0  0  0  0  0  0
    9.8078   -1.9610   -0.1454 C   0  0  0  0  0  0  0  0  0  0  0  0
   10.3372   -1.9788   -1.1033 H   0  0  0  0  0  0  0  0  0  0  0  0
    9.0150   -1.1991   -0.2018 H   0  0  0  0  0  0  0  0  0  0  0  0
    7.4939   -4.8333   -0.0623 N   0  0  0  0  0  0  0  0  0  0  0  0
    6.2517   -5.1254   -0.4190 C   0  0  0  0  0  0  0  0  0  0  0  0
    5.8397   -6.1191   -0.2372 H   0  0  0  0  0  0  0  0  0  0  0  0
    5.4626   -4.1752   -1.0321 C   0  0  0  0  0  0  0  0  0  0  0  0
    4.4541   -4.4118   -1.3384 H   0  0  0  0  0  0  0  0  0  0  0  0
  1  2  1  0
  2  3  2  0
  3  4  1  0
  4  5  1  0
  5  6  1  0
  6  7  1  0
  6  8  1  0
  6  9  1  0
  9 10  1  0
  9 11  1  0
  9 12  1  0
 12 13  1  0
 13 14  1  0
 14 15  2  0
 14 16  1  0
 16 17  1  6
 17 18  2  0
 18 19  1  0
 18 20  1  0
 20 21  1  0
 20 22  2  0
 22 23  1  0
 22 24  1  0
 24 25  1  0
 24 26  2  0
 26 27  1  0
 16 28  1  0
 28 29  2  0
 29 30  1  0
 29 31  1  0
 31 32  1  0
 31 33  2  0
 33 34  1  0
 33 35  1  0
 35 36  1  0
 36 37  2  0
 37 38  1  0
 37 39  1  0
 39 40  2  0
 40 41  1  0
 40 42  1  0
 42 43  1  0
 42 44  2  0
 44 45  1  0
 35 46  2  0
 46 47  1  0
 16 48  1  0
 48 49  1  0
 48 50  2  0
 50 51  1  0
 51 52  1  0
 51 53  1  0
 12 54  1  0
 54 55  1  0
 54 56  1  0
 54 57  1  0
 57 58  1  0
 57 59  1  0
  4 60  2  0
 60 61  1  0
 61 62  1  0
 61 63  2  0
 63 64  1  0
 63  2  1  0
 57  5  1  0
 50 13  1  0
 26 17  1  0
 46 28  1  0
 44 36  1  0
M  CHG  1  48   1
M  END
>  <score>  (2) 
6.23316

$$$$

     RDKit          3D

 59 63  0  0  0  0  0  0  0  0999 V2000
   15.4914    5.3238   -1.4265 H   0  0  0  0  0  0  0  0  0  0  0  0
   15.5788    4.2579   -1.6118 C   0  0  0  0  0  0  0  0  0  0  0  0
   15.8289    3.8428   -2.8629 N   0  0  0  0  0  0  0  0  0  0  0  0
   15.9168    2.5194   -3.0903 C   0  0  0  0  0  0  0  0  0  0  0  0
   16.1142    2.1852   -4.1043 H   0  0  0  0  0  0  0  0  0  0  0  0
   15.7474    1.5536   -2.0855 C   0  0  0  0  0  0  0  0  0  0  0  0
   15.8127    0.1162   -2.3937 C   0  0  0  0  0  0  0  0  0  0  0  0
   16.3388   -0.3443   -3.6093 C   0  0  0  0  0  0  0  0  0  0  0  0
   16.7043    0.3638   -4.3466 H   0  0  0  0  0  0  0  0  0  0  0  0
   16.4002   -1.7137   -3.8825 C   0  0  0  0  0  0  0  0  0  0  0  0
   16.8153   -2.0484   -4.8283 H   0  0  0  0  0  0  0  0  0  0  0  0
   15.9315   -2.6392   -2.9417 C   0  0  0  0  0  0  0  0  0  0  0  0
   15.9840   -3.7004   -3.1659 H   0  0  0  0  0  0  0  0  0  0  0  0
   15.3943   -2.2041   -1.7172 C   0  0  0  0  0  0  0  0  0  0  0  0
   14.8094   -3.1614   -0.6893 C   0  0  2  0  0  0  0  0  0  0  0  0
   15.1578   -4.6135   -0.9708 C   0  0  0  0  0  0  0  0  0  0  0  0
   16.3860   -5.1422   -0.5442 C   0  0  0  0  0  0  0  0  0  0  0  0
   17.0896   -4.5063   -0.0135 H   0  0  0  0  0  0  0  0  0  0  0  0
   16.7145   -6.4771   -0.7906 C   0  0  0  0  0  0  0  0  0  0  0  0
   17.6666   -6.8637   -0.4395 H   0  0  0  0  0  0  0  0  0  0  0  0
   15.8214   -7.2982   -1.4872 C   0  0  0  0  0  0  0  0  0  0  0  0
   16.0803   -8.3352   -1.6784 H   0  0  0  0  0  0  0  0  0  0  0  0
   14.6075   -6.7759   -1.9478 C   0  0  0  0  0  0  0  0  0  0  0  0
   13.9200   -7.4062   -2.5048 H   0  0  0  0  0  0  0  0  0  0  0  0
   14.2784   -5.4395   -1.6930 C   0  0  0  0  0  0  0  0  0  0  0  0
   13.3367   -5.0455   -2.0641 H   0  0  0  0  0  0  0  0  0  0  0  0
   13.2976   -2.8910   -0.5453 C   0  0  0  0  0  0  0  0  0  0  0  0
   12.4233   -3.0391   -1.4003 O   0  0  0  0  0  0  0  0  0  0  0  0
   13.0316   -2.4369    0.7223 N   0  0  0  0  0  0  0  0  0  0  0  0
   11.7794   -1.8645    1.1506 C   0  0  0  0  0  0  0  0  0  0  0  0
   10.9309   -2.4473    0.7682 H   0  0  0  0  0  0  0  0  0  0  0  0
   11.6915   -1.8176    2.2444 H   0  0  0  0  0  0  0  0  0  0  0  0
   11.8403   -0.5547    0.5609 N   0  0  0  0  0  0  0  0  0  0  0  0
   12.7368   -0.0838    0.5486 H   0  0  0  0  0  0  0  0  0  0  0  0
   10.7398    0.2401    0.3392 C   0  0  0  0  0  0  0  0  0  0  0  0
    9.6288   -0.2134    0.5821 O   0  0  0  0  0  0  0  0  0  0  0  0
   10.9108    1.6178   -0.1521 C   0  0  0  0  0  0  0  0  0  0  0  0
   12.0379    1.9846   -0.9189 C   0  0  0  0  0  0  0  0  0  0  0  0
   12.8068    1.2556   -1.1643 H   0  0  0  0  0  0  0  0  0  0  0  0
   12.1860    3.2933   -1.3906 C   0  0  0  0  0  0  0  0  0  0  0  0
   13.0606    3.5724   -1.9757 H   0  0  0  0  0  0  0  0  0  0  0  0
   11.2079    4.2492   -1.0958 C   0  0  0  0  0  0  0  0  0  0  0  0
   11.3147    5.2648   -1.4606 H   0  0  0  0  0  0  0  0  0  0  0  0
   10.0911    3.9029   -0.3304 C   0  0  0  0  0  0  0  0  0  0  0  0
    9.3404    4.6520   -0.0956 H   0  0  0  0  0  0  0  0  0  0  0  0
    9.9410    2.5960    0.1369 C   0  0  0  0  0  0  0  0  0  0  0  0
    9.0751    2.3392    0.7362 H   0  0  0  0  0  0  0  0  0  0  0  0
   14.2221   -2.3861    1.3956 C   0  0  0  0  0  0  0  0  0  0  0  0
   14.4039   -2.0101    2.6868 N   0  0  0  0  0  0  0  0  0  0  0  0
   15.3095   -2.2349    3.0961 H   0  0  0  0  0  0  0  0  0  0  0  0
   13.5804   -1.9884    3.2868 H   0  0  0  0  0  0  0  0  0  0  0  0
   15.2181   -2.7960    0.6840 N   0  0  0  0  0  4  0  0  0  0  0  0
   16.1560   -2.9501    1.0557 H   0  0  0  0  0  0  0  0  0  0  0  0
   15.3350   -0.8241   -1.4711 C   0  0  0  0  0  0  0  0  0  0  0  0
   14.9007   -0.4738   -0.5399 H   0  0  0  0  0  0  0  0  0  0  0  0
   15.5115    1.9973   -0.7811 C   0  0  0  0  0  0  0  0  0  0  0  0
   15.4035    1.2904    0.0368 H   0  0  0  0  0  0  0  0  0  0  0  0
   15.4232    3.3653   -0.5482 C   0  0  0  0  0  0  0  0  0  0  0  0
   15.2335    3.7339    0.4526 H   0  0  0  0  0  0  0  0  0  0  0  0
  1  2  1  0
  2  3  2  0
  3  4  1  0
  4  5  1  0
  4  6  2  0
  6  7  1  0
  7  8  2  0
  8  9  1  0
  8 10  1  0
 10 11  1  0
 10 12  2  0
 12 13  1  0
 12 14  1  0
 15 14  1  6
 15 16  1  0
 16 17  2  0
 17 18  1  0
 17 19  1  0
 19 20  1  0
 19 21  2  0
 21 22  1  0
 21 23  1  0
 23 24  1  0
 23 25  2  0
 25 26  1  0
 15 27  1  0
 27 28  2  0
 27 29  1  0
 29 30  1  0
 30 31  1  0
 30 32  1  0
 30 33  1  0
 33 34  1  0
 33 35  1  0
 35 36  2  0
 35 37  1  0
 37 38  2  0
 38 39  1  0
 38 40  1  0
 40 41  1  0
 40 42  2  0
 42 43  1  0
 42 44  1  0
 44 45  1  0
 44 46  2  0
 46 47  1  0
 29 48  1  0
 48 49  1  0
 49 50  1  0
 49 51  1  0
 48 52  2  0
 52 53  1  0
 14 54  2  0
 54 55  1  0
  6 56  1  0
 56 57  1  0
 56 58  2  0
 58 59  1  0
 58  2  1  0
 54  7  1  0
 52 15  1  0
 25 16  1  0
 46 37  1  0
M  CHG  1  52   1
M  END
>  <score>  (3) 
6.1884

$$$$

     RDKit          3D

 54 58  0  0  0  0  0  0  0  0999 V2000
   15.5530    5.3509   -1.3951 H   0  0  0  0  0  0  0  0  0  0  0  0
   15.5864    4.2846   -1.6046 C   0  0  0  0  0  0  0  0  0  0  0  0
   15.8235    3.8693   -2.8589 N   0  0  0  0  0  0  0  0  0  0  0  0
   15.8784    2.5431   -3.0946 C   0  0  0  0  0  0  0  0  0  0  0  0
   16.0716    2.2012   -4.1065 H   0  0  0  0  0  0  0  0  0  0  0  0
   15.6970    1.5701   -2.0984 C   0  0  0  0  0  0  0  0  0  0  0  0
   15.7764    0.1247   -2.4091 C   0  0  0  0  0  0  0  0  0  0  0  0
   16.3354   -0.3148   -3.6143 C   0  0  0  0  0  0  0  0  0  0  0  0
   16.7108    0.4320   -4.3054 H   0  0  0  0  0  0  0  0  0  0  0  0
   16.4250   -1.6821   -3.9116 C   0  0  0  0  0  0  0  0  0  0  0  0
   16.8656   -2.0013   -4.8496 H   0  0  0  0  0  0  0  0  0  0  0  0
   15.9486   -2.6338   -3.0022 C   0  0  0  0  0  0  0  0  0  0  0  0
   16.0034   -3.6929   -3.2377 H   0  0  0  0  0  0  0  0  0  0  0  0
   15.3931   -2.2270   -1.7807 C   0  0  0  0  0  0  0  0  0  0  0  0
   14.8393   -3.2293   -0.7784 C   0  0  2  0  0  0  0  0  0  0  0  0
   15.1896   -4.6953   -1.0727 C   0  0  0  0  0  0  0  0  0  0  0  0
   16.4040   -5.2250   -0.6083 C   0  0  0  0  0  0  0  0  0  0  0  0
   17.0789   -4.5762   -0.0584 H   0  0  0  0  0  0  0  0  0  0  0  0
   16.7377   -6.5716   -0.8024 C   0  0  0  0  0  0  0  0  0  0  0  0
   17.6740   -6.9602   -0.4120 H   0  0  0  0  0  0  0  0  0  0  0  0
   15.8578   -7.4198   -1.4805 C   0  0  0  0  0  0  0  0  0  0  0  0
   16.1061   -8.4692   -1.6156 H   0  0  0  0  0  0  0  0  0  0  0  0
   14.6470   -6.9154   -1.9659 C   0  0  0  0  0  0  0  0  0  0  0  0
   13.9623   -7.5813   -2.4860 H   0  0  0  0  0  0  0  0  0  0  0  0
   14.3153   -5.5630   -1.7651 C   0  0  0  0  0  0  0  0  0  0  0  0
   13.3615   -5.1934   -2.1291 H   0  0  0  0  0  0  0  0  0  0  0  0
   13.3278   -3.0076   -0.6142 C   0  0  0  0  0  0  0  0  0  0  0  0
   12.5163   -3.1775   -1.5287 O   0  0  0  0  0  0  0  0  0  0  0  0
   13.0381   -2.6103    0.6919 N   0  0  0  0  0  0  0  0  0  0  0  0
   11.7312   -2.6783    1.3287 N   0  0  0  0  0  0  0  0  0  0  0  0
   11.5557   -1.9236    2.0102 H   0  0  0  0  0  0  0  0  0  0  0  0
   11.4264   -3.9818    1.9216 C   0  0  0  0  0  0  0  0  0  0  0  0
   12.0744   -4.1665    2.7831 H   0  0  0  0  0  0  0  0  0  0  0  0
   11.5922   -4.7746    1.1849 H   0  0  0  0  0  0  0  0  0  0  0  0
   10.0003   -3.9707    2.3399 C   0  0  0  0  0  0  0  0  0  0  0  0
    8.6990   -4.4331    1.2600 S   0  0  0  0  0  0  0  0  0  0  0  0
    7.5310   -4.1529    2.5379 C   0  0  0  0  0  0  0  0  0  0  0  0
    6.4670   -4.3170    2.4099 H   0  0  0  0  0  0  0  0  0  0  0  0
    8.1156   -3.7259    3.7003 C   0  0  0  0  0  0  0  0  0  0  0  0
    7.5510   -3.5189    4.5994 H   0  0  0  0  0  0  0  0  0  0  0  0
    9.5566   -3.6187    3.5851 C   0  0  0  0  0  0  0  0  0  0  0  0
   10.2198   -3.2978    4.3792 H   0  0  0  0  0  0  0  0  0  0  0  0
   14.2699   -2.5907    1.3494 C   0  0  0  0  0  0  0  0  0  0  0  0
   14.4563   -2.3446    2.6836 N   0  0  0  0  0  0  0  0  0  0  0  0
   13.6478   -2.1235    3.2613 H   0  0  0  0  0  0  0  0  0  0  0  0
   15.3964   -2.3432    3.0781 H   0  0  0  0  0  0  0  0  0  0  0  0
   15.2756   -2.8728    0.5850 N   0  0  0  0  0  4  0  0  0  0  0  0
   16.2436   -2.9650    0.9069 H   0  0  0  0  0  0  0  0  0  0  0  0
   15.3095   -0.8448   -1.5072 C   0  0  0  0  0  0  0  0  0  0  0  0
   14.8683   -0.5092   -0.5735 H   0  0  0  0  0  0  0  0  0  0  0  0
   15.4486    2.0117   -0.7997 C   0  0  0  0  0  0  0  0  0  0  0  0
   15.3356    1.2727   -0.0130 H   0  0  0  0  0  0  0  0  0  0  0  0
   15.3840    3.3855   -0.5564 C   0  0  0  0  0  0  0  0  0  0  0  0
   15.1819    3.7708    0.4345 H   0  0  0  0  0  0  0  0  0  0  0  0
  1  2  1  0
  2  3  2  0
  3  4  1  0
  4  5  1  0
  4  6  2  0
  6  7  1  0
  7  8  2  0
  8  9  1  0
  8 10  1  0
 10 11  1  0
 10 12  2  0
 12 13  1  0
 12 14  1  0
 15 14  1  6
 15 16  1  0
 16 17  2  0
 17 18  1  0
 17 19  1  0
 19 20  1  0
 19 21  2  0
 21 22  1  0
 21 23  1  0
 23 24  1  0
 23 25  2  0
 25 26  1  0
 15 27  1  0
 27 28  2  0
 27 29  1  0
 29 30  1  0
 30 31  1  0
 30 32  1  0
 32 33  1  0
 32 34  1  0
 32 35  1  0
 35 36  1  0
 36 37  1  0
 37 38  1  0
 37 39  2  0
 39 40  1  0
 39 41  1  0
 41 42  1  0
 29 43  1  0
 43 44  1  0
 44 45  1  0
 44 46  1  0
 43 47  2  0
 47 48  1  0
 14 49  2  0
 49 50  1  0
  6 51  1  0
 51 52  1  0
 51 53  2  0
 53 54  1  0
 53  2  1  0
 49  7  1  0
 47 15  1  0
 25 16  1  0
 41 35  2  0
M  CHG  1  47   1
M  END
>  <score>  (4) 
6.17782

$$$$

     RDKit          3D

 57 60  0  0  0  0  0  0  0  0999 V2000
   15.5521    5.3315   -1.4298 H   0  0  0  0  0  0  0  0  0  0  0  0
   15.6142    4.2626   -1.6111 C   0  0  0  0  0  0  0  0  0  0  0  0
   15.8560    3.8300   -2.8580 N   0  0  0  0  0  0  0  0  0  0  0  0
   15.9197    2.5025   -3.0713 C   0  0  0  0  0  0  0  0  0  0  0  0
   16.1100    2.1574   -4.0823 H   0  0  0  0  0  0  0  0  0  0  0  0
   15.7397    1.5472   -2.0581 C   0  0  0  0  0  0  0  0  0  0  0  0
   15.7874    0.1038   -2.3513 C   0  0  0  0  0  0  0  0  0  0  0  0
   16.3185   -0.3742   -3.5585 C   0  0  0  0  0  0  0  0  0  0  0  0
   16.7032    0.3290   -4.2893 H   0  0  0  0  0  0  0  0  0  0  0  0
   16.3565   -1.7459   -3.8279 C   0  0  0  0  0  0  0  0  0  0  0  0
   16.7630   -2.1055   -4.7665 H   0  0  0  0  0  0  0  0  0  0  0  0
   15.8676   -2.6552   -2.8883 C   0  0  0  0  0  0  0  0  0  0  0  0
   15.8943   -3.7205   -3.0991 H   0  0  0  0  0  0  0  0  0  0  0  0
   15.3370   -2.2061   -1.6708 C   0  0  0  0  0  0  0  0  0  0  0  0
   14.7520   -3.1779   -0.6640 C   0  0  2  0  0  0  0  0  0  0  0  0
   15.1316   -4.6232   -0.9520 C   0  0  0  0  0  0  0  0  0  0  0  0
   16.3625   -5.1363   -0.5205 C   0  0  0  0  0  0  0  0  0  0  0  0
   17.0460   -4.4937    0.0288 H   0  0  0  0  0  0  0  0  0  0  0  0
   16.7141   -6.4625   -0.7883 C   0  0  0  0  0  0  0  0  0  0  0  0
   17.6659   -6.8423   -0.4331 H   0  0  0  0  0  0  0  0  0  0  0  0
   15.8394   -7.2894   -1.5015 C   0  0  0  0  0  0  0  0  0  0  0  0
   16.1068   -8.3223   -1.7013 H   0  0  0  0  0  0  0  0  0  0  0  0
   14.6152   -6.7855   -1.9493 C   0  0  0  0  0  0  0  0  0  0  0  0
   13.9295   -7.4194   -2.5026 H   0  0  0  0  0  0  0  0  0  0  0  0
   14.2648   -5.4593   -1.6798 C   0  0  0  0  0  0  0  0  0  0  0  0
   13.3130   -5.0794   -2.0388 H   0  0  0  0  0  0  0  0  0  0  0  0
   13.2319   -2.9801   -0.5718 C   0  0  0  0  0  0  0  0  0  0  0  0
   12.3898   -3.2421   -1.4276 O   0  0  0  0  0  0  0  0  0  0  0  0
   12.9078   -2.6056    0.6955 N   0  0  0  0  0  0  0  0  0  0  0  0
   11.6275   -2.6618    1.1573 C   0  0  0  0  0  0  0  0  0  0  0  0
   10.7496   -2.7790    0.3121 O   0  0  0  0  0  0  0  0  0  0  0  0
   11.4336   -2.6524    2.4773 O   0  0  0  0  0  0  0  0  0  0  0  0
   10.1507   -3.1082    2.9191 C   0  0  0  0  0  0  0  0  0  0  0  0
    9.7830   -4.4070    2.1994 C   0  0  0  0  0  0  0  0  0  0  0  0
   10.6280   -5.1003    2.2232 H   0  0  0  0  0  0  0  0  0  0  0  0
    9.5583   -4.2006    1.1560 H   0  0  0  0  0  0  0  0  0  0  0  0
    8.9090   -4.8786    2.6525 H   0  0  0  0  0  0  0  0  0  0  0  0
   10.3221   -3.3898    4.3939 C   0  0  0  0  0  0  0  0  0  0  0  0
    9.6107   -4.1562    4.7088 H   0  0  0  0  0  0  0  0  0  0  0  0
   10.1445   -2.4898    4.9934 H   0  0  0  0  0  0  0  0  0  0  0  0
   11.3438   -3.7354    4.5902 H   0  0  0  0  0  0  0  0  0  0  0  0
    9.0616   -2.0412    2.7341 C   0  0  0  0  0  0  0  0  0  0  0  0
    9.0645   -1.6642    1.7099 H   0  0  0  0  0  0  0  0  0  0  0  0
    9.2713   -1.2192    3.4161 H   0  0  0  0  0  0  0  0  0  0  0  0
    8.0553   -2.4079    2.9663 H   0  0  0  0  0  0  0  0  0  0  0  0
   14.0436   -2.5977    1.4428 C   0  0  0  0  0  0  0  0  0  0  0  0
   14.1271   -2.4280    2.7886 N   0  0  0  0  0  0  0  0  0  0  0  0
   13.3025   -2.0977    3.2815 H   0  0  0  0  0  0  0  0  0  0  0  0
   15.0502   -2.2250    3.1728 H   0  0  0  0  0  0  0  0  0  0  0  0
   15.0958   -2.8221    0.7299 N   0  0  0  0  0  4  0  0  0  0  0  0
   16.0178   -2.9900    1.1334 H   0  0  0  0  0  0  0  0  0  0  0  0
   15.2874   -0.8244   -1.4258 C   0  0  0  0  0  0  0  0  0  0  0  0
   14.8439   -0.4656   -0.5010 H   0  0  0  0  0  0  0  0  0  0  0  0
   15.5107    2.0094   -0.7586 C   0  0  0  0  0  0  0  0  0  0  0  0
   15.4047    1.3063    0.0625 H   0  0  0  0  0  0  0  0  0  0  0  0
   15.4416    3.3840   -0.5395 C   0  0  0  0  0  0  0  0  0  0  0  0
   15.2593    3.7785    0.4536 H   0  0  0  0  0  0  0  0  0  0  0  0
  1  2  1  0
  2  3  2  0
  3  4  1  0
  4  5  1  0
  4  6  2  0
  6  7  1  0
  7  8  2  0
  8  9  1  0
  8 10  1  0
 10 11  1  0
 10 12  2  0
 12 13  1  0
 12 14  1  0
 15 14  1  6
 15 16  1  0
 16 17  2  0
 17 18  1  0
 17 19  1  0
 19 20  1  0
 19 21  2  0
 21 22  1  0
 21 23  1  0
 23 24  1  0
 23 25  2  0
 25 26  1  0
 15 27  1  0
 27 28  2  0
 27 29  1  0
 29 30  1  0
 30 31  2  0
 30 32  1  0
 32 33  1  0
 33 34  1  0
 34 35  1  0
 34 36  1  0
 34 37  1  0
 33 38  1  0
 38 39  1  0
 38 40  1  0
 38 41  1  0
 33 42  1  0
 42 43  1  0
 42 44  1  0
 42 45  1  0
 29 46  1  0
 46 47  1  0
 47 48  1  0
 47 49  1  0
 46 50  2  0
 50 51  1  0
 14 52  2  0
 52 53  1  0
  6 54  1  0
 54 55  1  0
 54 56  2  0
 56 57  1  0
 56  2  1  0
 52  7  1  0
 50 15  1  0
 25 16  1  0
M  CHG  1  50   1
M  END
>  <score>  (5) 
6.17502

$$$$

     RDKit          3D

 59 63  0  0  0  0  0  0  0  0999 V2000
   15.5729    5.3326   -1.4254 H   0  0  0  0  0  0  0  0  0  0  0  0
   15.6504    4.2650   -1.6090 C   0  0  0  0  0  0  0  0  0  0  0  0
   15.8913    3.8372   -2.8575 N   0  0  0  0  0  0  0  0  0  0  0  0
   15.9755    2.5111   -3.0737 C   0  0  0  0  0  0  0  0  0  0  0  0
   16.1583    2.1729   -4.0892 H   0  0  0  0  0  0  0  0  0  0  0  0
   15.8209    1.5523   -2.0573 C   0  0  0  0  0  0  0  0  0  0  0  0
   15.8903    0.1087   -2.3478 C   0  0  0  0  0  0  0  0  0  0  0  0
   16.3783   -0.3584   -3.5762 C   0  0  0  0  0  0  0  0  0  0  0  0
   16.7253    0.3506   -4.3213 H   0  0  0  0  0  0  0  0  0  0  0  0
   16.4198   -1.7294   -3.8496 C   0  0  0  0  0  0  0  0  0  0  0  0
   16.7977   -2.0766   -4.8056 H   0  0  0  0  0  0  0  0  0  0  0  0
   15.9618   -2.6486   -2.8995 C   0  0  0  0  0  0  0  0  0  0  0  0
   15.9751   -3.7105   -3.1275 H   0  0  0  0  0  0  0  0  0  0  0  0
   15.4702   -2.2123   -1.6586 C   0  0  0  0  0  0  0  0  0  0  0  0
   14.8701   -3.1843   -0.6492 C   0  0  2  0  0  0  0  0  0  0  0  0
   15.2231   -4.6372   -0.9407 C   0  0  0  0  0  0  0  0  0  0  0  0
   16.4481   -5.1725   -0.5158 C   0  0  0  0  0  0  0  0  0  0  0  0
   17.1443   -4.5466    0.0354 H   0  0  0  0  0  0  0  0  0  0  0  0
   16.7826   -6.5020   -0.7954 C   0  0  0  0  0  0  0  0  0  0  0  0
   17.7326   -6.9006   -0.4523 H   0  0  0  0  0  0  0  0  0  0  0  0
   15.8961   -7.3127   -1.5123 C   0  0  0  0  0  0  0  0  0  0  0  0
   16.1516   -8.3465   -1.7244 H   0  0  0  0  0  0  0  0  0  0  0  0
   14.6775   -6.7895   -1.9551 C   0  0  0  0  0  0  0  0  0  0  0  0
   13.9876   -7.4127   -2.5171 H   0  0  0  0  0  0  0  0  0  0  0  0
   14.3450   -5.4598   -1.6721 C   0  0  0  0  0  0  0  0  0  0  0  0
   13.3972   -5.0648   -2.0259 H   0  0  0  0  0  0  0  0  0  0  0  0
   13.3567   -2.9467   -0.5976 C   0  0  0  0  0  0  0  0  0  0  0  0
   12.5988   -3.0875   -1.5548 O   0  0  0  0  0  0  0  0  0  0  0  0
   12.9724   -2.4724    0.6543 N   0  0  0  0  0  0  0  0  0  0  0  0
   11.6512   -1.9541    1.0101 N   0  0  0  0  0  0  0  0  0  0  0  0
   11.5733   -1.3651    1.8411 H   0  0  0  0  0  0  0  0  0  0  0  0
   10.4317   -2.3088    0.4279 C   0  0  0  0  0  0  0  0  0  0  0  0
   10.3608   -3.0684   -0.5303 O   0  0  0  0  0  0  0  0  0  0  0  0
    9.1557   -1.8987    1.1408 C   0  0  0  0  0  0  0  0  0  0  0  0
    9.2518   -0.8639    1.5008 H   0  0  0  0  0  0  0  0  0  0  0  0
    8.3154   -1.9783    0.4448 H   0  0  0  0  0  0  0  0  0  0  0  0
    9.0293   -2.8824    2.2717 C   0  0  0  0  0  0  0  0  0  0  0  0
   10.0492   -2.9245    3.2256 C   0  0  0  0  0  0  0  0  0  0  0  0
   10.8377   -2.1782    3.2212 H   0  0  0  0  0  0  0  0  0  0  0  0
   10.0769   -3.9433    4.1711 C   0  0  0  0  0  0  0  0  0  0  0  0
   10.9278   -3.9988    4.8403 H   0  0  0  0  0  0  0  0  0  0  0  0
    9.0318   -4.8757    4.2284 C   0  0  0  0  0  0  0  0  0  0  0  0
    9.0587   -5.6519    4.9848 H   0  0  0  0  0  0  0  0  0  0  0  0
    7.9773   -4.8174    3.3055 C   0  0  0  0  0  0  0  0  0  0  0  0
    7.1700   -5.5506    3.3430 H   0  0  0  0  0  0  0  0  0  0  0  0
    7.9895   -3.8243    2.3128 C   0  0  0  0  0  0  0  0  0  0  0  0
    7.2146   -3.7926    1.5557 H   0  0  0  0  0  0  0  0  0  0  0  0
   14.1565   -2.4327    1.4084 C   0  0  0  0  0  0  0  0  0  0  0  0
   14.3604   -2.0480    2.7109 N   0  0  0  0  0  0  0  0  0  0  0  0
   15.2867   -2.2121    3.1100 H   0  0  0  0  0  0  0  0  0  0  0  0
   13.5577   -2.0010    3.3369 H   0  0  0  0  0  0  0  0  0  0  0  0
   15.1978   -2.8277    0.7432 N   0  0  0  0  0  4  0  0  0  0  0  0
   16.1464   -2.8605    1.1229 H   0  0  0  0  0  0  0  0  0  0  0  0
   15.4421   -0.8298   -1.4043 C   0  0  0  0  0  0  0  0  0  0  0  0
   15.0409   -0.4730   -0.4609 H   0  0  0  0  0  0  0  0  0  0  0  0
   15.5842    2.0094   -0.7580 C   0  0  0  0  0  0  0  0  0  0  0  0
   15.4805    1.3044    0.0627 H   0  0  0  0  0  0  0  0  0  0  0  0
   15.4937    3.3818   -0.5391 C   0  0  0  0  0  0  0  0  0  0  0  0
   15.3027    3.7694    0.4538 H   0  0  0  0  0  0  0  0  0  0  0  0
  1  2  1  0
  2  3  2  0
  3  4  1  0
  4  5  1  0
  4  6  2  0
  6  7  1  0
  7  8  2  0
  8  9  1  0
  8 10  1  0
 10 11  1  0
 10 12  2  0
 12 13  1  0
 12 14  1  0
 15 14  1  6
 15 16  1  0
 16 17  2  0
 17 18  1  0
 17 19  1  0
 19 20  1  0
 19 21  2  0
 21 22  1  0
 21 23  1  0
 23 24  1  0
 23 25  2  0
 25 26  1  0
 15 27  1  0
 27 28  2  0
 27 29  1  0
 29 30  1  0
 30 31  1  0
 30 32  1  0
 32 33  2  0
 32 34  1  0
 34 35  1  0
 34 36  1  0
 34 37  1  0
 37 38  2  0
 38 39  1  0
 38 40  1  0
 40 41  1  0
 40 42  2  0
 42 43  1  0
 42 44  1  0
 44 45  1  0
 44 46  2  0
 46 47  1  0
 29 48  1  0
 48 49  1  0
 49 50  1  0
 49 51  1  0
 48 52  2  0
 52 53  1  0
 14 54  2  0
 54 55  1  0
  6 56  1  0
 56 57  1  0
 56 58  2  0
 58 59  1  0
 58  2  1  0
 54  7  1  0
 52 15  1  0
 25 16  1  0
 46 37  1  0
M  CHG  1  52   1
M  END
>  <score>  (6) 
6.17469

$$$$

     RDKit          3D

 61 65  0  0  0  0  0  0  0  0999 V2000
   15.5187    5.3254   -1.4159 H   0  0  0  0  0  0  0  0  0  0  0  0
   15.5881    4.2593   -1.6086 C   0  0  0  0  0  0  0  0  0  0  0  0
   15.8376    3.8470   -2.8604 N   0  0  0  0  0  0  0  0  0  0  0  0
   15.9093    2.5233   -3.0914 C   0  0  0  0  0  0  0  0  0  0  0  0
   16.1056    2.1949   -4.1073 H   0  0  0  0  0  0  0  0  0  0  0  0
   15.7332    1.5532   -2.0896 C   0  0  0  0  0  0  0  0  0  0  0  0
   15.8080    0.1146   -2.4009 C   0  0  0  0  0  0  0  0  0  0  0  0
   16.3405   -0.3264   -3.6200 C   0  0  0  0  0  0  0  0  0  0  0  0
   16.7028    0.3963   -4.3435 H   0  0  0  0  0  0  0  0  0  0  0  0
   16.4183   -1.6903   -3.9139 C   0  0  0  0  0  0  0  0  0  0  0  0
   16.8355   -2.0094   -4.8635 H   0  0  0  0  0  0  0  0  0  0  0  0
   15.9639   -2.6344   -2.9873 C   0  0  0  0  0  0  0  0  0  0  0  0
   16.0234   -3.6918   -3.2273 H   0  0  0  0  0  0  0  0  0  0  0  0
   15.4296   -2.2256   -1.7550 C   0  0  0  0  0  0  0  0  0  0  0  0
   14.8755   -3.2232   -0.7466 C   0  0  2  0  0  0  0  0  0  0  0  0
   15.2376   -4.6729   -1.0405 C   0  0  0  0  0  0  0  0  0  0  0  0
   16.4530   -5.2117   -0.5900 C   0  0  0  0  0  0  0  0  0  0  0  0
   17.1556   -4.5795   -0.0545 H   0  0  0  0  0  0  0  0  0  0  0  0
   16.7620   -6.5579   -0.8055 C   0  0  0  0  0  0  0  0  0  0  0  0
   17.7004   -6.9565   -0.4314 H   0  0  0  0  0  0  0  0  0  0  0  0
   15.8627   -7.3821   -1.4896 C   0  0  0  0  0  0  0  0  0  0  0  0
   16.1006   -8.4293   -1.6499 H   0  0  0  0  0  0  0  0  0  0  0  0
   14.6585   -6.8538   -1.9666 C   0  0  0  0  0  0  0  0  0  0  0  0
   13.9570   -7.4884   -2.5001 H   0  0  0  0  0  0  0  0  0  0  0  0
   14.3509   -5.5068   -1.7467 C   0  0  0  0  0  0  0  0  0  0  0  0
   13.4089   -5.1129   -2.1181 H   0  0  0  0  0  0  0  0  0  0  0  0
   13.3530   -3.0375   -0.6152 C   0  0  0  0  0  0  0  0  0  0  0  0
   12.5004   -3.1900   -1.4890 O   0  0  0  0  0  0  0  0  0  0  0  0
   13.0475   -2.6903    0.6825 N   0  0  0  0  0  0  0  0  0  0  0  0
   11.7136   -2.3437    1.1573 C   0  0  0  0  0  0  0  0  0  0  0  0
   11.6070   -2.6571    2.2066 H   0  0  0  0  0  0  0  0  0  0  0  0
   10.9535   -2.8871    0.5758 H   0  0  0  0  0  0  0  0  0  0  0  0
   11.4682   -0.8329    1.0578 C   0  0  0  0  0  0  0  0  0  0  0  0
   10.4382   -0.6499    1.3793 H   0  0  0  0  0  0  0  0  0  0  0  0
   12.1556   -0.3329    1.7492 H   0  0  0  0  0  0  0  0  0  0  0  0
   11.6333   -0.2127   -0.3372 C   0  0  0  0  0  0  0  0  0  0  0  0
   12.6738   -0.2928   -0.6581 H   0  0  0  0  0  0  0  0  0  0  0  0
   11.0361   -0.7537   -1.0729 H   0  0  0  0  0  0  0  0  0  0  0  0
   11.2016    1.2350   -0.3157 C   0  0  0  0  0  0  0  0  0  0  0  0
    9.8410    1.5561   -0.3734 C   0  0  0  0  0  0  0  0  0  0  0  0
    9.1130    0.7516   -0.3833 H   0  0  0  0  0  0  0  0  0  0  0  0
    9.4278    2.8928   -0.3953 C   0  0  0  0  0  0  0  0  0  0  0  0
    8.3731    3.1292   -0.4519 H   0  0  0  0  0  0  0  0  0  0  0  0
   10.3845    3.9215   -0.3365 C   0  0  0  0  0  0  0  0  0  0  0  0
   10.0789    4.9606   -0.3404 H   0  0  0  0  0  0  0  0  0  0  0  0
   11.7456    3.6079   -0.2437 C   0  0  0  0  0  0  0  0  0  0  0  0
   12.5071    4.3868   -0.1904 H   0  0  0  0  0  0  0  0  0  0  0  0
   12.1473    2.2649   -0.2605 C   0  0  0  0  0  0  0  0  0  0  0  0
   13.1971    1.9962   -0.2571 H   0  0  0  0  0  0  0  0  0  0  0  0
   14.2410   -2.5748    1.3723 C   0  0  0  0  0  0  0  0  0  0  0  0
   14.4134   -2.2125    2.6778 N   0  0  0  0  0  0  0  0  0  0  0  0
   15.3475   -2.2955    3.0829 H   0  0  0  0  0  0  0  0  0  0  0  0
   13.6024   -2.1300    3.2887 H   0  0  0  0  0  0  0  0  0  0  0  0
   15.2623   -2.8695    0.6360 N   0  0  0  0  0  4  0  0  0  0  0  0
   16.2221   -2.9209    0.9884 H   0  0  0  0  0  0  0  0  0  0  0  0
   15.3461   -0.8465   -1.4871 C   0  0  0  0  0  0  0  0  0  0  0  0
   14.9049   -0.5147   -0.5518 H   0  0  0  0  0  0  0  0  0  0  0  0
   15.4951    1.9950   -0.7860 C   0  0  0  0  0  0  0  0  0  0  0  0
   15.3862    1.2841    0.0279 H   0  0  0  0  0  0  0  0  0  0  0  0
   15.4154    3.3643   -0.5499 C   0  0  0  0  0  0  0  0  0  0  0  0
   15.2247    3.7352    0.4498 H   0  0  0  0  0  0  0  0  0  0  0  0
  1  2  1  0
  2  3  2  0
  3  4  1  0
  4  5  1  0
  4  6  2  0
  6  7  1  0
  7  8  2  0
  8  9  1  0
  8 10  1  0
 10 11  1  0
 10 12  2  0
 12 13  1  0
 12 14  1  0
 15 14  1  6
 15 16  1  0
 16 17  2  0
 17 18  1  0
 17 19  1  0
 19 20  1  0
 19 21  2  0
 21 22  1  0
 21 23  1  0
 23 24  1  0
 23 25  2  0
 25 26  1  0
 15 27  1  0
 27 28  2  0
 27 29  1  0
 29 30  1  0
 30 31  1  0
 30 32  1  0
 30 33  1  0
 33 34  1  0
 33 35  1  0
 33 36  1  0
 36 37  1  0
 36 38  1  0
 36 39  1  0
 39 40  2  0
 40 41  1  0
 40 42  1  0
 42 43  1  0
 42 44  2  0
 44 45  1  0
 44 46  1  0
 46 47  1  0
 46 48  2  0
 48 49  1  0
 29 50  1  0
 50 51  1  0
 51 52  1  0
 51 53  1  0
 50 54  2  0
 54 55  1  0
 14 56  2  0
 56 57  1  0
  6 58  1  0
 58 59  1  0
 58 60  2  0
 60 61  1  0
 60  2  1  0
 56  7  1  0
 54 15  1  0
 25 16  1  0
 48 39  1  0
M  CHG  1  54   1
M  END
>  <score>  (7) 
6.16774

$$$$

     RDKit          3D

 67 71  0  0  0  0  0  0  0  0999 V2000
   15.5608    5.3632   -1.3898 H   0  0  0  0  0  0  0  0  0  0  0  0
   15.5856    4.2946   -1.6012 C   0  0  0  0  0  0  0  0  0  0  0  0
   15.8191    3.8744   -2.8556 N   0  0  0  0  0  0  0  0  0  0  0  0
   15.8727    2.5467   -3.0906 C   0  0  0  0  0  0  0  0  0  0  0  0
   16.0609    2.2087   -4.1037 H   0  0  0  0  0  0  0  0  0  0  0  0
   15.6915    1.5690   -2.0985 C   0  0  0  0  0  0  0  0  0  0  0  0
   15.7712    0.1205   -2.4095 C   0  0  0  0  0  0  0  0  0  0  0  0
   16.3368   -0.3183   -3.6126 C   0  0  0  0  0  0  0  0  0  0  0  0
   16.7156    0.4237   -4.3062 H   0  0  0  0  0  0  0  0  0  0  0  0
   16.4298   -1.6852   -3.9083 C   0  0  0  0  0  0  0  0  0  0  0  0
   16.8646   -2.0031   -4.8505 H   0  0  0  0  0  0  0  0  0  0  0  0
   15.9492   -2.6410   -3.0046 C   0  0  0  0  0  0  0  0  0  0  0  0
   16.0019   -3.7006   -3.2452 H   0  0  0  0  0  0  0  0  0  0  0  0
   15.3878   -2.2365   -1.7843 C   0  0  0  0  0  0  0  0  0  0  0  0
   14.8320   -3.2465   -0.7842 C   0  0  2  0  0  0  0  0  0  0  0  0
   15.1845   -4.7103   -1.0803 C   0  0  0  0  0  0  0  0  0  0  0  0
   16.3990   -5.2339   -0.6111 C   0  0  0  0  0  0  0  0  0  0  0  0
   17.0703   -4.5799   -0.0604 H   0  0  0  0  0  0  0  0  0  0  0  0
   16.7355   -6.5778   -0.8057 C   0  0  0  0  0  0  0  0  0  0  0  0
   17.6729   -6.9601   -0.4127 H   0  0  0  0  0  0  0  0  0  0  0  0
   15.8568   -7.4308   -1.4777 C   0  0  0  0  0  0  0  0  0  0  0  0
   16.1120   -8.4778   -1.6133 H   0  0  0  0  0  0  0  0  0  0  0  0
   14.6449   -6.9295   -1.9638 C   0  0  0  0  0  0  0  0  0  0  0  0
   13.9663   -7.5975   -2.4879 H   0  0  0  0  0  0  0  0  0  0  0  0
   14.3103   -5.5781   -1.7696 C   0  0  0  0  0  0  0  0  0  0  0  0
   13.3568   -5.2107   -2.1387 H   0  0  0  0  0  0  0  0  0  0  0  0
   13.3235   -3.0096   -0.6269 C   0  0  0  0  0  0  0  0  0  0  0  0
   12.4761   -3.1105   -1.5158 O   0  0  0  0  0  0  0  0  0  0  0  0
   13.0563   -2.6220    0.6721 N   0  0  0  0  0  0  0  0  0  0  0  0
   11.7905   -2.2000    1.1707 O   0  0  0  0  0  0  0  0  0  0  0  0
   11.0653   -3.3137    1.7041 C   0  0  0  0  0  0  0  0  0  0  0  0
   11.0012   -4.1074    0.9509 H   0  0  0  0  0  0  0  0  0  0  0  0
   11.5939   -3.7149    2.5799 H   0  0  0  0  0  0  0  0  0  0  0  0
    9.6590   -2.8726    2.1041 C   0  0  0  0  0  0  0  0  0  0  0  0
    9.1010   -3.7340    2.4829 H   0  0  0  0  0  0  0  0  0  0  0  0
    9.7475   -2.1347    2.9079 H   0  0  0  0  0  0  0  0  0  0  0  0
    8.9039   -2.2420    0.9288 C   0  0  0  0  0  0  0  0  0  0  0  0
    7.9121   -1.9200    1.2687 H   0  0  0  0  0  0  0  0  0  0  0  0
    9.4577   -1.3568    0.5926 H   0  0  0  0  0  0  0  0  0  0  0  0
    8.7667   -3.1932   -0.1931 N   0  0  0  0  0  0  0  0  0  0  0  0
    8.8888   -2.6020   -1.5392 C   0  0  0  0  0  0  0  0  0  0  0  0
    9.0823   -3.3896   -2.2752 H   0  0  0  0  0  0  0  0  0  0  0  0
    9.7302   -1.9013   -1.5654 H   0  0  0  0  0  0  0  0  0  0  0  0
    7.5893   -1.8762   -1.8903 C   0  0  0  0  0  0  0  0  0  0  0  0
    7.6633   -1.4408   -2.8929 H   0  0  0  0  0  0  0  0  0  0  0  0
    7.4424   -1.0655   -1.1694 H   0  0  0  0  0  0  0  0  0  0  0  0
    6.4031   -2.8498   -1.8276 C   0  0  0  0  0  0  0  0  0  0  0  0
    6.5208   -3.6052   -2.6094 H   0  0  0  0  0  0  0  0  0  0  0  0
    5.4688   -2.3073   -2.0100 H   0  0  0  0  0  0  0  0  0  0  0  0
    6.3460   -3.5484   -0.4598 C   0  0  0  0  0  0  0  0  0  0  0  0
    6.1152   -2.8027    0.2992 H   0  0  0  0  0  0  0  0  0  0  0  0
    5.5556   -4.3083   -0.4609 H   0  0  0  0  0  0  0  0  0  0  0  0
    7.6874   -4.1928   -0.0886 C   0  0  0  0  0  0  0  0  0  0  0  0
    7.8922   -5.0246   -0.7702 H   0  0  0  0  0  0  0  0  0  0  0  0
    7.6438   -4.5890    0.9316 H   0  0  0  0  0  0  0  0  0  0  0  0
   14.2594   -2.5969    1.3567 C   0  0  0  0  0  0  0  0  0  0  0  0
   14.4273   -2.3117    2.6901 N   0  0  0  0  0  0  0  0  0  0  0  0
   13.6075   -2.1115    3.2654 H   0  0  0  0  0  0  0  0  0  0  0  0
   15.3554   -2.3425    3.1047 H   0  0  0  0  0  0  0  0  0  0  0  0
   15.2606   -2.9113    0.5952 N   0  0  0  0  0  4  0  0  0  0  0  0
   16.2322   -2.9479    0.9066 H   0  0  0  0  0  0  0  0  0  0  0  0
   15.3045   -0.8535   -1.5100 C   0  0  0  0  0  0  0  0  0  0  0  0
   14.8679   -0.5189   -0.5735 H   0  0  0  0  0  0  0  0  0  0  0  0
   15.4429    2.0159   -0.8004 C   0  0  0  0  0  0  0  0  0  0  0  0
   15.3206    1.2831   -0.0102 H   0  0  0  0  0  0  0  0  0  0  0  0
   15.3806    3.3928   -0.5538 C   0  0  0  0  0  0  0  0  0  0  0  0
   15.1735    3.7810    0.4375 H   0  0  0  0  0  0  0  0  0  0  0  0
  1  2  1  0
  2  3  2  0
  3  4  1  0
  4  5  1  0
  4  6  2  0
  6  7  1  0
  7  8  2  0
  8  9  1  0
  8 10  1  0
 10 11  1  0
 10 12  2  0
 12 13  1  0
 12 14  1  0
 15 14  1  6
 15 16  1  0
 16 17  2  0
 17 18  1  0
 17 19  1  0
 19 20  1  0
 19 21  2  0
 21 22  1  0
 21 23  1  0
 23 24  1  0
 23 25  2  0
 25 26  1  0
 15 27  1  0
 27 28  2  0
 27 29  1  0
 29 30  1  0
 30 31  1  0
 31 32  1  0
 31 33  1  0
 31 34  1  0
 34 35  1  0
 34 36  1  0
 34 37  1  0
 37 38  1  0
 37 39  1  0
 37 40  1  0
 40 41  1  0
 41 42  1  0
 41 43  1  0
 41 44  1  0
 44 45  1  0
 44 46  1  0
 44 47  1  0
 47 48  1  0
 47 49  1  0
 47 50  1  0
 50 51  1  0
 50 52  1  0
 50 53  1  0
 53 54  1  0
 53 55  1  0
 29 56  1  0
 56 57  1  0
 57 58  1  0
 57 59  1  0
 56 60  2  0
 60 61  1  0
 14 62  2  0
 62 63  1  0
  6 64  1  0
 64 65  1  0
 64 66  2  0
 66 67  1  0
 66  2  1  0
 62  7  1  0
 60 15  1  0
 25 16  1  0
 53 40  1  0
M  CHG  1  60   1
M  END
>  <score>  (8) 
6.1442

$$$$

     RDKit          3D

 60 64  0  0  0  0  0  0  0  0999 V2000
   15.5492    5.3452   -1.3978 H   0  0  0  0  0  0  0  0  0  0  0  0
   15.5874    4.2791   -1.6073 C   0  0  0  0  0  0  0  0  0  0  0  0
   15.8255    3.8646   -2.8615 N   0  0  0  0  0  0  0  0  0  0  0  0
   15.8824    2.5380   -3.0944 C   0  0  0  0  0  0  0  0  0  0  0  0
   16.0758    2.1988   -4.1074 H   0  0  0  0  0  0  0  0  0  0  0  0
   15.6990    1.5654   -2.0964 C   0  0  0  0  0  0  0  0  0  0  0  0
   15.7709    0.1183   -2.3996 C   0  0  0  0  0  0  0  0  0  0  0  0
   16.3266   -0.3201   -3.6060 C   0  0  0  0  0  0  0  0  0  0  0  0
   16.7082    0.4249   -4.2979 H   0  0  0  0  0  0  0  0  0  0  0  0
   16.4120   -1.6860   -3.8978 C   0  0  0  0  0  0  0  0  0  0  0  0
   16.8630   -2.0050   -4.8321 H   0  0  0  0  0  0  0  0  0  0  0  0
   15.9230   -2.6347   -2.9884 C   0  0  0  0  0  0  0  0  0  0  0  0
   15.9930   -3.6925   -3.2251 H   0  0  0  0  0  0  0  0  0  0  0  0
   15.3481   -2.2352   -1.7682 C   0  0  0  0  0  0  0  0  0  0  0  0
   14.7819   -3.2546   -0.7640 C   0  0  2  0  0  0  0  0  0  0  0  0
   15.1754   -4.7043   -1.0652 C   0  0  0  0  0  0  0  0  0  0  0  0
   16.3981   -5.2211   -0.6013 C   0  0  0  0  0  0  0  0  0  0  0  0
   17.0748   -4.5692   -0.0550 H   0  0  0  0  0  0  0  0  0  0  0  0
   16.7381   -6.5649   -0.8020 C   0  0  0  0  0  0  0  0  0  0  0  0
   17.6749   -6.9551   -0.4134 H   0  0  0  0  0  0  0  0  0  0  0  0
   15.8603   -7.4134   -1.4825 C   0  0  0  0  0  0  0  0  0  0  0  0
   16.1053   -8.4627   -1.6162 H   0  0  0  0  0  0  0  0  0  0  0  0
   14.6482   -6.9145   -1.9690 C   0  0  0  0  0  0  0  0  0  0  0  0
   13.9613   -7.5767   -2.4885 H   0  0  0  0  0  0  0  0  0  0  0  0
   14.3109   -5.5685   -1.7631 C   0  0  0  0  0  0  0  0  0  0  0  0
   13.3582   -5.1909   -2.1224 H   0  0  0  0  0  0  0  0  0  0  0  0
   13.2499   -3.0975   -0.5661 C   0  0  0  0  0  0  0  0  0  0  0  0
   12.3679   -3.1490   -1.4196 O   0  0  0  0  0  0  0  0  0  0  0  0
   13.0026   -2.7171    0.7296 N   0  0  0  0  0  0  0  0  0  0  0  0
   11.7030   -2.5098    1.3065 C   0  0  0  0  0  0  0  0  0  0  0  0
   11.7693   -2.0588    2.3061 H   0  0  0  0  0  0  0  0  0  0  0  0
   11.1134   -1.8308    0.6818 H   0  0  0  0  0  0  0  0  0  0  0  0
   11.0716   -3.8321    1.3340 N   0  0  0  0  0  0  0  0  0  0  0  0
    9.5952   -3.8093    1.4117 C   0  0  0  0  0  0  0  0  0  0  0  0
    9.1977   -4.8003    1.1576 H   0  0  0  0  0  0  0  0  0  0  0  0
    9.1869   -3.0820    0.7008 H   0  0  0  0  0  0  0  0  0  0  0  0
    9.1452   -3.4411    2.8292 C   0  0  0  0  0  0  0  0  0  0  0  0
    9.5087   -2.4336    3.0687 H   0  0  0  0  0  0  0  0  0  0  0  0
    8.0509   -3.4401    2.8878 H   0  0  0  0  0  0  0  0  0  0  0  0
    9.7054   -4.4421    3.8440 C   0  0  0  0  0  0  0  0  0  0  0  0
    9.2707   -5.4379    3.6753 H   0  0  0  0  0  0  0  0  0  0  0  0
    9.4167   -4.1136    4.8459 H   0  0  0  0  0  0  0  0  0  0  0  0
   11.2397   -4.5116    3.7071 C   0  0  0  0  0  0  0  0  0  0  0  0
   11.6363   -5.2800    4.3801 H   0  0  0  0  0  0  0  0  0  0  0  0
   11.6782   -3.5498    3.9892 H   0  0  0  0  0  0  0  0  0  0  0  0
   11.6568   -4.8246    2.2614 C   0  0  0  0  0  0  0  0  0  0  0  0
   12.7497   -4.8247    2.1810 H   0  0  0  0  0  0  0  0  0  0  0  0
   11.3008   -5.8267    1.9945 H   0  0  0  0  0  0  0  0  0  0  0  0
   14.1974   -2.6645    1.3870 C   0  0  0  0  0  0  0  0  0  0  0  0
   14.3731   -2.3676    2.7042 N   0  0  0  0  0  0  0  0  0  0  0  0
   15.3222   -2.3332    3.0732 H   0  0  0  0  0  0  0  0  0  0  0  0
   13.5799   -2.1006    3.2809 H   0  0  0  0  0  0  0  0  0  0  0  0
   15.2003   -2.9185    0.6170 N   0  0  0  0  0  4  0  0  0  0  0  0
   16.1728   -2.9450    0.9433 H   0  0  0  0  0  0  0  0  0  0  0  0
   15.2905   -0.8493   -1.4954 C   0  0  0  0  0  0  0  0  0  0  0  0
   14.8569   -0.5033   -0.5618 H   0  0  0  0  0  0  0  0  0  0  0  0
   15.4504    2.0082   -0.7996 C   0  0  0  0  0  0  0  0  0  0  0  0
   15.3426    1.2698   -0.0112 H   0  0  0  0  0  0  0  0  0  0  0  0
   15.3858    3.3815   -0.5574 C   0  0  0  0  0  0  0  0  0  0  0  0
   15.1859    3.7660    0.4347 H   0  0  0  0  0  0  0  0  0  0  0  0
  1  2  1  0
  2  3  2  0
  3  4  1  0
  4  5  1  0
  4  6  2  0
  6  7  1  0
  7  8  2  0
  8  9  1  0
  8 10  1  0
 10 11  1  0
 10 12  2  0
 12 13  1  0
 12 14  1  0
 15 14  1  6
 15 16  1  0
 16 17  2  0
 17 18  1  0
 17 19  1  0
 19 20  1  0
 19 21  2  0
 21 22  1  0
 21 23  1  0
 23 24  1  0
 23 25  2  0
 25 26  1  0
 15 27  1  0
 27 28  2  0
 27 29  1  0
 29 30  1  0
 30 31  1  0
 30 32  1  0
 30 33  1  0
 33 34  1  0
 34 35  1  0
 34 36  1  0
 34 37  1  0
 37 38  1  0
 37 39  1  0
 37 40  1  0
 40 41  1  0
 40 42  1  0
 40 43  1  0
 43 44  1  0
 43 45  1  0
 43 46  1  0
 46 47  1  0
 46 48  1  0
 29 49  1  0
 49 50  1  0
 50 51  1  0
 50 52  1  0
 49 53  2  0
 53 54  1  0
 14 55  2  0
 55 56  1  0
  6 57  1  0
 57 58  1  0
 57 59  2  0
 59 60  1  0
 59  2  1  0
 55  7  1  0
 53 15  1  0
 25 16  1  0
 46 33  1  0
M  CHG  1  53   1
M  END
>  <score>  (9) 
6.14177

$$$$

     RDKit          3D

 56 60  0  0  0  0  0  0  0  0999 V2000
   10.6645   -2.2030    4.9814 H   0  0  0  0  0  0  0  0  0  0  0  0
    9.7385   -2.5254    4.9712 O   0  0  0  0  0  0  0  0  0  0  0  0
    9.5941   -3.6046    4.0452 C   0  0  0  0  0  0  0  0  0  0  0  0
    8.5578   -3.9625    4.0055 H   0  0  0  0  0  0  0  0  0  0  0  0
   10.2379   -4.4472    4.3159 H   0  0  0  0  0  0  0  0  0  0  0  0
   10.0100   -3.0107    2.7410 C   0  0  0  0  0  0  0  0  0  0  0  0
    9.1552   -2.1159    2.0826 C   0  0  0  0  0  0  0  0  0  0  0  0
    8.1583   -1.9589    2.4717 H   0  0  0  0  0  0  0  0  0  0  0  0
    9.5951   -1.3846    0.9754 C   0  0  0  0  0  0  0  0  0  0  0  0
    8.9319   -0.6848    0.4755 H   0  0  0  0  0  0  0  0  0  0  0  0
   10.8969   -1.5655    0.5093 C   0  0  0  0  0  0  0  0  0  0  0  0
   11.2599   -1.0054   -0.3455 H   0  0  0  0  0  0  0  0  0  0  0  0
   11.7471   -2.4687    1.1496 C   0  0  0  0  0  0  0  0  0  0  0  0
   13.0336   -2.6583    0.6641 N   0  0  0  0  0  0  0  0  0  0  0  0
   13.3496   -2.9936   -0.6285 C   0  0  0  0  0  0  0  0  0  0  0  0
   12.5349   -3.1744   -1.5335 O   0  0  0  0  0  0  0  0  0  0  0  0
   14.8660   -3.2040   -0.7369 C   0  0  1  0  0  0  0  0  0  0  0  0
   15.2222   -4.6512   -1.0302 C   0  0  0  0  0  0  0  0  0  0  0  0
   16.4389   -5.1854   -0.5834 C   0  0  0  0  0  0  0  0  0  0  0  0
   17.1364   -4.5520   -0.0421 H   0  0  0  0  0  0  0  0  0  0  0  0
   16.7497   -6.5301   -0.8025 C   0  0  0  0  0  0  0  0  0  0  0  0
   17.6892   -6.9268   -0.4310 H   0  0  0  0  0  0  0  0  0  0  0  0
   15.8529   -7.3556   -1.4898 C   0  0  0  0  0  0  0  0  0  0  0  0
   16.0941   -8.4009   -1.6596 H   0  0  0  0  0  0  0  0  0  0  0  0
   14.6453   -6.8296   -1.9601 C   0  0  0  0  0  0  0  0  0  0  0  0
   13.9444   -7.4602   -2.4990 H   0  0  0  0  0  0  0  0  0  0  0  0
   14.3343   -5.4857   -1.7323 C   0  0  0  0  0  0  0  0  0  0  0  0
   13.3917   -5.0941   -2.1017 H   0  0  0  0  0  0  0  0  0  0  0  0
   15.4315   -2.2153   -1.7401 C   0  0  0  0  0  0  0  0  0  0  0  0
   15.9636   -2.6364   -2.9690 C   0  0  0  0  0  0  0  0  0  0  0  0
   16.0059   -3.6978   -3.2028 H   0  0  0  0  0  0  0  0  0  0  0  0
   16.4196   -1.6977   -3.9010 C   0  0  0  0  0  0  0  0  0  0  0  0
   16.8209   -2.0264   -4.8553 H   0  0  0  0  0  0  0  0  0  0  0  0
   16.3458   -0.3306   -3.6108 C   0  0  0  0  0  0  0  0  0  0  0  0
   16.6992    0.3900   -4.3398 H   0  0  0  0  0  0  0  0  0  0  0  0
   15.8146    0.1184   -2.3948 C   0  0  0  0  0  0  0  0  0  0  0  0
   15.7456    1.5560   -2.0858 C   0  0  0  0  0  0  0  0  0  0  0  0
   15.9182    2.5213   -3.0906 C   0  0  0  0  0  0  0  0  0  0  0  0
   16.1187    2.1806   -4.1019 H   0  0  0  0  0  0  0  0  0  0  0  0
   15.8394    3.8461   -2.8642 N   0  0  0  0  0  0  0  0  0  0  0  0
   15.5961    4.2637   -1.6122 C   0  0  0  0  0  0  0  0  0  0  0  0
   15.5188    5.3308   -1.4232 H   0  0  0  0  0  0  0  0  0  0  0  0
   15.4311    3.3696   -0.5505 C   0  0  0  0  0  0  0  0  0  0  0  0
   15.2347    3.7420    0.4473 H   0  0  0  0  0  0  0  0  0  0  0  0
   15.5103    1.9992   -0.7831 C   0  0  0  0  0  0  0  0  0  0  0  0
   15.3961    1.2849    0.0276 H   0  0  0  0  0  0  0  0  0  0  0  0
   15.3482   -0.8360   -1.4803 C   0  0  0  0  0  0  0  0  0  0  0  0
   14.9132   -0.4951   -0.5469 H   0  0  0  0  0  0  0  0  0  0  0  0
   15.2454   -2.8815    0.6511 N   0  0  0  0  0  4  0  0  0  0  0  0
   16.1781   -3.0426    1.0354 H   0  0  0  0  0  0  0  0  0  0  0  0
   14.2072   -2.6550    1.3845 C   0  0  0  0  0  0  0  0  0  0  0  0
   14.3780   -2.4481    2.7168 N   0  0  0  0  0  0  0  0  0  0  0  0
   13.5924   -2.0581    3.2355 H   0  0  0  0  0  0  0  0  0  0  0  0
   15.3282   -2.2646    3.0369 H   0  0  0  0  0  0  0  0  0  0  0  0
   11.3034   -3.2039    2.2467 C   0  0  0  0  0  0  0  0  0  0  0  0
   11.9914   -3.9063    2.7112 H   0  0  0  0  0  0  0  0  0  0  0  0
  1  2  1  0
  2  3  1  0
  3  4  1  0
  3  5  1  0
  3  6  1  0
  6  7  2  0
  7  8  1  0
  7  9  1  0
  9 10  1  0
  9 11  2  0
 11 12  1  0
 11 13  1  0
 13 14  1  0
 14 15  1  0
 15 16  2  0
 15 17  1  0
 17 18  1  6
 18 19  2  0
 19 20  1  0
 19 21  1  0
 21 22  1  0
 21 23  2  0
 23 24  1  0
 23 25  1  0
 25 26  1  0
 25 27  2  0
 27 28  1  0
 17 29  1  0
 29 30  2  0
 30 31  1  0
 30 32  1  0
 32 33  1  0
 32 34  2  0
 34 35  1  0
 34 36  1  0
 36 37  1  0
 37 38  2  0
 38 39  1  0
 38 40  1  0
 40 41  2  0
 41 42  1  0
 41 43  1  0
 43 44  1  0
 43 45  2  0
 45 46  1  0
 36 47  2  0
 47 48  1  0
 17 49  1  0
 49 50  1  0
 49 51  2  0
 51 52  1  0
 52 53  1  0
 52 54  1  0
 13 55  2  0
 55 56  1  0
 55  6  1  0
 51 14  1  0
 27 18  1  0
 47 29  1  0
 45 37  1  0
M  CHG  1  49   1
M  END
>  <score>  (10) 
6.13464

$$$$

     RDKit          3D

 59 64  0  0  0  0  0  0  0  0999 V2000
   15.5338    5.3254   -1.4147 H   0  0  0  0  0  0  0  0  0  0  0  0
   15.5973    4.2589   -1.6096 C   0  0  0  0  0  0  0  0  0  0  0  0
   15.8444    3.8438   -2.8612 N   0  0  0  0  0  0  0  0  0  0  0  0
   15.9163    2.5195   -3.0916 C   0  0  0  0  0  0  0  0  0  0  0  0
   16.1120    2.1869   -4.1061 H   0  0  0  0  0  0  0  0  0  0  0  0
   15.7415    1.5502   -2.0898 C   0  0  0  0  0  0  0  0  0  0  0  0
   15.8160    0.1110   -2.4003 C   0  0  0  0  0  0  0  0  0  0  0  0
   16.3446   -0.3320   -3.6200 C   0  0  0  0  0  0  0  0  0  0  0  0
   16.7022    0.3955   -4.3413 H   0  0  0  0  0  0  0  0  0  0  0  0
   16.4189   -1.6980   -3.9122 C   0  0  0  0  0  0  0  0  0  0  0  0
   16.8296   -2.0240   -4.8620 H   0  0  0  0  0  0  0  0  0  0  0  0
   15.9653   -2.6396   -2.9828 C   0  0  0  0  0  0  0  0  0  0  0  0
   16.0169   -3.6995   -3.2137 H   0  0  0  0  0  0  0  0  0  0  0  0
   15.4345   -2.2267   -1.7524 C   0  0  0  0  0  0  0  0  0  0  0  0
   14.8747   -3.2224   -0.7500 C   0  0  2  0  0  0  0  0  0  0  0  0
   15.2379   -4.6706   -1.0367 C   0  0  0  0  0  0  0  0  0  0  0  0
   16.4530   -5.2077   -0.5848 C   0  0  0  0  0  0  0  0  0  0  0  0
   17.1476   -4.5736   -0.0405 H   0  0  0  0  0  0  0  0  0  0  0  0
   16.7651   -6.5525   -0.8070 C   0  0  0  0  0  0  0  0  0  0  0  0
   17.7024   -6.9532   -0.4335 H   0  0  0  0  0  0  0  0  0  0  0  0
   15.8674   -7.3752   -1.4959 C   0  0  0  0  0  0  0  0  0  0  0  0
   16.1038   -8.4222   -1.6589 H   0  0  0  0  0  0  0  0  0  0  0  0
   14.6612   -6.8479   -1.9673 C   0  0  0  0  0  0  0  0  0  0  0  0
   13.9597   -7.4824   -2.5002 H   0  0  0  0  0  0  0  0  0  0  0  0
   14.3504   -5.5034   -1.7409 C   0  0  0  0  0  0  0  0  0  0  0  0
   13.4060   -5.1076   -2.1032 H   0  0  0  0  0  0  0  0  0  0  0  0
   13.3542   -3.0246   -0.6304 C   0  0  0  0  0  0  0  0  0  0  0  0
   12.5139   -3.1718   -1.5192 O   0  0  0  0  0  0  0  0  0  0  0  0
   13.0551   -2.6380    0.6539 N   0  0  0  0  0  0  0  0  0  0  0  0
   11.7537   -2.2232    1.1415 C   0  0  1  0  0  0  0  0  0  0  0  0
   11.7200   -2.0294    2.2206 H   0  0  0  0  0  0  0  0  0  0  0  0
   10.8721   -1.3720    0.2378 C   0  0  0  0  0  0  0  0  0  0  0  0
   10.3007   -0.5620    0.7072 H   0  0  0  0  0  0  0  0  0  0  0  0
   11.2835   -1.1350   -0.7486 H   0  0  0  0  0  0  0  0  0  0  0  0
   10.4877   -2.8281    0.5191 C   0  0  2  0  0  0  0  0  0  0  0  0
   10.5813   -3.5386   -0.3105 H   0  0  0  0  0  0  0  0  0  0  0  0
    9.4735   -3.2245    1.5718 C   0  0  0  0  0  0  0  0  0  0  0  0
    8.5473   -4.2627    1.3778 C   0  0  0  0  0  0  0  0  0  0  0  0
    8.4761   -4.7549    0.4123 H   0  0  0  0  0  0  0  0  0  0  0  0
    7.7174   -4.6769    2.4352 C   0  0  0  0  0  0  0  0  0  0  0  0
    6.9960   -5.4768    2.2904 H   0  0  0  0  0  0  0  0  0  0  0  0
    7.8493   -4.0973    3.7055 C   0  0  0  0  0  0  0  0  0  0  0  0
    7.2824   -4.4514    4.5643 H   0  0  0  0  0  0  0  0  0  0  0  0
    8.7479   -3.0497    3.8880 C   0  0  0  0  0  0  0  0  0  0  0  0
    8.8754   -2.5581    4.8524 H   0  0  0  0  0  0  0  0  0  0  0  0
    9.5220   -2.6043    2.8263 C   0  0  0  0  0  0  0  0  0  0  0  0
   10.2002   -1.7744    2.9764 H   0  0  0  0  0  0  0  0  0  0  0  0
   14.2432   -2.5500    1.3518 C   0  0  0  0  0  0  0  0  0  0  0  0
   14.4240   -2.1841    2.6547 N   0  0  0  0  0  0  0  0  0  0  0  0
   13.6126   -2.1286    3.2662 H   0  0  0  0  0  0  0  0  0  0  0  0
   15.3484   -2.3334    3.0606 H   0  0  0  0  0  0  0  0  0  0  0  0
   15.2611   -2.8680    0.6298 N   0  0  0  0  0  4  0  0  0  0  0  0
   16.2173   -2.9297    0.9872 H   0  0  0  0  0  0  0  0  0  0  0  0
   15.3554   -0.8476   -1.4848 C   0  0  0  0  0  0  0  0  0  0  0  0
   14.9187   -0.5117   -0.5488 H   0  0  0  0  0  0  0  0  0  0  0  0
   15.5018    1.9933   -0.7871 C   0  0  0  0  0  0  0  0  0  0  0  0
   15.3934    1.2759    0.0214 H   0  0  0  0  0  0  0  0  0  0  0  0
   15.4238    3.3646   -0.5512 C   0  0  0  0  0  0  0  0  0  0  0  0
   15.2350    3.7451    0.4452 H   0  0  0  0  0  0  0  0  0  0  0  0
  1  2  1  0
  2  3  2  0
  3  4  1  0
  4  5  1  0
  4  6  2  0
  6  7  1  0
  7  8  2  0
  8  9  1  0
  8 10  1  0
 10 11  1  0
 10 12  2  0
 12 13  1  0
 12 14  1  0
 15 14  1  6
 15 16  1  0
 16 17  2  0
 17 18  1  0
 17 19  1  0
 19 20  1  0
 19 21  2  0
 21 22  1  0
 21 23  1  0
 23 24  1  0
 23 25  2  0
 25 26  1  0
 15 27  1  0
 27 28  2  0
 27 29  1  0
 29 30  1  0
 30 31  1  1
 30 32  1  0
 32 33  1  0
 32 34  1  0
 32 35  1  0
 35 36  1  6
 35 37  1  0
 37 38  2  0
 38 39  1  0
 38 40  1  0
 40 41  1  0
 40 42  2  0
 42 43  1  0
 42 44  1  0
 44 45  1  0
 44 46  2  0
 46 47  1  0
 29 48  1  0
 48 49  1  0
 49 50  1  0
 49 51  1  0
 48 52  2  0
 52 53  1  0
 14 54  2  0
 54 55  1  0
  6 56  1  0
 56 57  1  0
 56 58  2  0
 58 59  1  0
 58  2  1  0
 54  7  1  0
 52 15  1  0
 25 16  1  0
 35 30  1  0
 46 37  1  0
M  CHG  1  52   1
M  END
>  <score>  (11) 
6.10975

$$$$

     RDKit          3D

 57 61  0  0  0  0  0  0  0  0999 V2000
   15.5668    5.3702   -1.3876 H   0  0  0  0  0  0  0  0  0  0  0  0
   15.5839    4.3007   -1.5974 C   0  0  0  0  0  0  0  0  0  0  0  0
   15.8189    3.8791   -2.8505 N   0  0  0  0  0  0  0  0  0  0  0  0
   15.8667    2.5508   -3.0888 C   0  0  0  0  0  0  0  0  0  0  0  0
   16.0514    2.2174   -4.1043 H   0  0  0  0  0  0  0  0  0  0  0  0
   15.6880    1.5705   -2.0975 C   0  0  0  0  0  0  0  0  0  0  0  0
   15.7710    0.1206   -2.4114 C   0  0  0  0  0  0  0  0  0  0  0  0
   16.3447   -0.3198   -3.6111 C   0  0  0  0  0  0  0  0  0  0  0  0
   16.7210    0.4153   -4.3149 H   0  0  0  0  0  0  0  0  0  0  0  0
   16.4332   -1.6872   -3.9091 C   0  0  0  0  0  0  0  0  0  0  0  0
   16.8639   -2.0065   -4.8522 H   0  0  0  0  0  0  0  0  0  0  0  0
   15.9495   -2.6430   -3.0074 C   0  0  0  0  0  0  0  0  0  0  0  0
   16.0029   -3.7018   -3.2532 H   0  0  0  0  0  0  0  0  0  0  0  0
   15.3873   -2.2396   -1.7876 C   0  0  0  0  0  0  0  0  0  0  0  0
   14.8265   -3.2454   -0.7896 C   0  0  2  0  0  0  0  0  0  0  0  0
   15.1798   -4.7129   -1.0779 C   0  0  0  0  0  0  0  0  0  0  0  0
   16.3957   -5.2369   -0.6104 C   0  0  0  0  0  0  0  0  0  0  0  0
   17.0677   -4.5834   -0.0621 H   0  0  0  0  0  0  0  0  0  0  0  0
   16.7316   -6.5808   -0.8042 C   0  0  0  0  0  0  0  0  0  0  0  0
   17.6716   -6.9576   -0.4153 H   0  0  0  0  0  0  0  0  0  0  0  0
   15.8540   -7.4364   -1.4741 C   0  0  0  0  0  0  0  0  0  0  0  0
   16.1177   -8.4830   -1.6122 H   0  0  0  0  0  0  0  0  0  0  0  0
   14.6432   -6.9352   -1.9615 C   0  0  0  0  0  0  0  0  0  0  0  0
   13.9708   -7.6066   -2.4877 H   0  0  0  0  0  0  0  0  0  0  0  0
   14.3061   -5.5840   -1.7673 C   0  0  0  0  0  0  0  0  0  0  0  0
   13.3548   -5.2234   -2.1489 H   0  0  0  0  0  0  0  0  0  0  0  0
   13.3115   -3.0113   -0.6215 C   0  0  0  0  0  0  0  0  0  0  0  0
   12.4871   -3.1380   -1.5341 O   0  0  0  0  0  0  0  0  0  0  0  0
   13.0349   -2.6175    0.6885 N   0  0  0  0  0  0  0  0  0  0  0  0
   11.7349   -2.6440    1.3362 N   0  0  0  0  0  0  0  0  0  0  0  0
   11.5982   -1.9117    2.0464 H   0  0  0  0  0  0  0  0  0  0  0  0
   11.4250   -3.9588    1.9019 C   0  0  0  0  0  0  0  0  0  0  0  0
   11.5871   -4.7279    1.1442 H   0  0  0  0  0  0  0  0  0  0  0  0
   12.0967   -4.1720    2.7410 H   0  0  0  0  0  0  0  0  0  0  0  0
    9.9991   -3.9725    2.3433 C   0  0  0  0  0  0  0  0  0  0  0  0
    8.9838   -4.3264    1.4428 C   0  0  0  0  0  0  0  0  0  0  0  0
    9.2435   -4.5900    0.4213 H   0  0  0  0  0  0  0  0  0  0  0  0
    7.6495   -4.3391    1.8573 C   0  0  0  0  0  0  0  0  0  0  0  0
    6.8688   -4.6182    1.1574 H   0  0  0  0  0  0  0  0  0  0  0  0
    7.3319   -4.0004    3.1765 C   0  0  0  0  0  0  0  0  0  0  0  0
    6.3009   -4.0108    3.5126 H   0  0  0  0  0  0  0  0  0  0  0  0
    8.3506   -3.6601    4.0731 C   0  0  0  0  0  0  0  0  0  0  0  0
    8.1278   -3.4202    5.1019 H   0  0  0  0  0  0  0  0  0  0  0  0
    9.6799   -3.6349    3.6598 C   0  0  0  0  0  0  0  0  0  0  0  0
   10.4702   -3.3588    4.3555 H   0  0  0  0  0  0  0  0  0  0  0  0
   14.2612   -2.6051    1.3503 C   0  0  0  0  0  0  0  0  0  0  0  0
   14.4360   -2.3489    2.6883 N   0  0  0  0  0  0  0  0  0  0  0  0
   15.3697   -2.3519    3.0999 H   0  0  0  0  0  0  0  0  0  0  0  0
   13.6201   -2.1310    3.2559 H   0  0  0  0  0  0  0  0  0  0  0  0
   15.2571   -2.8892    0.5799 N   0  0  0  0  0  4  0  0  0  0  0  0
   16.2268   -2.9290    0.8977 H   0  0  0  0  0  0  0  0  0  0  0  0
   15.3001   -0.8551   -1.5154 C   0  0  0  0  0  0  0  0  0  0  0  0
   14.8698   -0.5234   -0.5767 H   0  0  0  0  0  0  0  0  0  0  0  0
   15.4397    2.0218   -0.7989 C   0  0  0  0  0  0  0  0  0  0  0  0
   15.3062    1.2980   -0.0032 H   0  0  0  0  0  0  0  0  0  0  0  0
   15.3758    3.3983   -0.5522 C   0  0  0  0  0  0  0  0  0  0  0  0
   15.1691    3.7858    0.4397 H   0  0  0  0  0  0  0  0  0  0  0  0
  1  2  1  0
  2  3  2  0
  3  4  1  0
  4  5  1  0
  4  6  2  0
  6  7  1  0
  7  8  2  0
  8  9  1  0
  8 10  1  0
 10 11  1  0
 10 12  2  0
 12 13  1  0
 12 14  1  0
 15 14  1  6
 15 16  1  0
 16 17  2  0
 17 18  1  0
 17 19  1  0
 19 20  1  0
 19 21  2  0
 21 22  1  0
 21 23  1  0
 23 24  1  0
 23 25  2  0
 25 26  1  0
 15 27  1  0
 27 28  2  0
 27 29  1  0
 29 30  1  0
 30 31  1  0
 30 32  1  0
 32 33  1  0
 32 34  1  0
 32 35  1  0
 35 36  2  0
 36 37  1  0
 36 38  1  0
 38 39  1  0
 38 40  2  0
 40 41  1  0
 40 42  1  0
 42 43  1  0
 42 44  2  0
 44 45  1  0
 29 46  1  0
 46 47  1  0
 47 48  1  0
 47 49  1  0
 46 50  2  0
 50 51  1  0
 14 52  2  0
 52 53  1  0
  6 54  1  0
 54 55  1  0
 54 56  2  0
 56 57  1  0
 56  2  1  0
 52  7  1  0
 50 15  1  0
 25 16  1  0
 44 35  1  0
M  CHG  1  50   1
M  END
>  <score>  (12) 
6.09281

$$$$

     RDKit          3D

 60 64  0  0  0  0  0  0  0  0999 V2000
   15.5693    5.3720   -1.3875 H   0  0  0  0  0  0  0  0  0  0  0  0
   15.5840    4.3030   -1.5959 C   0  0  0  0  0  0  0  0  0  0  0  0
   15.8196    3.8808   -2.8483 N   0  0  0  0  0  0  0  0  0  0  0  0
   15.8642    2.5527   -3.0875 C   0  0  0  0  0  0  0  0  0  0  0  0
   16.0459    2.2243   -4.1052 H   0  0  0  0  0  0  0  0  0  0  0  0
   15.6857    1.5708   -2.0960 C   0  0  0  0  0  0  0  0  0  0  0  0
   15.7720    0.1195   -2.4108 C   0  0  0  0  0  0  0  0  0  0  0  0
   16.3470   -0.3208   -3.6115 C   0  0  0  0  0  0  0  0  0  0  0  0
   16.7254    0.4073   -4.3213 H   0  0  0  0  0  0  0  0  0  0  0  0
   16.4326   -1.6884   -3.9100 C   0  0  0  0  0  0  0  0  0  0  0  0
   16.8645   -2.0084   -4.8527 H   0  0  0  0  0  0  0  0  0  0  0  0
   15.9471   -2.6442   -3.0090 C   0  0  0  0  0  0  0  0  0  0  0  0
   16.0044   -3.7010   -3.2589 H   0  0  0  0  0  0  0  0  0  0  0  0
   15.3838   -2.2433   -1.7873 C   0  0  0  0  0  0  0  0  0  0  0  0
   14.8183   -3.2525   -0.7906 C   0  0  2  0  0  0  0  0  0  0  0  0
   15.1760   -4.7184   -1.0763 C   0  0  0  0  0  0  0  0  0  0  0  0
   16.3932   -5.2401   -0.6093 C   0  0  0  0  0  0  0  0  0  0  0  0
   17.0677   -4.5867   -0.0645 H   0  0  0  0  0  0  0  0  0  0  0  0
   16.7302   -6.5831   -0.8027 C   0  0  0  0  0  0  0  0  0  0  0  0
   17.6726   -6.9564   -0.4166 H   0  0  0  0  0  0  0  0  0  0  0  0
   15.8535   -7.4404   -1.4721 C   0  0  0  0  0  0  0  0  0  0  0  0
   16.1207   -8.4858   -1.6118 H   0  0  0  0  0  0  0  0  0  0  0  0
   14.6422   -6.9398   -1.9602 C   0  0  0  0  0  0  0  0  0  0  0  0
   13.9715   -7.6113   -2.4877 H   0  0  0  0  0  0  0  0  0  0  0  0
   14.3035   -5.5896   -1.7663 C   0  0  0  0  0  0  0  0  0  0  0  0
   13.3539   -5.2308   -2.1538 H   0  0  0  0  0  0  0  0  0  0  0  0
   13.2984   -3.0243   -0.6229 C   0  0  0  0  0  0  0  0  0  0  0  0
   12.4716   -3.1241   -1.5353 O   0  0  0  0  0  0  0  0  0  0  0  0
   13.0251   -2.6316    0.6894 N   0  0  0  0  0  0  0  0  0  0  0  0
   11.7197   -2.5493    1.3281 N   0  0  0  0  0  0  0  0  0  0  0  0
   11.6269   -1.7407    1.9568 H   0  0  0  0  0  0  0  0  0  0  0  0
   11.3528   -3.7727    2.0435 C   0  0  0  0  0  0  0  0  0  0  0  0
   12.1612   -4.0277    2.7314 H   0  0  0  0  0  0  0  0  0  0  0  0
   10.0921   -3.5025    2.8527 C   0  0  0  0  0  0  0  0  0  0  0  0
   10.2866   -2.6992    3.5704 H   0  0  0  0  0  0  0  0  0  0  0  0
    9.2995   -3.1646    2.1821 H   0  0  0  0  0  0  0  0  0  0  0  0
    9.6417   -4.7669    3.5889 C   0  0  0  0  0  0  0  0  0  0  0  0
   10.4009   -5.0446    4.3237 H   0  0  0  0  0  0  0  0  0  0  0  0
    8.7136   -4.5668    4.1316 H   0  0  0  0  0  0  0  0  0  0  0  0
    9.4358   -5.9283    2.6144 C   0  0  0  0  0  0  0  0  0  0  0  0
    9.1609   -6.8295    3.1687 H   0  0  0  0  0  0  0  0  0  0  0  0
    8.6110   -5.6913    1.9400 H   0  0  0  0  0  0  0  0  0  0  0  0
   10.6968   -6.1973    1.7925 C   0  0  0  0  0  0  0  0  0  0  0  0
   11.4931   -6.5398    2.4569 H   0  0  0  0  0  0  0  0  0  0  0  0
   10.5063   -6.9977    1.0709 H   0  0  0  0  0  0  0  0  0  0  0  0
   11.1556   -4.9311    1.0643 C   0  0  0  0  0  0  0  0  0  0  0  0
   10.4165   -4.6535    0.3124 H   0  0  0  0  0  0  0  0  0  0  0  0
   12.0923   -5.1242    0.5375 H   0  0  0  0  0  0  0  0  0  0  0  0
   14.2476   -2.6195    1.3527 C   0  0  0  0  0  0  0  0  0  0  0  0
   14.4264   -2.3459    2.6892 N   0  0  0  0  0  0  0  0  0  0  0  0
   15.3591   -2.3630    3.1041 H   0  0  0  0  0  0  0  0  0  0  0  0
   13.6141   -2.1085    3.2561 H   0  0  0  0  0  0  0  0  0  0  0  0
   15.2458   -2.9010    0.5815 N   0  0  0  0  0  4  0  0  0  0  0  0
   16.2177   -2.9222    0.8948 H   0  0  0  0  0  0  0  0  0  0  0  0
   15.2995   -0.8579   -1.5156 C   0  0  0  0  0  0  0  0  0  0  0  0
   14.8694   -0.5273   -0.5771 H   0  0  0  0  0  0  0  0  0  0  0  0
   15.4352    2.0249   -0.7973 C   0  0  0  0  0  0  0  0  0  0  0  0
   15.2983    1.3091    0.0041 H   0  0  0  0  0  0  0  0  0  0  0  0
   15.3724    3.4013   -0.5512 C   0  0  0  0  0  0  0  0  0  0  0  0
   15.1678    3.7869    0.4416 H   0  0  0  0  0  0  0  0  0  0  0  0
  1  2  1  0
  2  3  2  0
  3  4  1  0
  4  5  1  0
  4  6  2  0
  6  7  1  0
  7  8  2  0
  8  9  1  0
  8 10  1  0
 10 11  1  0
 10 12  2  0
 12 13  1  0
 12 14  1  0
 15 14  1  6
 15 16  1  0
 16 17  2  0
 17 18  1  0
 17 19  1  0
 19 20  1  0
 19 21  2  0
 21 22  1  0
 21 23  1  0
 23 24  1  0
 23 25  2  0
 25 26  1  0
 15 27  1  0
 27 28  2  0
 27 29  1  0
 29 30  1  0
 30 31  1  0
 30 32  1  0
 32 33  1  0
 32 34  1  0
 34 35  1  0
 34 36  1  0
 34 37  1  0
 37 38  1  0
 37 39  1  0
 37 40  1  0
 40 41  1  0
 40 42  1  0
 40 43  1  0
 43 44  1  0
 43 45  1  0
 43 46  1  0
 46 47  1  0
 46 48  1  0
 29 49  1  0
 49 50  1  0
 50 51  1  0
 50 52  1  0
 49 53  2  0
 53 54  1  0
 14 55  2  0
 55 56  1  0
  6 57  1  0
 57 58  1  0
 57 59  2  0
 59 60  1  0
 59  2  1  0
 55  7  1  0
 53 15  1  0
 25 16  1  0
 46 32  1  0
M  CHG  1  53   1
M  END
>  <score>  (13) 
6.07455

$$$$

     RDKit          3D

 59 63  0  0  0  0  0  0  0  0999 V2000
   15.5693    5.3722   -1.3876 H   0  0  0  0  0  0  0  0  0  0  0  0
   15.5829    4.3032   -1.5953 C   0  0  0  0  0  0  0  0  0  0  0  0
   15.8194    3.8807   -2.8472 N   0  0  0  0  0  0  0  0  0  0  0  0
   15.8637    2.5526   -3.0883 C   0  0  0  0  0  0  0  0  0  0  0  0
   16.0475    2.2225   -4.1055 H   0  0  0  0  0  0  0  0  0  0  0  0
   15.6865    1.5709   -2.0960 C   0  0  0  0  0  0  0  0  0  0  0  0
   15.7696    0.1181   -2.4110 C   0  0  0  0  0  0  0  0  0  0  0  0
   16.3490   -0.3213   -3.6101 C   0  0  0  0  0  0  0  0  0  0  0  0
   16.7230    0.4105   -4.3194 H   0  0  0  0  0  0  0  0  0  0  0  0
   16.4326   -1.6891   -3.9101 C   0  0  0  0  0  0  0  0  0  0  0  0
   16.8650   -2.0062   -4.8529 H   0  0  0  0  0  0  0  0  0  0  0  0
   15.9475   -2.6454   -3.0096 C   0  0  0  0  0  0  0  0  0  0  0  0
   16.0042   -3.7019   -3.2560 H   0  0  0  0  0  0  0  0  0  0  0  0
   15.3879   -2.2454   -1.7865 C   0  0  0  0  0  0  0  0  0  0  0  0
   14.8286   -3.2543   -0.7895 C   0  0  2  0  0  0  0  0  0  0  0  0
   15.1781   -4.7190   -1.0786 C   0  0  0  0  0  0  0  0  0  0  0  0
   16.3953   -5.2405   -0.6120 C   0  0  0  0  0  0  0  0  0  0  0  0
   17.0657   -4.5860   -0.0635 H   0  0  0  0  0  0  0  0  0  0  0  0
   16.7299   -6.5838   -0.8029 C   0  0  0  0  0  0  0  0  0  0  0  0
   17.6718   -6.9561   -0.4164 H   0  0  0  0  0  0  0  0  0  0  0  0
   15.8534   -7.4401   -1.4732 C   0  0  0  0  0  0  0  0  0  0  0  0
   16.1205   -8.4855   -1.6115 H   0  0  0  0  0  0  0  0  0  0  0  0
   14.6425   -6.9389   -1.9619 C   0  0  0  0  0  0  0  0  0  0  0  0
   13.9722   -7.6115   -2.4880 H   0  0  0  0  0  0  0  0  0  0  0  0
   14.3035   -5.5888   -1.7677 C   0  0  0  0  0  0  0  0  0  0  0  0
   13.3534   -5.2304   -2.1549 H   0  0  0  0  0  0  0  0  0  0  0  0
   13.3171   -3.0074   -0.6284 C   0  0  0  0  0  0  0  0  0  0  0  0
   12.4571   -3.0987   -1.5043 O   0  0  0  0  0  0  0  0  0  0  0  0
   13.0537   -2.6290    0.6715 N   0  0  0  0  0  0  0  0  0  0  0  0
   11.7985   -2.2045    1.1866 O   0  0  0  0  0  0  0  0  0  0  0  0
   11.0915   -3.3162    1.7188 C   0  0  0  0  0  0  0  0  0  0  0  0
   10.9140   -4.0380    0.9211 H   0  0  0  0  0  0  0  0  0  0  0  0
   11.6868   -3.8157    2.4871 H   0  0  0  0  0  0  0  0  0  0  0  0
    9.7779   -2.8351    2.2962 C   0  0  0  0  0  0  0  0  0  0  0  0
    9.2098   -2.3202    1.5185 H   0  0  0  0  0  0  0  0  0  0  0  0
    9.9799   -2.1177    3.0989 H   0  0  0  0  0  0  0  0  0  0  0  0
    9.0065   -4.0156    2.8112 C   0  0  0  0  0  0  0  0  0  0  0  0
    9.1953   -4.4387    4.1226 C   0  0  0  0  0  0  0  0  0  0  0  0
    9.9117   -3.8829    4.7082 H   0  0  0  0  0  0  0  0  0  0  0  0
    8.4990   -5.5400    4.6341 C   0  0  0  0  0  0  0  0  0  0  0  0
    8.6487   -5.8559    5.6621 H   0  0  0  0  0  0  0  0  0  0  0  0
    7.6170   -6.2357    3.8020 C   0  0  0  0  0  0  0  0  0  0  0  0
    7.0757   -7.0942    4.1823 H   0  0  0  0  0  0  0  0  0  0  0  0
    7.4404   -5.8282    2.4747 C   0  0  0  0  0  0  0  0  0  0  0  0
    6.7633   -6.3697    1.8259 H   0  0  0  0  0  0  0  0  0  0  0  0
    8.1380   -4.7215    1.9811 C   0  0  0  0  0  0  0  0  0  0  0  0
    8.0201   -4.4021    0.9529 H   0  0  0  0  0  0  0  0  0  0  0  0
   14.2507   -2.6099    1.3567 C   0  0  0  0  0  0  0  0  0  0  0  0
   14.4145   -2.3264    2.6931 N   0  0  0  0  0  0  0  0  0  0  0  0
   13.5966   -2.1190    3.2660 H   0  0  0  0  0  0  0  0  0  0  0  0
   15.3448   -2.3478    3.1155 H   0  0  0  0  0  0  0  0  0  0  0  0
   15.2492   -2.9134    0.5889 N   0  0  0  0  0  4  0  0  0  0  0  0
   16.2244   -2.9245    0.8952 H   0  0  0  0  0  0  0  0  0  0  0  0
   15.2957   -0.8602   -1.5166 C   0  0  0  0  0  0  0  0  0  0  0  0
   14.8700   -0.5285   -0.5759 H   0  0  0  0  0  0  0  0  0  0  0  0
   15.4380    2.0247   -0.7970 C   0  0  0  0  0  0  0  0  0  0  0  0
   15.2991    1.3048    0.0004 H   0  0  0  0  0  0  0  0  0  0  0  0
   15.3729    3.4012   -0.5514 C   0  0  0  0  0  0  0  0  0  0  0  0
   15.1681    3.7873    0.4398 H   0  0  0  0  0  0  0  0  0  0  0  0
  1  2  1  0
  2  3  2  0
  3  4  1  0
  4  5  1  0
  4  6  2  0
  6  7  1  0
  7  8  2  0
  8  9  1  0
  8 10  1  0
 10 11  1  0
 10 12  2  0
 12 13  1  0
 12 14  1  0
 15 14  1  6
 15 16  1  0
 16 17  2  0
 17 18  1  0
 17 19  1  0
 19 20  1  0
 19 21  2  0
 21 22  1  0
 21 23  1  0
 23 24  1  0
 23 25  2  0
 25 26  1  0
 15 27  1  0
 27 28  2  0
 27 29  1  0
 29 30  1  0
 30 31  1  0
 31 32  1  0
 31 33  1  0
 31 34  1  0
 34 35  1  0
 34 36  1  0
 34 37  1  0
 37 38  2  0
 38 39  1  0
 38 40  1  0
 40 41  1  0
 40 42  2  0
 42 43  1  0
 42 44  1  0
 44 45  1  0
 44 46  2  0
 46 47  1  0
 29 48  1  0
 48 49  1  0
 49 50  1  0
 49 51  1  0
 48 52  2  0
 52 53  1  0
 14 54  2  0
 54 55  1  0
  6 56  1  0
 56 57  1  0
 56 58  2  0
 58 59  1  0
 58  2  1  0
 54  7  1  0
 52 15  1  0
 25 16  1  0
 46 37  1  0
M  CHG  1  52   1
M  END
>  <score>  (14) 
6.06451

$$$$

     RDKit          3D

 60 64  0  0  0  0  0  0  0  0999 V2000
   15.5126    5.3435   -1.4023 H   0  0  0  0  0  0  0  0  0  0  0  0
   15.6102    4.2818   -1.6089 C   0  0  0  0  0  0  0  0  0  0  0  0
   15.8695    3.8850   -2.8640 N   0  0  0  0  0  0  0  0  0  0  0  0
   15.9851    2.5657   -3.1066 C   0  0  0  0  0  0  0  0  0  0  0  0
   16.1836    2.2494   -4.1257 H   0  0  0  0  0  0  0  0  0  0  0  0
   15.8458    1.5841   -2.1114 C   0  0  0  0  0  0  0  0  0  0  0  0
   15.9550    0.1488   -2.4280 C   0  0  0  0  0  0  0  0  0  0  0  0
   16.4298   -0.2984   -3.6689 C   0  0  0  0  0  0  0  0  0  0  0  0
   16.7394    0.4235   -4.4172 H   0  0  0  0  0  0  0  0  0  0  0  0
   16.5032   -1.6681   -3.9523 C   0  0  0  0  0  0  0  0  0  0  0  0
   16.8698   -2.0014   -4.9171 H   0  0  0  0  0  0  0  0  0  0  0  0
   16.0885   -2.6068   -3.0002 C   0  0  0  0  0  0  0  0  0  0  0  0
   16.1165   -3.6681   -3.2325 H   0  0  0  0  0  0  0  0  0  0  0  0
   15.6080   -2.1850   -1.7521 C   0  0  0  0  0  0  0  0  0  0  0  0
   15.0076   -3.1544   -0.7483 C   0  0  2  0  0  0  0  0  0  0  0  0
   15.3260   -4.6190   -1.0269 C   0  0  0  0  0  0  0  0  0  0  0  0
   16.5258   -5.1879   -0.5733 C   0  0  0  0  0  0  0  0  0  0  0  0
   17.2363   -4.5703   -0.0312 H   0  0  0  0  0  0  0  0  0  0  0  0
   16.8040   -6.5406   -0.7987 C   0  0  0  0  0  0  0  0  0  0  0  0
   17.7341   -6.9632   -0.4317 H   0  0  0  0  0  0  0  0  0  0  0  0
   15.8861   -7.3419   -1.4858 C   0  0  0  0  0  0  0  0  0  0  0  0
   16.0943   -8.3943   -1.6515 H   0  0  0  0  0  0  0  0  0  0  0  0
   14.6927   -6.7866   -1.9552 C   0  0  0  0  0  0  0  0  0  0  0  0
   13.9751   -7.4008   -2.4907 H   0  0  0  0  0  0  0  0  0  0  0  0
   14.4180   -5.4345   -1.7303 C   0  0  0  0  0  0  0  0  0  0  0  0
   13.4837   -5.0238   -2.1014 H   0  0  0  0  0  0  0  0  0  0  0  0
   13.4945   -2.8970   -0.7032 C   0  0  0  0  0  0  0  0  0  0  0  0
   12.7351   -3.1153   -1.6481 O   0  0  0  0  0  0  0  0  0  0  0  0
   13.0910   -2.4585    0.5654 N   0  0  0  0  0  0  0  0  0  0  0  0
   11.7243   -2.0606    0.9894 N   0  0  0  0  0  0  0  0  0  0  0  0
   11.6997   -1.5281    1.8581 H   0  0  0  0  0  0  0  0  0  0  0  0
   10.3429   -3.1558    1.0485 S   0  0  0  0  0  0  0  0  0  0  0  0
    9.3791   -2.6567    2.0428 O   0  0  0  0  0  0  0  0  0  0  0  0
    9.7688   -3.2730   -0.3060 O   0  0  0  0  0  0  0  0  0  0  0  0
   11.1608   -4.6777    1.6194 C   0  0  0  0  0  0  0  0  0  0  0  0
   11.6999   -5.6167    0.7202 C   0  0  0  0  0  0  0  0  0  0  0  0
   11.5802   -5.5023   -0.3559 H   0  0  0  0  0  0  0  0  0  0  0  0
   12.4390   -6.7092    1.1951 C   0  0  0  0  0  0  0  0  0  0  0  0
   12.8287   -7.4433    0.4976 H   0  0  0  0  0  0  0  0  0  0  0  0
   12.6760   -6.8712    2.5633 C   0  0  0  0  0  0  0  0  0  0  0  0
   13.3953   -8.1186    3.0413 C   0  0  0  0  0  0  0  0  0  0  0  0
   13.4832   -8.1699    4.1280 H   0  0  0  0  0  0  0  0  0  0  0  0
   14.4048   -8.1552    2.6333 H   0  0  0  0  0  0  0  0  0  0  0  0
   12.8483   -9.0051    2.7042 H   0  0  0  0  0  0  0  0  0  0  0  0
   12.1939   -5.8770    3.4350 C   0  0  0  0  0  0  0  0  0  0  0  0
   12.4534   -5.8659    4.4858 H   0  0  0  0  0  0  0  0  0  0  0  0
   11.3909   -4.8332    2.9909 C   0  0  0  0  0  0  0  0  0  0  0  0
   11.0016   -4.1335    3.7332 H   0  0  0  0  0  0  0  0  0  0  0  0
   14.2955   -2.4133    1.3036 C   0  0  0  0  0  0  0  0  0  0  0  0
   14.4972   -2.0586    2.6079 N   0  0  0  0  0  0  0  0  0  0  0  0
   15.4186   -2.2309    3.0133 H   0  0  0  0  0  0  0  0  0  0  0  0
   13.6926   -1.9807    3.2260 H   0  0  0  0  0  0  0  0  0  0  0  0
   15.3412   -2.7932    0.6362 N   0  0  0  0  0  4  0  0  0  0  0  0
   16.2878   -2.8531    1.0253 H   0  0  0  0  0  0  0  0  0  0  0  0
   15.5515   -0.8071   -1.4872 C   0  0  0  0  0  0  0  0  0  0  0  0
   15.1526   -0.4678   -0.5369 H   0  0  0  0  0  0  0  0  0  0  0  0
   15.5833    2.0090   -0.8050 C   0  0  0  0  0  0  0  0  0  0  0  0
   15.4815    1.2869    0.0018 H   0  0  0  0  0  0  0  0  0  0  0  0
   15.4613    3.3741   -0.5587 C   0  0  0  0  0  0  0  0  0  0  0  0
   15.2535    3.7383    0.4399 H   0  0  0  0  0  0  0  0  0  0  0  0
  1  2  1  0
  2  3  2  0
  3  4  1  0
  4  5  1  0
  4  6  2  0
  6  7  1  0
  7  8  2  0
  8  9  1  0
  8 10  1  0
 10 11  1  0
 10 12  2  0
 12 13  1  0
 12 14  1  0
 15 14  1  6
 15 16  1  0
 16 17  2  0
 17 18  1  0
 17 19  1  0
 19 20  1  0
 19 21  2  0
 21 22  1  0
 21 23  1  0
 23 24  1  0
 23 25  2  0
 25 26  1  0
 15 27  1  0
 27 28  2  0
 27 29  1  0
 29 30  1  0
 30 31  1  0
 30 32  1  0
 32 33  2  0
 32 34  2  0
 32 35  1  0
 35 36  2  0
 36 37  1  0
 36 38  1  0
 38 39  1  0
 38 40  2  0
 40 41  1  0
 41 42  1  0
 41 43  1  0
 41 44  1  0
 40 45  1  0
 45 46  1  0
 45 47  2  0
 47 48  1  0
 29 49  1  0
 49 50  1  0
 50 51  1  0
 50 52  1  0
 49 53  2  0
 53 54  1  0
 14 55  2  0
 55 56  1  0
  6 57  1  0
 57 58  1  0
 57 59  2  0
 59 60  1  0
 59  2  1  0
 55  7  1  0
 53 15  1  0
 25 16  1  0
 47 35  1  0
M  CHG  1  53   1
M  END
>  <score>  (15) 
6.00824

$$$$

     RDKit          3D

 51 54  0  0  0  0  0  0  0  0999 V2000
   15.5695    5.3723   -1.3876 H   0  0  0  0  0  0  0  0  0  0  0  0
   15.5836    4.3033   -1.5955 C   0  0  0  0  0  0  0  0  0  0  0  0
   15.8193    3.8809   -2.8477 N   0  0  0  0  0  0  0  0  0  0  0  0
   15.8640    2.5529   -3.0878 C   0  0  0  0  0  0  0  0  0  0  0  0
   16.0464    2.2245   -4.1056 H   0  0  0  0  0  0  0  0  0  0  0  0
   15.6861    1.5708   -2.0962 C   0  0  0  0  0  0  0  0  0  0  0  0
   15.7709    0.1183   -2.4109 C   0  0  0  0  0  0  0  0  0  0  0  0
   16.3477   -0.3216   -3.6112 C   0  0  0  0  0  0  0  0  0  0  0  0
   16.7246    0.4086   -4.3206 H   0  0  0  0  0  0  0  0  0  0  0  0
   16.4323   -1.6896   -3.9089 C   0  0  0  0  0  0  0  0  0  0  0  0
   16.8655   -2.0065   -4.8534 H   0  0  0  0  0  0  0  0  0  0  0  0
   15.9443   -2.6453   -3.0055 C   0  0  0  0  0  0  0  0  0  0  0  0
   16.0041   -3.7018   -3.2566 H   0  0  0  0  0  0  0  0  0  0  0  0
   15.3762   -2.2449   -1.7831 C   0  0  0  0  0  0  0  0  0  0  0  0
   14.8098   -3.2532   -0.7813 C   0  0  2  0  0  0  0  0  0  0  0  0
   15.1732   -4.7162   -1.0719 C   0  0  0  0  0  0  0  0  0  0  0  0
   16.3923   -5.2376   -0.6097 C   0  0  0  0  0  0  0  0  0  0  0  0
   17.0671   -4.5861   -0.0631 H   0  0  0  0  0  0  0  0  0  0  0  0
   16.7297   -6.5818   -0.8031 C   0  0  0  0  0  0  0  0  0  0  0  0
   17.6722   -6.9562   -0.4165 H   0  0  0  0  0  0  0  0  0  0  0  0
   15.8537   -7.4399   -1.4726 C   0  0  0  0  0  0  0  0  0  0  0  0
   16.1207   -8.4857   -1.6115 H   0  0  0  0  0  0  0  0  0  0  0  0
   14.6430   -6.9384   -1.9615 C   0  0  0  0  0  0  0  0  0  0  0  0
   13.9721   -7.6114   -2.4878 H   0  0  0  0  0  0  0  0  0  0  0  0
   14.3040   -5.5876   -1.7666 C   0  0  0  0  0  0  0  0  0  0  0  0
   13.3537   -5.2312   -2.1545 H   0  0  0  0  0  0  0  0  0  0  0  0
   13.2959   -3.0408   -0.5951 C   0  0  0  0  0  0  0  0  0  0  0  0
   12.4301   -3.1040   -1.4639 O   0  0  0  0  0  0  0  0  0  0  0  0
   13.0151   -2.6711    0.7013 N   0  0  0  0  0  0  0  0  0  0  0  0
   11.6797   -2.5128    1.2786 C   0  0  0  0  0  0  0  0  0  0  0  0
   11.7313   -1.9242    2.1977 H   0  0  0  0  0  0  0  0  0  0  0  0
   11.0302   -1.9637    0.5844 H   0  0  0  0  0  0  0  0  0  0  0  0
   11.0523   -3.8753    1.5741 C   0  0  0  0  0  0  0  0  0  0  0  0
   10.0134   -3.7286    1.8792 H   0  0  0  0  0  0  0  0  0  0  0  0
   11.0448   -4.4765    0.6630 H   0  0  0  0  0  0  0  0  0  0  0  0
   11.7825   -4.6364    2.6826 C   0  0  0  0  0  0  0  0  0  0  0  0
   11.8294   -4.0404    3.5968 H   0  0  0  0  0  0  0  0  0  0  0  0
   11.2609   -5.5716    2.9090 H   0  0  0  0  0  0  0  0  0  0  0  0
   12.8033   -4.8757    2.3769 H   0  0  0  0  0  0  0  0  0  0  0  0
   14.2144   -2.6331    1.3681 C   0  0  0  0  0  0  0  0  0  0  0  0
   14.3961   -2.3494    2.6897 N   0  0  0  0  0  0  0  0  0  0  0  0
   15.3381   -2.3504    3.0831 H   0  0  0  0  0  0  0  0  0  0  0  0
   13.5854   -2.1472    3.2696 H   0  0  0  0  0  0  0  0  0  0  0  0
   15.2117   -2.8986    0.5958 N   0  0  0  0  0  4  0  0  0  0  0  0
   16.1789   -2.9128    0.9123 H   0  0  0  0  0  0  0  0  0  0  0  0
   15.2957   -0.8593   -1.5156 C   0  0  0  0  0  0  0  0  0  0  0  0
   14.8690   -0.5291   -0.5757 H   0  0  0  0  0  0  0  0  0  0  0  0
   15.4360    2.0249   -0.7973 C   0  0  0  0  0  0  0  0  0  0  0  0
   15.2983    1.3070    0.0025 H   0  0  0  0  0  0  0  0  0  0  0  0
   15.3724    3.4015   -0.5510 C   0  0  0  0  0  0  0  0  0  0  0  0
   15.1680    3.7878    0.4411 H   0  0  0  0  0  0  0  0  0  0  0  0
  1  2  1  0
  2  3  2  0
  3  4  1  0
  4  5  1  0
  4  6  2  0
  6  7  1  0
  7  8  2  0
  8  9  1  0
  8 10  1  0
 10 11  1  0
 10 12  2  0
 12 13  1  0
 12 14  1  0
 15 14  1  6
 15 16  1  0
 16 17  2  0
 17 18  1  0
 17 19  1  0
 19 20  1  0
 19 21  2  0
 21 22  1  0
 21 23  1  0
 23 24  1  0
 23 25  2  0
 25 26  1  0
 15 27  1  0
 27 28  2  0
 27 29  1  0
 29 30  1  0
 30 31  1  0
 30 32  1  0
 30 33  1  0
 33 34  1  0
 33 35  1  0
 33 36  1  0
 36 37  1  0
 36 38  1  0
 36 39  1  0
 29 40  1  0
 40 41  1  0
 41 42  1  0
 41 43  1  0
 40 44  2  0
 44 45  1  0
 14 46  2  0
 46 47  1  0
  6 48  1  0
 48 49  1  0
 48 50  2  0
 50 51  1  0
 50  2  1  0
 46  7  1  0
 44 15  1  0
 25 16  1  0
M  CHG  1  44   1
M  END
>  <score>  (16) 
6.00504

$$$$

     RDKit          3D

 60 64  0  0  0  0  0  0  0  0999 V2000
   15.5597    5.2976   -1.3212 H   0  0  0  0  0  0  0  0  0  0  0  0
   15.6224    4.2365   -1.5401 C   0  0  0  0  0  0  0  0  0  0  0  0
   15.8581    3.8393   -2.8011 N   0  0  0  0  0  0  0  0  0  0  0  0
   15.9243    2.5175   -3.0505 C   0  0  0  0  0  0  0  0  0  0  0  0
   16.1103    2.2008   -4.0720 H   0  0  0  0  0  0  0  0  0  0  0  0
   15.7511    1.5352   -2.0592 C   0  0  0  0  0  0  0  0  0  0  0  0
   15.8100    0.0956   -2.3673 C   0  0  0  0  0  0  0  0  0  0  0  0
   16.3329   -0.3673   -3.5816 C   0  0  0  0  0  0  0  0  0  0  0  0
   16.7076    0.3470   -4.3070 H   0  0  0  0  0  0  0  0  0  0  0  0
   16.3847   -1.7371   -3.8540 C   0  0  0  0  0  0  0  0  0  0  0  0
   16.7938   -2.0816   -4.7960 H   0  0  0  0  0  0  0  0  0  0  0  0
   15.9019   -2.6573   -2.9196 C   0  0  0  0  0  0  0  0  0  0  0  0
   15.9318   -3.7189   -3.1449 H   0  0  0  0  0  0  0  0  0  0  0  0
   15.3656   -2.2224   -1.6978 C   0  0  0  0  0  0  0  0  0  0  0  0
   14.7508   -3.1998   -0.7061 C   0  0  2  0  0  0  0  0  0  0  0  0
   15.1431   -4.6450   -0.9700 C   0  0  0  0  0  0  0  0  0  0  0  0
   16.3704   -5.1507   -0.5138 C   0  0  0  0  0  0  0  0  0  0  0  0
   17.0487   -4.5020    0.0341 H   0  0  0  0  0  0  0  0  0  0  0  0
   16.7305   -6.4809   -0.7562 C   0  0  0  0  0  0  0  0  0  0  0  0
   17.6811   -6.8557   -0.3880 H   0  0  0  0  0  0  0  0  0  0  0  0
   15.8652   -7.3221   -1.4644 C   0  0  0  0  0  0  0  0  0  0  0  0
   16.1374   -8.3575   -1.6439 H   0  0  0  0  0  0  0  0  0  0  0  0
   14.6436   -6.8289   -1.9332 C   0  0  0  0  0  0  0  0  0  0  0  0
   13.9664   -7.4756   -2.4831 H   0  0  0  0  0  0  0  0  0  0  0  0
   14.2879   -5.4978   -1.6900 C   0  0  0  0  0  0  0  0  0  0  0  0
   13.3410   -5.1187   -2.0625 H   0  0  0  0  0  0  0  0  0  0  0  0
   13.2266   -3.0017   -0.6931 C   0  0  0  0  0  0  0  0  0  0  0  0
   12.4704   -3.0997   -1.6594 O   0  0  0  0  0  0  0  0  0  0  0  0
   12.8124   -2.6188    0.5589 N   0  0  0  0  0  0  0  0  0  0  0  0
   11.7691   -1.7109    0.6570 C   0  0  0  0  0  0  0  0  0  0  0  0
   11.9429   -0.3652    0.3133 C   0  0  0  0  0  0  0  0  0  0  0  0
   12.9045   -0.0143   -0.0366 H   0  0  0  0  0  0  0  0  0  0  0  0
   10.8810    0.5453    0.4168 C   0  0  0  0  0  0  0  0  0  0  0  0
   10.9683    1.8977    0.1647 O   0  0  0  0  0  0  0  0  0  0  0  0
   12.2581    2.4801   -0.1227 C   0  0  0  0  0  0  0  0  0  0  0  0
   12.1000    3.4980   -0.4843 H   0  0  0  0  0  0  0  0  0  0  0  0
   12.7990    1.9299   -0.9005 H   0  0  0  0  0  0  0  0  0  0  0  0
   12.8873    2.5609    0.7696 H   0  0  0  0  0  0  0  0  0  0  0  0
    9.6240    0.0484    0.7703 C   0  0  0  0  0  0  0  0  0  0  0  0
    8.7999    0.7448    0.8598 H   0  0  0  0  0  0  0  0  0  0  0  0
    9.4070   -1.3176    0.9835 C   0  0  0  0  0  0  0  0  0  0  0  0
    8.1244   -1.7554    1.1994 O   0  0  0  0  0  0  0  0  0  0  0  0
    7.9178   -3.1773    1.2275 C   0  0  0  0  0  0  0  0  0  0  0  0
    8.5013   -3.6331    2.0370 H   0  0  0  0  0  0  0  0  0  0  0  0
    8.2203   -3.6306    0.2753 H   0  0  0  0  0  0  0  0  0  0  0  0
    6.8530   -3.3812    1.3922 H   0  0  0  0  0  0  0  0  0  0  0  0
   10.5040   -2.1843    0.9574 C   0  0  0  0  0  0  0  0  0  0  0  0
   10.3643   -3.2374    1.1687 H   0  0  0  0  0  0  0  0  0  0  0  0
   13.9426   -2.5760    1.3492 C   0  0  0  0  0  0  0  0  0  0  0  0
   13.9747   -2.3402    2.6944 N   0  0  0  0  0  0  0  0  0  0  0  0
   13.1030   -2.0915    3.1607 H   0  0  0  0  0  0  0  0  0  0  0  0
   14.8613   -2.0765    3.1181 H   0  0  0  0  0  0  0  0  0  0  0  0
   15.0297   -2.8453    0.7003 N   0  0  0  0  0  4  0  0  0  0  0  0
   15.9532   -2.9273    1.1299 H   0  0  0  0  0  0  0  0  0  0  0  0
   15.3286   -0.8426   -1.4398 C   0  0  0  0  0  0  0  0  0  0  0  0
   14.8986   -0.4911   -0.5061 H   0  0  0  0  0  0  0  0  0  0  0  0
   15.5262    1.9633   -0.7497 C   0  0  0  0  0  0  0  0  0  0  0  0
   15.4280    1.2349    0.0499 H   0  0  0  0  0  0  0  0  0  0  0  0
   15.4543    3.3290   -0.4930 C   0  0  0  0  0  0  0  0  0  0  0  0
   15.2708    3.6900    0.5121 H   0  0  0  0  0  0  0  0  0  0  0  0
  1  2  1  0
  2  3  2  0
  3  4  1  0
  4  5  1  0
  4  6  2  0
  6  7  1  0
  7  8  2  0
  8  9  1  0
  8 10  1  0
 10 11  1  0
 10 12  2  0
 12 13  1  0
 12 14  1  0
 15 14  1  6
 15 16  1  0
 16 17  2  0
 17 18  1  0
 17 19  1  0
 19 20  1  0
 19 21  2  0
 21 22  1  0
 21 23  1  0
 23 24  1  0
 23 25  2  0
 25 26  1  0
 15 27  1  0
 27 28  2  0
 27 29  1  0
 29 30  1  0
 30 31  2  0
 31 32  1  0
 31 33  1  0
 33 34  1  0
 34 35  1  0
 35 36  1  0
 35 37  1  0
 35 38  1  0
 33 39  2  0
 39 40  1  0
 39 41  1  0
 41 42  1  0
 42 43  1  0
 43 44  1  0
 43 45  1  0
 43 46  1  0
 41 47  2  0
 47 48  1  0
 29 49  1  0
 49 50  1  0
 50 51  1  0
 50 52  1  0
 49 53  2  0
 53 54  1  0
 14 55  2  0
 55 56  1  0
  6 57  1  0
 57 58  1  0
 57 59  2  0
 59 60  1  0
 59  2  1  0
 55  7  1  0
 53 15  1  0
 25 16  1  0
 47 30  1  0
M  CHG  1  53   1
M  END
>  <score>  (17) 
6.00415

$$$$

     RDKit          3D

 57 61  0  0  0  0  0  0  0  0999 V2000
   15.5554    5.3548   -1.3933 H   0  0  0  0  0  0  0  0  0  0  0  0
   15.5875    4.2879   -1.6042 C   0  0  0  0  0  0  0  0  0  0  0  0
   15.8213    3.8703   -2.8586 N   0  0  0  0  0  0  0  0  0  0  0  0
   15.8778    2.5432   -3.0926 C   0  0  0  0  0  0  0  0  0  0  0  0
   16.0671    2.2057   -4.1052 H   0  0  0  0  0  0  0  0  0  0  0  0
   15.6951    1.5673   -2.0972 C   0  0  0  0  0  0  0  0  0  0  0  0
   15.7717    0.1185   -2.4046 C   0  0  0  0  0  0  0  0  0  0  0  0
   16.3298   -0.3198   -3.6094 C   0  0  0  0  0  0  0  0  0  0  0  0
   16.7127    0.4236   -4.3019 H   0  0  0  0  0  0  0  0  0  0  0  0
   16.4210   -1.6875   -3.9010 C   0  0  0  0  0  0  0  0  0  0  0  0
   16.8634   -2.0041   -4.8388 H   0  0  0  0  0  0  0  0  0  0  0  0
   15.9329   -2.6382   -2.9941 C   0  0  0  0  0  0  0  0  0  0  0  0
   15.9973   -3.6959   -3.2341 H   0  0  0  0  0  0  0  0  0  0  0  0
   15.3549   -2.2380   -1.7760 C   0  0  0  0  0  0  0  0  0  0  0  0
   14.7943   -3.2576   -0.7731 C   0  0  2  0  0  0  0  0  0  0  0  0
   15.1778   -4.7094   -1.0703 C   0  0  0  0  0  0  0  0  0  0  0  0
   16.3985   -5.2266   -0.6026 C   0  0  0  0  0  0  0  0  0  0  0  0
   17.0738   -4.5741   -0.0567 H   0  0  0  0  0  0  0  0  0  0  0  0
   16.7376   -6.5699   -0.8037 C   0  0  0  0  0  0  0  0  0  0  0  0
   17.6732   -6.9576   -0.4135 H   0  0  0  0  0  0  0  0  0  0  0  0
   15.8596   -7.4210   -1.4798 C   0  0  0  0  0  0  0  0  0  0  0  0
   16.1079   -8.4697   -1.6141 H   0  0  0  0  0  0  0  0  0  0  0  0
   14.6477   -6.9232   -1.9659 C   0  0  0  0  0  0  0  0  0  0  0  0
   13.9638   -7.5864   -2.4875 H   0  0  0  0  0  0  0  0  0  0  0  0
   14.3112   -5.5759   -1.7662 C   0  0  0  0  0  0  0  0  0  0  0  0
   13.3580   -5.2018   -2.1289 H   0  0  0  0  0  0  0  0  0  0  0  0
   13.2641   -3.1026   -0.5767 C   0  0  0  0  0  0  0  0  0  0  0  0
   12.3857   -3.1507   -1.4309 O   0  0  0  0  0  0  0  0  0  0  0  0
   13.0083   -2.7122    0.7084 N   0  0  0  0  0  0  0  0  0  0  0  0
   11.6984   -2.6510    1.2984 C   0  0  0  0  0  0  0  0  0  0  0  0
   11.7364   -2.1269    2.2627 H   0  0  0  0  0  0  0  0  0  0  0  0
   11.0086   -2.1001    0.6450 H   0  0  0  0  0  0  0  0  0  0  0  0
   11.2413   -4.0360    1.4663 N   0  0  0  0  0  0  0  0  0  0  0  0
    9.8122   -4.1354    1.8190 C   0  0  0  0  0  0  0  0  0  0  0  0
    9.1665   -4.0451    0.9356 H   0  0  0  0  0  0  0  0  0  0  0  0
    9.5344   -3.3475    2.5346 H   0  0  0  0  0  0  0  0  0  0  0  0
    9.6392   -5.4957    2.4837 C   0  0  0  0  0  0  0  0  0  0  0  0
    9.1663   -6.2113    1.8000 H   0  0  0  0  0  0  0  0  0  0  0  0
    9.0140   -5.4011    3.3791 H   0  0  0  0  0  0  0  0  0  0  0  0
   11.0463   -5.9603    2.8506 C   0  0  0  0  0  0  0  0  0  0  0  0
   11.2810   -6.8918    2.3214 H   0  0  0  0  0  0  0  0  0  0  0  0
   11.1146   -6.1299    3.9285 H   0  0  0  0  0  0  0  0  0  0  0  0
   12.0058   -4.8451    2.4351 C   0  0  0  0  0  0  0  0  0  0  0  0
   12.2760   -4.2452    3.3157 H   0  0  0  0  0  0  0  0  0  0  0  0
   12.9308   -5.2495    2.0030 H   0  0  0  0  0  0  0  0  0  0  0  0
   14.1974   -2.6682    1.3786 C   0  0  0  0  0  0  0  0  0  0  0  0
   14.3709   -2.3953    2.7000 N   0  0  0  0  0  0  0  0  0  0  0  0
   13.5846   -2.0813    3.2637 H   0  0  0  0  0  0  0  0  0  0  0  0
   15.3239   -2.3466    3.0664 H   0  0  0  0  0  0  0  0  0  0  0  0
   15.2051   -2.9139    0.6109 N   0  0  0  0  0  4  0  0  0  0  0  0
   16.1732   -2.9361    0.9433 H   0  0  0  0  0  0  0  0  0  0  0  0
   15.2947   -0.8513   -1.5005 C   0  0  0  0  0  0  0  0  0  0  0  0
   14.8603   -0.5103   -0.5667 H   0  0  0  0  0  0  0  0  0  0  0  0
   15.4441    2.0127   -0.8001 C   0  0  0  0  0  0  0  0  0  0  0  0
   15.3310    1.2765   -0.0111 H   0  0  0  0  0  0  0  0  0  0  0  0
   15.3831    3.3880   -0.5551 C   0  0  0  0  0  0  0  0  0  0  0  0
   15.1789    3.7753    0.4367 H   0  0  0  0  0  0  0  0  0  0  0  0
  1  2  1  0
  2  3  2  0
  3  4  1  0
  4  5  1  0
  4  6  2  0
  6  7  1  0
  7  8  2  0
  8  9  1  0
  8 10  1  0
 10 11  1  0
 10 12  2  0
 12 13  1  0
 12 14  1  0
 15 14  1  6
 15 16  1  0
 16 17  2  0
 17 18  1  0
 17 19  1  0
 19 20  1  0
 19 21  2  0
 21 22  1  0
 21 23  1  0
 23 24  1  0
 23 25  2  0
 25 26  1  0
 15 27  1  0
 27 28  2  0
 27 29  1  0
 29 30  1  0
 30 31  1  0
 30 32  1  0
 30 33  1  0
 33 34  1  0
 34 35  1  0
 34 36  1  0
 34 37  1  0
 37 38  1  0
 37 39  1  0
 37 40  1  0
 40 41  1  0
 40 42  1  0
 40 43  1  0
 43 44  1  0
 43 45  1  0
 29 46  1  0
 46 47  1  0
 47 48  1  0
 47 49  1  0
 46 50  2  0
 50 51  1  0
 14 52  2  0
 52 53  1  0
  6 54  1  0
 54 55  1  0
 54 56  2  0
 56 57  1  0
 56  2  1  0
 52  7  1  0
 50 15  1  0
 25 16  1  0
 43 33  1  0
M  CHG  1  50   1
M  END
>  <score>  (18) 
6.00119

$$$$

     RDKit          3D

 59 64  0  0  0  0  0  0  0  0999 V2000
   15.5098    5.3116   -1.4320 H   0  0  0  0  0  0  0  0  0  0  0  0
   15.5916    4.2451   -1.6170 C   0  0  0  0  0  0  0  0  0  0  0  0
   15.8500    3.8245   -2.8647 N   0  0  0  0  0  0  0  0  0  0  0  0
   15.9236    2.4992   -3.0863 C   0  0  0  0  0  0  0  0  0  0  0  0
   16.1291    2.1611   -4.0978 H   0  0  0  0  0  0  0  0  0  0  0  0
   15.7324    1.5375   -2.0793 C   0  0  0  0  0  0  0  0  0  0  0  0
   15.7780    0.0981   -2.3788 C   0  0  0  0  0  0  0  0  0  0  0  0
   16.3149   -0.3507   -3.5908 C   0  0  0  0  0  0  0  0  0  0  0  0
   16.6928    0.3712   -4.3079 H   0  0  0  0  0  0  0  0  0  0  0  0
   16.3798   -1.7157   -3.8744 C   0  0  0  0  0  0  0  0  0  0  0  0
   16.8127   -2.0443   -4.8138 H   0  0  0  0  0  0  0  0  0  0  0  0
   15.8985   -2.6475   -2.9478 C   0  0  0  0  0  0  0  0  0  0  0  0
   15.9602   -3.7062   -3.1783 H   0  0  0  0  0  0  0  0  0  0  0  0
   15.3492   -2.2317   -1.7216 C   0  0  0  0  0  0  0  0  0  0  0  0
   14.8109   -3.2334   -0.7015 C   0  0  2  0  0  0  0  0  0  0  0  0
   15.2051   -4.6712   -1.0130 C   0  0  0  0  0  0  0  0  0  0  0  0
   16.4319   -5.1951   -0.5749 C   0  0  0  0  0  0  0  0  0  0  0  0
   17.1272   -4.5569   -0.0360 H   0  0  0  0  0  0  0  0  0  0  0  0
   16.7567   -6.5358   -0.8037 C   0  0  0  0  0  0  0  0  0  0  0  0
   17.6987   -6.9294   -0.4341 H   0  0  0  0  0  0  0  0  0  0  0  0
   15.8652   -7.3652   -1.4928 C   0  0  0  0  0  0  0  0  0  0  0  0
   16.1103   -8.4096   -1.6580 H   0  0  0  0  0  0  0  0  0  0  0  0
   14.6561   -6.8467   -1.9667 C   0  0  0  0  0  0  0  0  0  0  0  0
   13.9604   -7.4824   -2.5061 H   0  0  0  0  0  0  0  0  0  0  0  0
   14.3324   -5.5074   -1.7323 C   0  0  0  0  0  0  0  0  0  0  0  0
   13.3869   -5.1188   -2.0988 H   0  0  0  0  0  0  0  0  0  0  0  0
   13.2866   -3.0930   -0.5131 C   0  0  0  0  0  0  0  0  0  0  0  0
   12.4078   -3.3822   -1.3233 O   0  0  0  0  0  0  0  0  0  0  0  0
   13.0208   -2.6662    0.7660 N   0  0  0  0  0  0  0  0  0  0  0  0
   11.7166   -2.6903    1.3735 C   0  0  0  0  0  0  0  0  0  0  0  0
   11.7254   -2.2262    2.3708 H   0  0  0  0  0  0  0  0  0  0  0  0
   10.9819   -2.1317    0.7733 H   0  0  0  0  0  0  0  0  0  0  0  0
   11.4378   -4.1049    1.4350 N   0  0  0  0  0  0  0  0  0  0  0  0
   10.7298   -4.8413    0.5250 C   0  0  0  0  0  0  0  0  0  0  0  0
   10.0898   -4.3559   -0.3947 O   0  0  0  0  0  0  0  0  0  0  0  0
   10.8737   -6.2677    0.8084 C   0  0  0  0  0  0  0  0  0  0  0  0
   10.2957   -7.4252    0.2614 C   0  0  0  0  0  0  0  0  0  0  0  0
    9.5431   -7.3610   -0.5236 H   0  0  0  0  0  0  0  0  0  0  0  0
   10.6832   -8.6804    0.7599 C   0  0  0  0  0  0  0  0  0  0  0  0
   10.2574   -9.5966    0.3550 H   0  0  0  0  0  0  0  0  0  0  0  0
   11.6375   -8.7665    1.7893 C   0  0  0  0  0  0  0  0  0  0  0  0
   11.9330   -9.7375    2.1760 H   0  0  0  0  0  0  0  0  0  0  0  0
   12.1919   -7.6094    2.3559 C   0  0  0  0  0  0  0  0  0  0  0  0
   12.9351   -7.6796    3.1515 H   0  0  0  0  0  0  0  0  0  0  0  0
   11.7804   -6.3631    1.8615 C   0  0  0  0  0  0  0  0  0  0  0  0
   12.1124   -4.9923    2.2308 C   0  0  0  0  0  0  0  0  0  0  0  0
   12.7745   -4.6132    3.1750 O   0  0  0  0  0  0  0  0  0  0  0  0
   14.2103   -2.6835    1.4502 C   0  0  0  0  0  0  0  0  0  0  0  0
   14.3739   -2.5332    2.7943 N   0  0  0  0  0  0  0  0  0  0  0  0
   13.5692   -2.1981    3.3206 H   0  0  0  0  0  0  0  0  0  0  0  0
   15.3016   -2.2537    3.1033 H   0  0  0  0  0  0  0  0  0  0  0  0
   15.2259   -2.8835    0.6754 N   0  0  0  0  0  4  0  0  0  0  0  0
   16.1771   -3.0155    1.0220 H   0  0  0  0  0  0  0  0  0  0  0  0
   15.2873   -0.8496   -1.4629 C   0  0  0  0  0  0  0  0  0  0  0  0
   14.8517   -0.4998   -0.5314 H   0  0  0  0  0  0  0  0  0  0  0  0
   15.5017    1.9862   -0.7791 C   0  0  0  0  0  0  0  0  0  0  0  0
   15.3972    1.2729    0.0332 H   0  0  0  0  0  0  0  0  0  0  0  0
   15.4239    3.3568   -0.5518 C   0  0  0  0  0  0  0  0  0  0  0  0
   15.2332    3.7345    0.4450 H   0  0  0  0  0  0  0  0  0  0  0  0
  1  2  1  0
  2  3  2  0
  3  4  1  0
  4  5  1  0
  4  6  2  0
  6  7  1  0
  7  8  2  0
  8  9  1  0
  8 10  1  0
 10 11  1  0
 10 12  2  0
 12 13  1  0
 12 14  1  0
 15 14  1  6
 15 16  1  0
 16 17  2  0
 17 18  1  0
 17 19  1  0
 19 20  1  0
 19 21  2  0
 21 22  1  0
 21 23  1  0
 23 24  1  0
 23 25  2  0
 25 26  1  0
 15 27  1  0
 27 28  2  0
 27 29  1  0
 29 30  1  0
 30 31  1  0
 30 32  1  0
 30 33  1  0
 33 34  1  0
 34 35  2  0
 34 36  1  0
 36 37  2  0
 37 38  1  0
 37 39  1  0
 39 40  1  0
 39 41  2  0
 41 42  1  0
 41 43  1  0
 43 44  1  0
 43 45  2  0
 45 46  1  0
 46 47  2  0
 29 48  1  0
 48 49  1  0
 49 50  1  0
 49 51  1  0
 48 52  2  0
 52 53  1  0
 14 54  2  0
 54 55  1  0
  6 56  1  0
 56 57  1  0
 56 58  2  0
 58 59  1  0
 58  2  1  0
 54  7  1  0
 52 15  1  0
 25 16  1  0
 46 33  1  0
 45 36  1  0
M  CHG  1  52   1
M  END
>  <score>  (19) 
5.99625

$$$$

     RDKit          3D

 61 65  0  0  0  0  0  0  0  0999 V2000
   15.5694    5.3719   -1.3875 H   0  0  0  0  0  0  0  0  0  0  0  0
   15.5841    4.3030   -1.5958 C   0  0  0  0  0  0  0  0  0  0  0  0
   15.8195    3.8806   -2.8482 N   0  0  0  0  0  0  0  0  0  0  0  0
   15.8642    2.5527   -3.0873 C   0  0  0  0  0  0  0  0  0  0  0  0
   16.0456    2.2249   -4.1053 H   0  0  0  0  0  0  0  0  0  0  0  0
   15.6856    1.5707   -2.0960 C   0  0  0  0  0  0  0  0  0  0  0  0
   15.7719    0.1192   -2.4107 C   0  0  0  0  0  0  0  0  0  0  0  0
   16.3465   -0.3213   -3.6118 C   0  0  0  0  0  0  0  0  0  0  0  0
   16.7259    0.4067   -4.3216 H   0  0  0  0  0  0  0  0  0  0  0  0
   16.4318   -1.6892   -3.9088 C   0  0  0  0  0  0  0  0  0  0  0  0
   16.8648   -2.0086   -4.8524 H   0  0  0  0  0  0  0  0  0  0  0  0
   15.9437   -2.6444   -3.0061 C   0  0  0  0  0  0  0  0  0  0  0  0
   16.0045   -3.7007   -3.2589 H   0  0  0  0  0  0  0  0  0  0  0  0
   15.3751   -2.2436   -1.7843 C   0  0  0  0  0  0  0  0  0  0  0  0
   14.8105   -3.2528   -0.7830 C   0  0  2  0  0  0  0  0  0  0  0  0
   15.1718   -4.7167   -1.0716 C   0  0  0  0  0  0  0  0  0  0  0  0
   16.3909   -5.2381   -0.6086 C   0  0  0  0  0  0  0  0  0  0  0  0
   17.0675   -4.5867   -0.0642 H   0  0  0  0  0  0  0  0  0  0  0  0
   16.7297   -6.5816   -0.8029 C   0  0  0  0  0  0  0  0  0  0  0  0
   17.6723   -6.9563   -0.4168 H   0  0  0  0  0  0  0  0  0  0  0  0
   15.8535   -7.4400   -1.4719 C   0  0  0  0  0  0  0  0  0  0  0  0
   16.1207   -8.4857   -1.6116 H   0  0  0  0  0  0  0  0  0  0  0  0
   14.6423   -6.9393   -1.9602 C   0  0  0  0  0  0  0  0  0  0  0  0
   13.9717   -7.6117   -2.4875 H   0  0  0  0  0  0  0  0  0  0  0  0
   14.3028   -5.5888   -1.7656 C   0  0  0  0  0  0  0  0  0  0  0  0
   13.3532   -5.2318   -2.1543 H   0  0  0  0  0  0  0  0  0  0  0  0
   13.2956   -3.0392   -0.5912 C   0  0  0  0  0  0  0  0  0  0  0  0
   12.4256   -3.1074   -1.4567 O   0  0  0  0  0  0  0  0  0  0  0  0
   13.0176   -2.6737    0.7081 N   0  0  0  0  0  0  0  0  0  0  0  0
   11.6871   -2.5995    1.3215 C   0  0  0  0  0  0  0  0  0  0  0  0
   11.6636   -1.7632    2.0272 H   0  0  0  0  0  0  0  0  0  0  0  0
   10.9218   -2.3926    0.5638 H   0  0  0  0  0  0  0  0  0  0  0  0
   11.3432   -3.9006    2.0590 C   0  0  0  0  0  0  0  0  0  0  0  0
   12.1215   -4.0865    2.8020 H   0  0  0  0  0  0  0  0  0  0  0  0
   11.2939   -5.0947    1.0953 C   0  0  0  0  0  0  0  0  0  0  0  0
   10.5796   -4.8919    0.2957 H   0  0  0  0  0  0  0  0  0  0  0  0
   12.2741   -5.2308    0.6313 H   0  0  0  0  0  0  0  0  0  0  0  0
   10.8882   -6.3851    1.8141 C   0  0  0  0  0  0  0  0  0  0  0  0
   11.6612   -6.6563    2.5359 H   0  0  0  0  0  0  0  0  0  0  0  0
   10.8130   -7.2050    1.0938 H   0  0  0  0  0  0  0  0  0  0  0  0
    9.5554   -6.2232    2.5443 C   0  0  0  0  0  0  0  0  0  0  0  0
    9.3189   -7.1419    3.0905 H   0  0  0  0  0  0  0  0  0  0  0  0
    8.7600   -6.0615    1.8145 H   0  0  0  0  0  0  0  0  0  0  0  0
    9.6025   -5.0415    3.5125 C   0  0  0  0  0  0  0  0  0  0  0  0
   10.3246   -5.2528    4.3037 H   0  0  0  0  0  0  0  0  0  0  0  0
    8.6249   -4.9177    3.9883 H   0  0  0  0  0  0  0  0  0  0  0  0
   10.0012   -3.7501    2.7922 C   0  0  0  0  0  0  0  0  0  0  0  0
   10.0659   -2.9371    3.5208 H   0  0  0  0  0  0  0  0  0  0  0  0
    9.2194   -3.4870    2.0769 H   0  0  0  0  0  0  0  0  0  0  0  0
   14.2204   -2.6367    1.3678 C   0  0  0  0  0  0  0  0  0  0  0  0
   14.3940   -2.3538    2.6912 N   0  0  0  0  0  0  0  0  0  0  0  0
   13.5849   -2.1150    3.2602 H   0  0  0  0  0  0  0  0  0  0  0  0
   15.3342   -2.3599    3.0883 H   0  0  0  0  0  0  0  0  0  0  0  0
   15.2172   -2.8981    0.5936 N   0  0  0  0  0  4  0  0  0  0  0  0
   16.1855   -2.9140    0.9094 H   0  0  0  0  0  0  0  0  0  0  0  0
   15.2976   -0.8579   -1.5151 C   0  0  0  0  0  0  0  0  0  0  0  0
   14.8697   -0.5267   -0.5763 H   0  0  0  0  0  0  0  0  0  0  0  0
   15.4345    2.0250   -0.7973 C   0  0  0  0  0  0  0  0  0  0  0  0
   15.2980    1.3098    0.0049 H   0  0  0  0  0  0  0  0  0  0  0  0
   15.3722    3.4013   -0.5511 C   0  0  0  0  0  0  0  0  0  0  0  0
   15.1680    3.7870    0.4419 H   0  0  0  0  0  0  0  0  0  0  0  0
  1  2  1  0
  2  3  2  0
  3  4  1  0
  4  5  1  0
  4  6  2  0
  6  7  1  0
  7  8  2  0
  8  9  1  0
  8 10  1  0
 10 11  1  0
 10 12  2  0
 12 13  1  0
 12 14  1  0
 15 14  1  6
 15 16  1  0
 16 17  2  0
 17 18  1  0
 17 19  1  0
 19 20  1  0
 19 21  2  0
 21 22  1  0
 21 23  1  0
 23 24  1  0
 23 25  2  0
 25 26  1  0
 15 27  1  0
 27 28  2  0
 27 29  1  0
 29 30  1  0
 30 31  1  0
 30 32  1  0
 30 33  1  0
 33 34  1  0
 33 35  1  0
 35 36  1  0
 35 37  1  0
 35 38  1  0
 38 39  1  0
 38 40  1  0
 38 41  1  0
 41 42  1  0
 41 43  1  0
 41 44  1  0
 44 45  1  0
 44 46  1  0
 44 47  1  0
 47 48  1  0
 47 49  1  0
 29 50  1  0
 50 51  1  0
 51 52  1  0
 51 53  1  0
 50 54  2  0
 54 55  1  0
 14 56  2  0
 56 57  1  0
  6 58  1  0
 58 59  1  0
 58 60  2  0
 60 61  1  0
 60  2  1  0
 56  7  1  0
 54 15  1  0
 25 16  1  0
 47 33  1  0
M  CHG  1  54   1
M  END
>  <score>  (20) 
5.99296

$$$$

     RDKit          3D

 59 63  0  0  0  0  0  0  0  0999 V2000
   15.5212    5.3184   -1.4163 H   0  0  0  0  0  0  0  0  0  0  0  0
   15.5917    4.2517   -1.6080 C   0  0  0  0  0  0  0  0  0  0  0  0
   15.8398    3.8340   -2.8585 N   0  0  0  0  0  0  0  0  0  0  0  0
   15.9175    2.5095   -3.0855 C   0  0  0  0  0  0  0  0  0  0  0  0
   16.1142    2.1765   -4.0999 H   0  0  0  0  0  0  0  0  0  0  0  0
   15.7441    1.5427   -2.0806 C   0  0  0  0  0  0  0  0  0  0  0  0
   15.8148    0.1027   -2.3871 C   0  0  0  0  0  0  0  0  0  0  0  0
   16.3391   -0.3454   -3.6065 C   0  0  0  0  0  0  0  0  0  0  0  0
   16.6955    0.3788   -4.3318 H   0  0  0  0  0  0  0  0  0  0  0  0
   16.4129   -1.7123   -3.8919 C   0  0  0  0  0  0  0  0  0  0  0  0
   16.8221   -2.0394   -4.8424 H   0  0  0  0  0  0  0  0  0  0  0  0
   15.9565   -2.6494   -2.9581 C   0  0  0  0  0  0  0  0  0  0  0  0
   16.0096   -3.7091   -3.1900 H   0  0  0  0  0  0  0  0  0  0  0  0
   15.4210   -2.2315   -1.7284 C   0  0  0  0  0  0  0  0  0  0  0  0
   14.8552   -3.2211   -0.7166 C   0  0  2  0  0  0  0  0  0  0  0  0
   15.2235   -4.6677   -1.0138 C   0  0  0  0  0  0  0  0  0  0  0  0
   16.4444   -5.2032   -0.5742 C   0  0  0  0  0  0  0  0  0  0  0  0
   17.1431   -4.5722   -0.0316 H   0  0  0  0  0  0  0  0  0  0  0  0
   16.7627   -6.5455   -0.8080 C   0  0  0  0  0  0  0  0  0  0  0  0
   17.7044   -6.9459   -0.4447 H   0  0  0  0  0  0  0  0  0  0  0  0
   15.8662   -7.3685   -1.4983 C   0  0  0  0  0  0  0  0  0  0  0  0
   16.1064   -8.4138   -1.6707 H   0  0  0  0  0  0  0  0  0  0  0  0
   14.6593   -6.8404   -1.9673 C   0  0  0  0  0  0  0  0  0  0  0  0
   13.9625   -7.4718   -2.5106 H   0  0  0  0  0  0  0  0  0  0  0  0
   14.3426   -5.4982   -1.7293 C   0  0  0  0  0  0  0  0  0  0  0  0
   13.3998   -5.1008   -2.0934 H   0  0  0  0  0  0  0  0  0  0  0  0
   13.3352   -3.0196   -0.5780 C   0  0  0  0  0  0  0  0  0  0  0  0
   12.4967   -3.1525   -1.4702 O   0  0  0  0  0  0  0  0  0  0  0  0
   13.0208   -2.6212    0.7083 N   0  0  0  0  0  0  0  0  0  0  0  0
   11.7337   -2.0331    1.1106 C   0  0  0  0  0  0  0  0  0  0  0  0
   11.5253   -2.2134    2.1752 H   0  0  0  0  0  0  0  0  0  0  0  0
   10.9276   -2.4992    0.5269 H   0  0  0  0  0  0  0  0  0  0  0  0
   11.7451   -0.5227    0.8567 C   0  0  0  0  0  0  0  0  0  0  0  0
   12.2729   -0.0408    1.6811 H   0  0  0  0  0  0  0  0  0  0  0  0
   12.2895   -0.3099   -0.0705 H   0  0  0  0  0  0  0  0  0  0  0  0
   10.4128    0.0103    0.7796 O   0  0  0  0  0  0  0  0  0  0  0  0
   10.3120    1.3033    0.3240 C   0  0  0  0  0  0  0  0  0  0  0  0
   11.4009    2.0322   -0.1859 C   0  0  0  0  0  0  0  0  0  0  0  0
   12.3864    1.5856   -0.1530 H   0  0  0  0  0  0  0  0  0  0  0  0
   11.2342    3.3240   -0.7001 C   0  0  0  0  0  0  0  0  0  0  0  0
   12.0789    3.8643   -1.1228 H   0  0  0  0  0  0  0  0  0  0  0  0
    9.9630    3.9089   -0.6646 C   0  0  0  0  0  0  0  0  0  0  0  0
    9.7924    4.9082   -1.0532 H   0  0  0  0  0  0  0  0  0  0  0  0
    8.8819    3.2156   -0.1186 C   0  0  0  0  0  0  0  0  0  0  0  0
    7.9126    3.6966   -0.0778 H   0  0  0  0  0  0  0  0  0  0  0  0
    9.0624    1.9232    0.3836 C   0  0  0  0  0  0  0  0  0  0  0  0
    8.2443    1.3931    0.8581 H   0  0  0  0  0  0  0  0  0  0  0  0
   14.2220   -2.5186    1.3848 C   0  0  0  0  0  0  0  0  0  0  0  0
   14.4027   -2.1177    2.6762 N   0  0  0  0  0  0  0  0  0  0  0  0
   15.3276   -2.2649    3.0834 H   0  0  0  0  0  0  0  0  0  0  0  0
   13.5886   -2.0764    3.2852 H   0  0  0  0  0  0  0  0  0  0  0  0
   15.2345   -2.8637    0.6650 N   0  0  0  0  0  4  0  0  0  0  0  0
   16.1934   -2.9113    1.0164 H   0  0  0  0  0  0  0  0  0  0  0  0
   15.3525   -0.8513   -1.4670 C   0  0  0  0  0  0  0  0  0  0  0  0
   14.9236   -0.5121   -0.5292 H   0  0  0  0  0  0  0  0  0  0  0  0
   15.5059    1.9885   -0.7785 C   0  0  0  0  0  0  0  0  0  0  0  0
   15.4040    1.2730    0.0327 H   0  0  0  0  0  0  0  0  0  0  0  0
   15.4231    3.3599   -0.5466 C   0  0  0  0  0  0  0  0  0  0  0  0
   15.2344    3.7414    0.4494 H   0  0  0  0  0  0  0  0  0  0  0  0
  1  2  1  0
  2  3  2  0
  3  4  1  0
  4  5  1  0
  4  6  2  0
  6  7  1  0
  7  8  2  0
  8  9  1  0
  8 10  1  0
 10 11  1  0
 10 12  2  0
 12 13  1  0
 12 14  1  0
 15 14  1  6
 15 16  1  0
 16 17  2  0
 17 18  1  0
 17 19  1  0
 19 20  1  0
 19 21  2  0
 21 22  1  0
 21 23  1  0
 23 24  1  0
 23 25  2  0
 25 26  1  0
 15 27  1  0
 27 28  2  0
 27 29  1  0
 29 30  1  0
 30 31  1  0
 30 32  1  0
 30 33  1  0
 33 34  1  0
 33 35  1  0
 33 36  1  0
 36 37  1  0
 37 38  2  0
 38 39  1  0
 38 40  1  0
 40 41  1  0
 40 42  2  0
 42 43  1  0
 42 44  1  0
 44 45  1  0
 44 46  2  0
 46 47  1  0
 29 48  1  0
 48 49  1  0
 49 50  1  0
 49 51  1  0
 48 52  2  0
 52 53  1  0
 14 54  2  0
 54 55  1  0
  6 56  1  0
 56 57  1  0
 56 58  2  0
 58 59  1  0
 58  2  1  0
 54  7  1  0
 52 15  1  0
 25 16  1  0
 46 37  1  0
M  CHG  1  52   1
M  END
>  <score>  (21) 
5.9922

$$$$

     RDKit          3D

 52 55  0  0  0  0  0  0  0  0999 V2000
   15.5223    5.3205   -1.4183 H   0  0  0  0  0  0  0  0  0  0  0  0
   15.5885    4.2546   -1.6123 C   0  0  0  0  0  0  0  0  0  0  0  0
   15.8390    3.8412   -2.8637 N   0  0  0  0  0  0  0  0  0  0  0  0
   15.9076    2.5178   -3.0945 C   0  0  0  0  0  0  0  0  0  0  0  0
   16.1086    2.1881   -4.1094 H   0  0  0  0  0  0  0  0  0  0  0  0
   15.7207    1.5512   -2.0915 C   0  0  0  0  0  0  0  0  0  0  0  0
   15.7848    0.1148   -2.3945 C   0  0  0  0  0  0  0  0  0  0  0  0
   16.3280   -0.3265   -3.6057 C   0  0  0  0  0  0  0  0  0  0  0  0
   16.6992    0.4008   -4.3207 H   0  0  0  0  0  0  0  0  0  0  0  0
   16.4078   -1.6906   -3.8918 C   0  0  0  0  0  0  0  0  0  0  0  0
   16.8391   -2.0110   -4.8342 H   0  0  0  0  0  0  0  0  0  0  0  0
   15.9371   -2.6305   -2.9674 C   0  0  0  0  0  0  0  0  0  0  0  0
   15.9960   -3.6883   -3.2033 H   0  0  0  0  0  0  0  0  0  0  0  0
   15.3869   -2.2192   -1.7413 C   0  0  0  0  0  0  0  0  0  0  0  0
   14.8256   -3.2130   -0.7287 C   0  0  2  0  0  0  0  0  0  0  0  0
   15.1874   -4.6652   -1.0321 C   0  0  0  0  0  0  0  0  0  0  0  0
   16.4115   -5.1960   -0.5875 C   0  0  0  0  0  0  0  0  0  0  0  0
   17.1079   -4.5593   -0.0490 H   0  0  0  0  0  0  0  0  0  0  0  0
   16.7374   -6.5384   -0.8031 C   0  0  0  0  0  0  0  0  0  0  0  0
   17.6782   -6.9305   -0.4266 H   0  0  0  0  0  0  0  0  0  0  0  0
   15.8478   -7.3708   -1.4883 C   0  0  0  0  0  0  0  0  0  0  0  0
   16.0951   -8.4164   -1.6463 H   0  0  0  0  0  0  0  0  0  0  0  0
   14.6376   -6.8532   -1.9641 C   0  0  0  0  0  0  0  0  0  0  0  0
   13.9469   -7.4977   -2.5001 H   0  0  0  0  0  0  0  0  0  0  0  0
   14.3103   -5.5087   -1.7387 C   0  0  0  0  0  0  0  0  0  0  0  0
   13.3637   -5.1222   -2.1052 H   0  0  0  0  0  0  0  0  0  0  0  0
   13.3112   -2.9723   -0.5443 C   0  0  0  0  0  0  0  0  0  0  0  0
   12.4213   -3.0908   -1.3831 O   0  0  0  0  0  0  0  0  0  0  0  0
   13.0670   -2.5719    0.7462 N   0  0  0  0  0  0  0  0  0  0  0  0
   11.8060   -2.0711    1.2518 C   0  0  0  0  0  0  0  0  0  0  0  0
   11.6739   -2.3373    2.3067 H   0  0  0  0  0  0  0  0  0  0  0  0
   10.9614   -2.5113    0.7036 H   0  0  0  0  0  0  0  0  0  0  0  0
   11.8378   -0.6516    1.1024 O   0  0  0  0  0  0  0  0  0  0  0  0
   11.6385   -0.2048   -0.2435 C   0  0  0  0  0  0  0  0  0  0  0  0
   12.4756   -0.5253   -0.8739 H   0  0  0  0  0  0  0  0  0  0  0  0
   10.7158   -0.6216   -0.6524 H   0  0  0  0  0  0  0  0  0  0  0  0
   11.5205    1.3121   -0.2458 C   0  0  0  0  0  0  0  0  0  0  0  0
   11.3014    1.6845   -1.2508 H   0  0  0  0  0  0  0  0  0  0  0  0
   10.7249    1.6090    0.4549 H   0  0  0  0  0  0  0  0  0  0  0  0
   12.4766    1.7380    0.0734 H   0  0  0  0  0  0  0  0  0  0  0  0
   14.2671   -2.5313    1.4036 C   0  0  0  0  0  0  0  0  0  0  0  0
   14.4317   -2.1838    2.7093 N   0  0  0  0  0  0  0  0  0  0  0  0
   15.3532   -2.2943    3.1320 H   0  0  0  0  0  0  0  0  0  0  0  0
   13.6089   -2.0671    3.2968 H   0  0  0  0  0  0  0  0  0  0  0  0
   15.2550   -2.8790    0.6470 N   0  0  0  0  0  4  0  0  0  0  0  0
   16.2169   -2.9856    0.9764 H   0  0  0  0  0  0  0  0  0  0  0  0
   15.3100   -0.8391   -1.4792 C   0  0  0  0  0  0  0  0  0  0  0  0
   14.8693   -0.4994   -0.5460 H   0  0  0  0  0  0  0  0  0  0  0  0
   15.4822    1.9914   -0.7900 C   0  0  0  0  0  0  0  0  0  0  0  0
   15.3740    1.2733    0.0178 H   0  0  0  0  0  0  0  0  0  0  0  0
   15.4099    3.3604   -0.5538 C   0  0  0  0  0  0  0  0  0  0  0  0
   15.2190    3.7330    0.4446 H   0  0  0  0  0  0  0  0  0  0  0  0
  1  2  1  0
  2  3  2  0
  3  4  1  0
  4  5  1  0
  4  6  2  0
  6  7  1  0
  7  8  2  0
  8  9  1  0
  8 10  1  0
 10 11  1  0
 10 12  2  0
 12 13  1  0
 12 14  1  0
 15 14  1  6
 15 16  1  0
 16 17  2  0
 17 18  1  0
 17 19  1  0
 19 20  1  0
 19 21  2  0
 21 22  1  0
 21 23  1  0
 23 24  1  0
 23 25  2  0
 25 26  1  0
 15 27  1  0
 27 28  2  0
 27 29  1  0
 29 30  1  0
 30 31  1  0
 30 32  1  0
 30 33  1  0
 33 34  1  0
 34 35  1  0
 34 36  1  0
 34 37  1  0
 37 38  1  0
 37 39  1  0
 37 40  1  0
 29 41  1  0
 41 42  1  0
 42 43  1  0
 42 44  1  0
 41 45  2  0
 45 46  1  0
 14 47  2  0
 47 48  1  0
  6 49  1  0
 49 50  1  0
 49 51  2  0
 51 52  1  0
 51  2  1  0
 47  7  1  0
 45 15  1  0
 25 16  1  0
M  CHG  1  45   1
M  END
>  <score>  (22) 
5.99151

$$$$

     RDKit          3D

 42 45  0  0  0  0  0  0  0  0999 V2000
   15.5697    5.3721   -1.3878 H   0  0  0  0  0  0  0  0  0  0  0  0
   15.5829    4.3032   -1.5949 C   0  0  0  0  0  0  0  0  0  0  0  0
   15.8195    3.8807   -2.8464 N   0  0  0  0  0  0  0  0  0  0  0  0
   15.8631    2.5531   -3.0881 C   0  0  0  0  0  0  0  0  0  0  0  0
   16.0466    2.2242   -4.1060 H   0  0  0  0  0  0  0  0  0  0  0  0
   15.6860    1.5716   -2.0955 C   0  0  0  0  0  0  0  0  0  0  0  0
   15.7701    0.1183   -2.4109 C   0  0  0  0  0  0  0  0  0  0  0  0
   16.3498   -0.3218   -3.6103 C   0  0  0  0  0  0  0  0  0  0  0  0
   16.7240    0.4095   -4.3207 H   0  0  0  0  0  0  0  0  0  0  0  0
   16.4323   -1.6898   -3.9095 C   0  0  0  0  0  0  0  0  0  0  0  0
   16.8649   -2.0073   -4.8526 H   0  0  0  0  0  0  0  0  0  0  0  0
   15.9467   -2.6455   -3.0081 C   0  0  0  0  0  0  0  0  0  0  0  0
   16.0051   -3.7015   -3.2579 H   0  0  0  0  0  0  0  0  0  0  0  0
   15.3842   -2.2457   -1.7856 C   0  0  0  0  0  0  0  0  0  0  0  0
   14.8195   -3.2554   -0.7882 C   0  0  2  0  0  0  0  0  0  0  0  0
   15.1767   -4.7187   -1.0772 C   0  0  0  0  0  0  0  0  0  0  0  0
   16.3944   -5.2396   -0.6116 C   0  0  0  0  0  0  0  0  0  0  0  0
   17.0667   -4.5869   -0.0632 H   0  0  0  0  0  0  0  0  0  0  0  0
   16.7293   -6.5833   -0.8026 C   0  0  0  0  0  0  0  0  0  0  0  0
   17.6720   -6.9560   -0.4166 H   0  0  0  0  0  0  0  0  0  0  0  0
   15.8535   -7.4403   -1.4730 C   0  0  0  0  0  0  0  0  0  0  0  0
   16.1210   -8.4858   -1.6113 H   0  0  0  0  0  0  0  0  0  0  0  0
   14.6429   -6.9391   -1.9621 C   0  0  0  0  0  0  0  0  0  0  0  0
   13.9724   -7.6124   -2.4879 H   0  0  0  0  0  0  0  0  0  0  0  0
   14.3036   -5.5890   -1.7679 C   0  0  0  0  0  0  0  0  0  0  0  0
   13.3529   -5.2328   -2.1564 H   0  0  0  0  0  0  0  0  0  0  0  0
   13.3042   -3.0308   -0.6007 C   0  0  0  0  0  0  0  0  0  0  0  0
   12.4237   -3.0835   -1.4538 O   0  0  0  0  0  0  0  0  0  0  0  0
   13.0385   -2.6833    0.7030 N   0  0  0  0  0  0  0  0  0  0  0  0
   11.4348   -2.2289    1.3965 Cl  0  0  0  0  0  0  0  0  0  0  0  0
   14.2342   -2.6311    1.3620 C   0  0  0  0  0  0  0  0  0  0  0  0
   14.3931   -2.3281    2.6824 N   0  0  0  0  0  0  0  0  0  0  0  0
   15.3253   -2.3483    3.0966 H   0  0  0  0  0  0  0  0  0  0  0  0
   13.5733   -2.1380    3.2562 H   0  0  0  0  0  0  0  0  0  0  0  0
   15.2310   -2.9057    0.5882 N   0  0  0  0  0  4  0  0  0  0  0  0
   16.2002   -2.9153    0.9017 H   0  0  0  0  0  0  0  0  0  0  0  0
   15.2954   -0.8601   -1.5164 C   0  0  0  0  0  0  0  0  0  0  0  0
   14.8703   -0.5268   -0.5759 H   0  0  0  0  0  0  0  0  0  0  0  0
   15.4370    2.0257   -0.7965 C   0  0  0  0  0  0  0  0  0  0  0  0
   15.2979    1.3073    0.0024 H   0  0  0  0  0  0  0  0  0  0  0  0
   15.3721    3.4016   -0.5513 C   0  0  0  0  0  0  0  0  0  0  0  0
   15.1681    3.7874    0.4401 H   0  0  0  0  0  0  0  0  0  0  0  0
  1  2  1  0
  2  3  2  0
  3  4  1  0
  4  5  1  0
  4  6  2  0
  6  7  1  0
  7  8  2  0
  8  9  1  0
  8 10  1  0
 10 11  1  0
 10 12  2  0
 12 13  1  0
 12 14  1  0
 15 14  1  6
 15 16  1  0
 16 17  2  0
 17 18  1  0
 17 19  1  0
 19 20  1  0
 19 21  2  0
 21 22  1  0
 21 23  1  0
 23 24  1  0
 23 25  2  0
 25 26  1  0
 15 27  1  0
 27 28  2  0
 27 29  1  0
 29 30  1  0
 29 31  1  0
 31 32  1  0
 32 33  1  0
 32 34  1  0
 31 35  2  0
 35 36  1  0
 14 37  2  0
 37 38  1  0
  6 39  1  0
 39 40  1  0
 39 41  2  0
 41 42  1  0
 41  2  1  0
 37  7  1  0
 35 15  1  0
 25 16  1  0
M  CHG  1  35   1
M  END
>  <score>  (23) 
5.97872

$$$$

     RDKit          3D

 62 67  0  0  0  0  0  0  0  0999 V2000
   15.5253    5.3268   -1.4191 H   0  0  0  0  0  0  0  0  0  0  0  0
   15.5928    4.2609   -1.6118 C   0  0  0  0  0  0  0  0  0  0  0  0
   15.8404    3.8466   -2.8634 N   0  0  0  0  0  0  0  0  0  0  0  0
   15.9106    2.5227   -3.0924 C   0  0  0  0  0  0  0  0  0  0  0  0
   16.1091    2.1886   -4.1060 H   0  0  0  0  0  0  0  0  0  0  0  0
   15.7306    1.5564   -2.0892 C   0  0  0  0  0  0  0  0  0  0  0  0
   15.7992    0.1186   -2.3951 C   0  0  0  0  0  0  0  0  0  0  0  0
   16.3369   -0.3280   -3.6085 C   0  0  0  0  0  0  0  0  0  0  0  0
   16.7031    0.3954   -4.3287 H   0  0  0  0  0  0  0  0  0  0  0  0
   16.4124   -1.6935   -3.8969 C   0  0  0  0  0  0  0  0  0  0  0  0
   16.8363   -2.0194   -4.8410 H   0  0  0  0  0  0  0  0  0  0  0  0
   15.9459   -2.6316   -2.9703 C   0  0  0  0  0  0  0  0  0  0  0  0
   15.9997   -3.6913   -3.2013 H   0  0  0  0  0  0  0  0  0  0  0  0
   15.4053   -2.2147   -1.7444 C   0  0  0  0  0  0  0  0  0  0  0  0
   14.8445   -3.2053   -0.7362 C   0  0  2  0  0  0  0  0  0  0  0  0
   15.1978   -4.6587   -1.0336 C   0  0  0  0  0  0  0  0  0  0  0  0
   16.4170   -5.1910   -0.5858 C   0  0  0  0  0  0  0  0  0  0  0  0
   17.1131   -4.5535   -0.0484 H   0  0  0  0  0  0  0  0  0  0  0  0
   16.7388   -6.5333   -0.8028 C   0  0  0  0  0  0  0  0  0  0  0  0
   17.6796   -6.9253   -0.4294 H   0  0  0  0  0  0  0  0  0  0  0  0
   15.8486   -7.3636   -1.4895 C   0  0  0  0  0  0  0  0  0  0  0  0
   16.0950   -8.4091   -1.6497 H   0  0  0  0  0  0  0  0  0  0  0  0
   14.6394   -6.8447   -1.9631 C   0  0  0  0  0  0  0  0  0  0  0  0
   13.9465   -7.4871   -2.4982 H   0  0  0  0  0  0  0  0  0  0  0  0
   14.3160   -5.5002   -1.7375 C   0  0  0  0  0  0  0  0  0  0  0  0
   13.3701   -5.1149   -2.1065 H   0  0  0  0  0  0  0  0  0  0  0  0
   13.3280   -2.9842   -0.5857 C   0  0  0  0  0  0  0  0  0  0  0  0
   12.4693   -3.1715   -1.4489 O   0  0  0  0  0  0  0  0  0  0  0  0
   13.0651   -2.6081    0.7132 N   0  0  0  0  0  0  0  0  0  0  0  0
   11.8017   -2.5306    1.2783 C   0  0  0  0  0  0  0  0  0  0  0  0
   10.8513   -1.6702    0.7295 C   0  0  0  0  0  0  0  0  0  0  0  0
   11.0981   -1.0563   -0.1298 H   0  0  0  0  0  0  0  0  0  0  0  0
    9.5888   -1.5696    1.3092 C   0  0  0  0  0  0  0  0  0  0  0  0
    8.8406   -0.8906    0.9166 H   0  0  0  0  0  0  0  0  0  0  0  0
    9.2680   -2.3681    2.4096 C   0  0  0  0  0  0  0  0  0  0  0  0
    7.9591   -2.2683    3.0089 C   0  0  0  0  0  0  0  0  0  0  0  0
    7.4215   -1.0071    3.2896 C   0  0  0  0  0  0  0  0  0  0  0  0
    8.0192   -0.1173    3.0985 H   0  0  0  0  0  0  0  0  0  0  0  0
    6.0426   -0.9882    3.8272 C   0  0  0  0  0  0  0  0  0  0  0  0
    5.5193   -0.1030    4.0780 H   0  0  0  0  0  0  0  0  0  0  0  0
    5.3596   -2.1681    4.1422 C   0  0  0  0  0  0  0  0  0  0  0  0
    4.4210   -2.0945    4.6834 H   0  0  0  0  0  0  0  0  0  0  0  0
    6.0016   -3.3880    3.9572 C   0  0  0  0  0  0  0  0  0  0  0  0
    5.5581   -4.3044    4.3252 H   0  0  0  0  0  0  0  0  0  0  0  0
    7.2562   -3.4373    3.3431 C   0  0  0  0  0  0  0  0  0  0  0  0
    7.6880   -4.4015    3.0990 H   0  0  0  0  0  0  0  0  0  0  0  0
   10.2121   -3.2448    2.9482 C   0  0  0  0  0  0  0  0  0  0  0  0
    9.9654   -3.8624    3.8079 H   0  0  0  0  0  0  0  0  0  0  0  0
   11.4908   -3.3046    2.3985 C   0  0  0  0  0  0  0  0  0  0  0  0
   12.2516   -3.9494    2.8234 H   0  0  0  0  0  0  0  0  0  0  0  0
   14.2540   -2.6419    1.4102 C   0  0  0  0  0  0  0  0  0  0  0  0
   14.4181   -2.4598    2.7547 N   0  0  0  0  0  0  0  0  0  0  0  0
   13.6392   -2.0511    3.2696 H   0  0  0  0  0  0  0  0  0  0  0  0
   15.3660   -2.2556    3.0714 H   0  0  0  0  0  0  0  0  0  0  0  0
   15.2652   -2.8765    0.6425 N   0  0  0  0  0  4  0  0  0  0  0  0
   16.2132   -3.0296    0.9958 H   0  0  0  0  0  0  0  0  0  0  0  0
   15.3273   -0.8354   -1.4806 C   0  0  0  0  0  0  0  0  0  0  0  0
   14.8868   -0.4964   -0.5477 H   0  0  0  0  0  0  0  0  0  0  0  0
   15.4911    1.9987   -0.7876 C   0  0  0  0  0  0  0  0  0  0  0  0
   15.3805    1.2825    0.0210 H   0  0  0  0  0  0  0  0  0  0  0  0
   15.4165    3.3679   -0.5524 C   0  0  0  0  0  0  0  0  0  0  0  0
   15.2240    3.7413    0.4455 H   0  0  0  0  0  0  0  0  0  0  0  0
  1  2  1  0
  2  3  2  0
  3  4  1  0
  4  5  1  0
  4  6  2  0
  6  7  1  0
  7  8  2  0
  8  9  1  0
  8 10  1  0
 10 11  1  0
 10 12  2  0
 12 13  1  0
 12 14  1  0
 15 14  1  6
 15 16  1  0
 16 17  2  0
 17 18  1  0
 17 19  1  0
 19 20  1  0
 19 21  2  0
 21 22  1  0
 21 23  1  0
 23 24  1  0
 23 25  2  0
 25 26  1  0
 15 27  1  0
 27 28  2  0
 27 29  1  0
 29 30  1  0
 30 31  2  0
 31 32  1  0
 31 33  1  0
 33 34  1  0
 33 35  2  0
 35 36  1  0
 36 37  2  0
 37 38  1  0
 37 39  1  0
 39 40  1  0
 39 41  2  0
 41 42  1  0
 41 43  1  0
 43 44  1  0
 43 45  2  0
 45 46  1  0
 35 47  1  0
 47 48  1  0
 47 49  2  0
 49 50  1  0
 29 51  1  0
 51 52  1  0
 52 53  1  0
 52 54  1  0
 51 55  2  0
 55 56  1  0
 14 57  2  0
 57 58  1  0
  6 59  1  0
 59 60  1  0
 59 61  2  0
 61 62  1  0
 61  2  1  0
 57  7  1  0
 55 15  1  0
 25 16  1  0
 49 30  1  0
 45 36  1  0
M  CHG  1  55   1
M  END
>  <score>  (24) 
5.97716

$$$$

     RDKit          3D

 56 60  0  0  0  0  0  0  0  0999 V2000
   15.5710    5.3724   -1.3881 H   0  0  0  0  0  0  0  0  0  0  0  0
   15.5846    4.3038   -1.5942 C   0  0  0  0  0  0  0  0  0  0  0  0
   15.8208    3.8822   -2.8460 N   0  0  0  0  0  0  0  0  0  0  0  0
   15.8620    2.5551   -3.0866 C   0  0  0  0  0  0  0  0  0  0  0  0
   16.0405    2.2323   -4.1072 H   0  0  0  0  0  0  0  0  0  0  0  0
   15.6841    1.5725   -2.0944 C   0  0  0  0  0  0  0  0  0  0  0  0
   15.7735    0.1184   -2.4100 C   0  0  0  0  0  0  0  0  0  0  0  0
   16.3490   -0.3236   -3.6126 C   0  0  0  0  0  0  0  0  0  0  0  0
   16.7296    0.4003   -4.3272 H   0  0  0  0  0  0  0  0  0  0  0  0
   16.4311   -1.6916   -3.9093 C   0  0  0  0  0  0  0  0  0  0  0  0
   16.8663   -2.0085   -4.8535 H   0  0  0  0  0  0  0  0  0  0  0  0
   15.9435   -2.6462   -3.0050 C   0  0  0  0  0  0  0  0  0  0  0  0
   16.0060   -3.7009   -3.2623 H   0  0  0  0  0  0  0  0  0  0  0  0
   15.3756   -2.2464   -1.7823 C   0  0  0  0  0  0  0  0  0  0  0  0
   14.8019   -3.2518   -0.7843 C   0  0  2  0  0  0  0  0  0  0  0  0
   15.1623   -4.7171   -1.0678 C   0  0  0  0  0  0  0  0  0  0  0  0
   16.3849   -5.2384   -0.6082 C   0  0  0  0  0  0  0  0  0  0  0  0
   17.0676   -4.5904   -0.0666 H   0  0  0  0  0  0  0  0  0  0  0  0
   16.7274   -6.5822   -0.8012 C   0  0  0  0  0  0  0  0  0  0  0  0
   17.6734   -6.9555   -0.4185 H   0  0  0  0  0  0  0  0  0  0  0  0
   15.8539   -7.4420   -1.4710 C   0  0  0  0  0  0  0  0  0  0  0  0
   16.1230   -8.4871   -1.6112 H   0  0  0  0  0  0  0  0  0  0  0  0
   14.6428   -6.9423   -1.9608 C   0  0  0  0  0  0  0  0  0  0  0  0
   13.9729   -7.6159   -2.4885 H   0  0  0  0  0  0  0  0  0  0  0  0
   14.2997   -5.5919   -1.7666 C   0  0  0  0  0  0  0  0  0  0  0  0
   13.3518   -5.2386   -2.1616 H   0  0  0  0  0  0  0  0  0  0  0  0
   13.2905   -3.0192   -0.6103 C   0  0  0  0  0  0  0  0  0  0  0  0
   12.4196   -3.0944   -1.4764 O   0  0  0  0  0  0  0  0  0  0  0  0
   13.0368   -2.6461    0.6910 N   0  0  0  0  0  0  0  0  0  0  0  0
   11.5211   -2.3288    1.3594 S   0  0  0  0  0  0  0  0  0  0  0  0
   11.1431   -4.0491    1.8552 C   0  0  0  0  0  0  0  0  0  0  0  0
   11.9197   -4.4003    2.5398 H   0  0  0  0  0  0  0  0  0  0  0  0
   11.1718   -4.6849    0.9678 H   0  0  0  0  0  0  0  0  0  0  0  0
    9.7928   -4.1465    2.5137 C   0  0  0  0  0  0  0  0  0  0  0  0
    8.6455   -4.4014    1.7504 C   0  0  0  0  0  0  0  0  0  0  0  0
    8.7364   -4.5252    0.6760 H   0  0  0  0  0  0  0  0  0  0  0  0
    7.3892   -4.4936    2.3640 C   0  0  0  0  0  0  0  0  0  0  0  0
    6.5037   -4.6897    1.7669 H   0  0  0  0  0  0  0  0  0  0  0  0
    7.2760   -4.3343    3.7497 C   0  0  0  0  0  0  0  0  0  0  0  0
    6.3048   -4.4056    4.2306 H   0  0  0  0  0  0  0  0  0  0  0  0
    8.4182   -4.0875    4.5186 C   0  0  0  0  0  0  0  0  0  0  0  0
    8.3309   -3.9626    5.5936 H   0  0  0  0  0  0  0  0  0  0  0  0
    9.6721   -3.9952    3.9007 C   0  0  0  0  0  0  0  0  0  0  0  0
   10.5607   -3.7979    4.4934 H   0  0  0  0  0  0  0  0  0  0  0  0
   14.2229   -2.6175    1.3700 C   0  0  0  0  0  0  0  0  0  0  0  0
   14.3913   -2.3391    2.6964 N   0  0  0  0  0  0  0  0  0  0  0  0
   13.5781   -2.1307    3.2759 H   0  0  0  0  0  0  0  0  0  0  0  0
   15.3286   -2.3516    3.0916 H   0  0  0  0  0  0  0  0  0  0  0  0
   15.2119   -2.9018    0.5950 N   0  0  0  0  0  4  0  0  0  0  0  0
   16.1775   -2.9068    0.9034 H   0  0  0  0  0  0  0  0  0  0  0  0
   15.2987   -0.8608   -1.5143 C   0  0  0  0  0  0  0  0  0  0  0  0
   14.8662   -0.5326   -0.5761 H   0  0  0  0  0  0  0  0  0  0  0  0
   15.4296    2.0287   -0.7954 C   0  0  0  0  0  0  0  0  0  0  0  0
   15.2905    1.3188    0.0107 H   0  0  0  0  0  0  0  0  0  0  0  0
   15.3693    3.4037   -0.5503 C   0  0  0  0  0  0  0  0  0  0  0  0
   15.1672    3.7873    0.4433 H   0  0  0  0  0  0  0  0  0  0  0  0
  1  2  1  0
  2  3  2  0
  3  4  1  0
  4  5  1  0
  4  6  2  0
  6  7  1  0
  7  8  2  0
  8  9  1  0
  8 10  1  0
 10 11  1  0
 10 12  2  0
 12 13  1  0
 12 14  1  0
 15 14  1  6
 15 16  1  0
 16 17  2  0
 17 18  1  0
 17 19  1  0
 19 20  1  0
 19 21  2  0
 21 22  1  0
 21 23  1  0
 23 24  1  0
 23 25  2  0
 25 26  1  0
 15 27  1  0
 27 28  2  0
 27 29  1  0
 29 30  1  0
 30 31  1  0
 31 32  1  0
 31 33  1  0
 31 34  1  0
 34 35  2  0
 35 36  1  0
 35 37  1  0
 37 38  1  0
 37 39  2  0
 39 40  1  0
 39 41  1  0
 41 42  1  0
 41 43  2  0
 43 44  1  0
 29 45  1  0
 45 46  1  0
 46 47  1  0
 46 48  1  0
 45 49  2  0
 49 50  1  0
 14 51  2  0
 51 52  1  0
  6 53  1  0
 53 54  1  0
 53 55  2  0
 55 56  1  0
 55  2  1  0
 51  7  1  0
 49 15  1  0
 25 16  1  0
 43 34  1  0
M  CHG  1  49   1
M  END
>  <score>  (25) 
5.97535

$$$$

     RDKit          3D

 58 62  0  0  0  0  0  0  0  0999 V2000
   15.5717    5.3727   -1.3882 H   0  0  0  0  0  0  0  0  0  0  0  0
   15.5848    4.3042   -1.5939 C   0  0  0  0  0  0  0  0  0  0  0  0
   15.8210    3.8827   -2.8456 N   0  0  0  0  0  0  0  0  0  0  0  0
   15.8615    2.5554   -3.0861 C   0  0  0  0  0  0  0  0  0  0  0  0
   16.0388    2.2347   -4.1074 H   0  0  0  0  0  0  0  0  0  0  0  0
   15.6832    1.5724   -2.0939 C   0  0  0  0  0  0  0  0  0  0  0  0
   15.7742    0.1184   -2.4099 C   0  0  0  0  0  0  0  0  0  0  0  0
   16.3491   -0.3235   -3.6132 C   0  0  0  0  0  0  0  0  0  0  0  0
   16.7314    0.3972   -4.3296 H   0  0  0  0  0  0  0  0  0  0  0  0
   16.4310   -1.6911   -3.9103 C   0  0  0  0  0  0  0  0  0  0  0  0
   16.8667   -2.0094   -4.8540 H   0  0  0  0  0  0  0  0  0  0  0  0
   15.9424   -2.6458   -3.0064 C   0  0  0  0  0  0  0  0  0  0  0  0
   16.0065   -3.7002   -3.2645 H   0  0  0  0  0  0  0  0  0  0  0  0
   15.3708   -2.2484   -1.7826 C   0  0  0  0  0  0  0  0  0  0  0  0
   14.7944   -3.2587   -0.7802 C   0  0  2  0  0  0  0  0  0  0  0  0
   15.1651   -4.7204   -1.0688 C   0  0  0  0  0  0  0  0  0  0  0  0
   16.3867   -5.2404   -0.6076 C   0  0  0  0  0  0  0  0  0  0  0  0
   17.0684   -4.5912   -0.0672 H   0  0  0  0  0  0  0  0  0  0  0  0
   16.7281   -6.5840   -0.8005 C   0  0  0  0  0  0  0  0  0  0  0  0
   17.6743   -6.9555   -0.4185 H   0  0  0  0  0  0  0  0  0  0  0  0
   15.8542   -7.4435   -1.4705 C   0  0  0  0  0  0  0  0  0  0  0  0
   16.1238   -8.4882   -1.6112 H   0  0  0  0  0  0  0  0  0  0  0  0
   14.6431   -6.9443   -1.9608 C   0  0  0  0  0  0  0  0  0  0  0  0
   13.9724   -7.6168   -2.4884 H   0  0  0  0  0  0  0  0  0  0  0  0
   14.3014   -5.5941   -1.7673 C   0  0  0  0  0  0  0  0  0  0  0  0
   13.3529   -5.2401   -2.1615 H   0  0  0  0  0  0  0  0  0  0  0  0
   13.2720   -3.0611   -0.5827 C   0  0  0  0  0  0  0  0  0  0  0  0
   12.4070   -3.0787   -1.4538 O   0  0  0  0  0  0  0  0  0  0  0  0
   13.0111   -2.6852    0.7119 N   0  0  0  0  0  0  0  0  0  0  0  0
   11.6937   -2.4135    1.2540 C   0  0  0  0  0  0  0  0  0  0  0  0
   11.7577   -1.9487    2.2430 H   0  0  0  0  0  0  0  0  0  0  0  0
   11.1370   -1.7340    0.5902 H   0  0  0  0  0  0  0  0  0  0  0  0
   10.9791   -3.6890    1.3662 N   0  0  0  0  0  0  0  0  0  0  0  0
   11.4941   -4.6476    2.3765 C   0  0  0  0  0  0  0  0  0  0  0  0
   11.1379   -5.6543    2.1430 H   0  0  0  0  0  0  0  0  0  0  0  0
   12.5891   -4.6700    2.3542 H   0  0  0  0  0  0  0  0  0  0  0  0
   10.9981   -4.2905    3.7893 C   0  0  0  0  0  0  0  0  0  0  0  0
   11.3445   -5.0377    4.5107 H   0  0  0  0  0  0  0  0  0  0  0  0
   11.4258   -3.3347    4.0749 H   0  0  0  0  0  0  0  0  0  0  0  0
    9.5640   -4.1837    3.8379 O   0  0  0  0  0  0  0  0  0  0  0  0
    9.0863   -3.1940    2.9128 C   0  0  0  0  0  0  0  0  0  0  0  0
    7.9957   -3.1249    2.9843 H   0  0  0  0  0  0  0  0  0  0  0  0
    9.5042   -2.2186    3.1727 H   0  0  0  0  0  0  0  0  0  0  0  0
    9.5043   -3.5500    1.4759 C   0  0  0  0  0  0  0  0  0  0  0  0
    9.0181   -4.4903    1.2021 H   0  0  0  0  0  0  0  0  0  0  0  0
    9.1387   -2.7858    0.7829 H   0  0  0  0  0  0  0  0  0  0  0  0
   14.2033   -2.6422    1.3754 C   0  0  0  0  0  0  0  0  0  0  0  0
   14.3881   -2.3439    2.6937 N   0  0  0  0  0  0  0  0  0  0  0  0
   13.5789   -2.1679    3.2856 H   0  0  0  0  0  0  0  0  0  0  0  0
   15.3316   -2.3449    3.0796 H   0  0  0  0  0  0  0  0  0  0  0  0
   15.2008   -2.9026    0.5969 N   0  0  0  0  0  4  0  0  0  0  0  0
   16.1705   -2.9033    0.9035 H   0  0  0  0  0  0  0  0  0  0  0  0
   15.2988   -0.8618   -1.5145 C   0  0  0  0  0  0  0  0  0  0  0  0
   14.8665   -0.5348   -0.5766 H   0  0  0  0  0  0  0  0  0  0  0  0
   15.4276    2.0296   -0.7950 C   0  0  0  0  0  0  0  0  0  0  0  0
   15.2886    1.3226    0.0134 H   0  0  0  0  0  0  0  0  0  0  0  0
   15.3682    3.4046   -0.5499 C   0  0  0  0  0  0  0  0  0  0  0  0
   15.1671    3.7877    0.4441 H   0  0  0  0  0  0  0  0  0  0  0  0
  1  2  1  0
  2  3  2  0
  3  4  1  0
  4  5  1  0
  4  6  2  0
  6  7  1  0
  7  8  2  0
  8  9  1  0
  8 10  1  0
 10 11  1  0
 10 12  2  0
 12 13  1  0
 12 14  1  0
 15 14  1  6
 15 16  1  0
 16 17  2  0
 17 18  1  0
 17 19  1  0
 19 20  1  0
 19 21  2  0
 21 22  1  0
 21 23  1  0
 23 24  1  0
 23 25  2  0
 25 26  1  0
 15 27  1  0
 27 28  2  0
 27 29  1  0
 29 30  1  0
 30 31  1  0
 30 32  1  0
 30 33  1  0
 33 34  1  0
 34 35  1  0
 34 36  1  0
 34 37  1  0
 37 38  1  0
 37 39  1  0
 37 40  1  0
 40 41  1  0
 41 42  1  0
 41 43  1  0
 41 44  1  0
 44 45  1  0
 44 46  1  0
 29 47  1  0
 47 48  1  0
 48 49  1  0
 48 50  1  0
 47 51  2  0
 51 52  1  0
 14 53  2  0
 53 54  1  0
  6 55  1  0
 55 56  1  0
 55 57  2  0
 57 58  1  0
 57  2  1  0
 53  7  1  0
 51 15  1  0
 25 16  1  0
 44 33  1  0
M  CHG  1  51   1
M  END
>  <score>  (26) 
5.974

$$$$

     RDKit          3D

 56 60  0  0  0  0  0  0  0  0999 V2000
   15.5700    5.3721   -1.3877 H   0  0  0  0  0  0  0  0  0  0  0  0
   15.5832    4.3034   -1.5947 C   0  0  0  0  0  0  0  0  0  0  0  0
   15.8199    3.8809   -2.8463 N   0  0  0  0  0  0  0  0  0  0  0  0
   15.8628    2.5532   -3.0878 C   0  0  0  0  0  0  0  0  0  0  0  0
   16.0454    2.2249   -4.1061 H   0  0  0  0  0  0  0  0  0  0  0  0
   15.6856    1.5718   -2.0950 C   0  0  0  0  0  0  0  0  0  0  0  0
   15.7708    0.1187   -2.4108 C   0  0  0  0  0  0  0  0  0  0  0  0
   16.3498   -0.3217   -3.6106 C   0  0  0  0  0  0  0  0  0  0  0  0
   16.7251    0.4068   -4.3225 H   0  0  0  0  0  0  0  0  0  0  0  0
   16.4317   -1.6893   -3.9103 C   0  0  0  0  0  0  0  0  0  0  0  0
   16.8647   -2.0082   -4.8523 H   0  0  0  0  0  0  0  0  0  0  0  0
   15.9462   -2.6448   -3.0100 C   0  0  0  0  0  0  0  0  0  0  0  0
   16.0049   -3.7004   -3.2595 H   0  0  0  0  0  0  0  0  0  0  0  0
   15.3866   -2.2455   -1.7869 C   0  0  0  0  0  0  0  0  0  0  0  0
   14.8239   -3.2539   -0.7903 C   0  0  2  0  0  0  0  0  0  0  0  0
   15.1751   -4.7201   -1.0761 C   0  0  0  0  0  0  0  0  0  0  0  0
   16.3932   -5.2412   -0.6108 C   0  0  0  0  0  0  0  0  0  0  0  0
   17.0661   -4.5872   -0.0647 H   0  0  0  0  0  0  0  0  0  0  0  0
   16.7285   -6.5846   -0.8016 C   0  0  0  0  0  0  0  0  0  0  0  0
   17.6723   -6.9556   -0.4172 H   0  0  0  0  0  0  0  0  0  0  0  0
   15.8524   -7.4414   -1.4716 C   0  0  0  0  0  0  0  0  0  0  0  0
   16.1214   -8.4862   -1.6113 H   0  0  0  0  0  0  0  0  0  0  0  0
   14.6408   -6.9407   -1.9596 C   0  0  0  0  0  0  0  0  0  0  0  0
   13.9717   -7.6129   -2.4878 H   0  0  0  0  0  0  0  0  0  0  0  0
   14.3009   -5.5906   -1.7652 C   0  0  0  0  0  0  0  0  0  0  0  0
   13.3514   -5.2323   -2.1550 H   0  0  0  0  0  0  0  0  0  0  0  0
   13.3108   -3.0120   -0.6268 C   0  0  0  0  0  0  0  0  0  0  0  0
   12.4485   -3.0996   -1.5008 O   0  0  0  0  0  0  0  0  0  0  0  0
   13.0532   -2.6299    0.6750 N   0  0  0  0  0  0  0  0  0  0  0  0
   11.7741   -2.3357    1.2362 O   0  0  0  0  0  0  0  0  0  0  0  0
   11.1969   -3.4830    1.8660 C   0  0  0  0  0  0  0  0  0  0  0  0
   10.3523   -3.1798    2.5037 H   0  0  0  0  0  0  0  0  0  0  0  0
   11.9502   -3.9570    2.5023 H   0  0  0  0  0  0  0  0  0  0  0  0
   10.7449   -4.4468    0.7956 C   0  0  0  0  0  0  0  0  0  0  0  0
    9.6070   -4.1511    0.0365 C   0  0  0  0  0  0  0  0  0  0  0  0
    9.0638   -3.2326    0.2330 H   0  0  0  0  0  0  0  0  0  0  0  0
    9.1754   -5.0231   -0.9679 C   0  0  0  0  0  0  0  0  0  0  0  0
    8.2859   -4.7855   -1.5417 H   0  0  0  0  0  0  0  0  0  0  0  0
    9.8893   -6.1975   -1.2295 C   0  0  0  0  0  0  0  0  0  0  0  0
    9.5494   -6.8780   -2.0055 H   0  0  0  0  0  0  0  0  0  0  0  0
   11.0426   -6.4904   -0.4911 C   0  0  0  0  0  0  0  0  0  0  0  0
   11.5987   -7.4015   -0.6912 H   0  0  0  0  0  0  0  0  0  0  0  0
   11.4747   -5.6145    0.5140 C   0  0  0  0  0  0  0  0  0  0  0  0
   12.3730   -5.8489    1.0804 H   0  0  0  0  0  0  0  0  0  0  0  0
   14.2505   -2.6093    1.3569 C   0  0  0  0  0  0  0  0  0  0  0  0
   14.4112   -2.3345    2.6944 N   0  0  0  0  0  0  0  0  0  0  0  0
   15.3411   -2.3532    3.1160 H   0  0  0  0  0  0  0  0  0  0  0  0
   13.5951   -2.1056    3.2623 H   0  0  0  0  0  0  0  0  0  0  0  0
   15.2471   -2.9071    0.5859 N   0  0  0  0  0  4  0  0  0  0  0  0
   16.2209   -2.9224    0.8931 H   0  0  0  0  0  0  0  0  0  0  0  0
   15.2970   -0.8600   -1.5165 C   0  0  0  0  0  0  0  0  0  0  0  0
   14.8705   -0.5272   -0.5766 H   0  0  0  0  0  0  0  0  0  0  0  0
   15.4358    2.0263   -0.7961 C   0  0  0  0  0  0  0  0  0  0  0  0
   15.2963    1.3102    0.0044 H   0  0  0  0  0  0  0  0  0  0  0  0
   15.3716    3.4020   -0.5513 C   0  0  0  0  0  0  0  0  0  0  0  0
   15.1678    3.7870    0.4404 H   0  0  0  0  0  0  0  0  0  0  0  0
  1  2  1  0
  2  3  2  0
  3  4  1  0
  4  5  1  0
  4  6  2  0
  6  7  1  0
  7  8  2  0
  8  9  1  0
  8 10  1  0
 10 11  1  0
 10 12  2  0
 12 13  1  0
 12 14  1  0
 15 14  1  6
 15 16  1  0
 16 17  2  0
 17 18  1  0
 17 19  1  0
 19 20  1  0
 19 21  2  0
 21 22  1  0
 21 23  1  0
 23 24  1  0
 23 25  2  0
 25 26  1  0
 15 27  1  0
 27 28  2  0
 27 29  1  0
 29 30  1  0
 30 31  1  0
 31 32  1  0
 31 33  1  0
 31 34  1  0
 34 35  2  0
 35 36  1  0
 35 37  1  0
 37 38  1  0
 37 39  2  0
 39 40  1  0
 39 41  1  0
 41 42  1  0
 41 43  2  0
 43 44  1  0
 29 45  1  0
 45 46  1  0
 46 47  1  0
 46 48  1  0
 45 49  2  0
 49 50  1  0
 14 51  2  0
 51 52  1  0
  6 53  1  0
 53 54  1  0
 53 55  2  0
 55 56  1  0
 55  2  1  0
 51  7  1  0
 49 15  1  0
 25 16  1  0
 43 34  1  0
M  CHG  1  49   1
M  END
>  <score>  (27) 
5.97217

$$$$

     RDKit          3D

 43 46  0  0  0  0  0  0  0  0999 V2000
   15.5720    5.3728   -1.3883 H   0  0  0  0  0  0  0  0  0  0  0  0
   15.5841    4.3041   -1.5933 C   0  0  0  0  0  0  0  0  0  0  0  0
   15.8212    3.8822   -2.8436 N   0  0  0  0  0  0  0  0  0  0  0  0
   15.8605    2.5556   -3.0863 C   0  0  0  0  0  0  0  0  0  0  0  0
   16.0389    2.2346   -4.1082 H   0  0  0  0  0  0  0  0  0  0  0  0
   15.6833    1.5736   -2.0930 C   0  0  0  0  0  0  0  0  0  0  0  0
   15.7734    0.1179   -2.4101 C   0  0  0  0  0  0  0  0  0  0  0  0
   16.3513   -0.3244   -3.6123 C   0  0  0  0  0  0  0  0  0  0  0  0
   16.7307    0.3979   -4.3298 H   0  0  0  0  0  0  0  0  0  0  0  0
   16.4300   -1.6920   -3.9092 C   0  0  0  0  0  0  0  0  0  0  0  0
   16.8664   -2.0096   -4.8534 H   0  0  0  0  0  0  0  0  0  0  0  0
   15.9413   -2.6462   -3.0043 C   0  0  0  0  0  0  0  0  0  0  0  0
   16.0069   -3.6997   -3.2653 H   0  0  0  0  0  0  0  0  0  0  0  0
   15.3733   -2.2483   -1.7808 C   0  0  0  0  0  0  0  0  0  0  0  0
   14.7916   -3.2511   -0.7774 C   0  0  2  0  0  0  0  0  0  0  0  0
   15.1599   -4.7180   -1.0646 C   0  0  0  0  0  0  0  0  0  0  0  0
   16.3842   -5.2384   -0.6084 C   0  0  0  0  0  0  0  0  0  0  0  0
   17.0689   -4.5918   -0.0666 H   0  0  0  0  0  0  0  0  0  0  0  0
   16.7263   -6.5836   -0.8001 C   0  0  0  0  0  0  0  0  0  0  0  0
   17.6741   -6.9545   -0.4189 H   0  0  0  0  0  0  0  0  0  0  0  0
   15.8538   -7.4435   -1.4706 C   0  0  0  0  0  0  0  0  0  0  0  0
   16.1243   -8.4884   -1.6110 H   0  0  0  0  0  0  0  0  0  0  0  0
   14.6433   -6.9433   -1.9607 C   0  0  0  0  0  0  0  0  0  0  0  0
   13.9733   -7.6171   -2.4886 H   0  0  0  0  0  0  0  0  0  0  0  0
   14.2995   -5.5924   -1.7657 C   0  0  0  0  0  0  0  0  0  0  0  0
   13.3516   -5.2421   -2.1647 H   0  0  0  0  0  0  0  0  0  0  0  0
   13.2794   -3.0200   -0.5999 C   0  0  0  0  0  0  0  0  0  0  0  0
   12.4170   -3.0785   -1.4717 O   0  0  0  0  0  0  0  0  0  0  0  0
   13.0240   -2.6667    0.7025 N   0  0  0  0  0  0  0  0  0  0  0  0
   11.8429   -2.3203    1.2036 C   0  0  0  0  0  0  0  0  0  0  0  0
   10.8079   -2.0280    1.6412 N   0  0  0  0  0  0  0  0  0  0  0  0
   14.2122   -2.6220    1.3767 C   0  0  0  0  0  0  0  0  0  0  0  0
   14.3875   -2.3298    2.6963 N   0  0  0  0  0  0  0  0  0  0  0  0
   13.5787   -2.1345    3.2822 H   0  0  0  0  0  0  0  0  0  0  0  0
   15.3258   -2.3527    3.0911 H   0  0  0  0  0  0  0  0  0  0  0  0
   15.1998   -2.9016    0.5976 N   0  0  0  0  0  4  0  0  0  0  0  0
   16.1704   -2.9061    0.9022 H   0  0  0  0  0  0  0  0  0  0  0  0
   15.2974   -0.8625   -1.5147 C   0  0  0  0  0  0  0  0  0  0  0  0
   14.8676   -0.5306   -0.5766 H   0  0  0  0  0  0  0  0  0  0  0  0
   15.4287    2.0302   -0.7944 C   0  0  0  0  0  0  0  0  0  0  0  0
   15.2876    1.3230    0.0134 H   0  0  0  0  0  0  0  0  0  0  0  0
   15.3679    3.4049   -0.5502 C   0  0  0  0  0  0  0  0  0  0  0  0
   15.1671    3.7878    0.4430 H   0  0  0  0  0  0  0  0  0  0  0  0
  1  2  1  0
  2  3  2  0
  3  4  1  0
  4  5  1  0
  4  6  2  0
  6  7  1  0
  7  8  2  0
  8  9  1  0
  8 10  1  0
 10 11  1  0
 10 12  2  0
 12 13  1  0
 12 14  1  0
 15 14  1  6
 15 16  1  0
 16 17  2  0
 17 18  1  0
 17 19  1  0
 19 20  1  0
 19 21  2  0
 21 22  1  0
 21 23  1  0
 23 24  1  0
 23 25  2  0
 25 26  1  0
 15 27  1  0
 27 28  2  0
 27 29  1  0
 29 30  1  0
 30 31  3  0
 29 32  1  0
 32 33  1  0
 33 34  1  0
 33 35  1  0
 32 36  2  0
 36 37  1  0
 14 38  2  0
 38 39  1  0
  6 40  1  0
 40 41  1  0
 40 42  2  0
 42 43  1  0
 42  2  1  0
 38  7  1  0
 36 15  1  0
 25 16  1  0
M  CHG  1  36   1
M  END
>  <score>  (28) 
5.97034

$$$$

     RDKit          3D

 56 60  0  0  0  0  0  0  0  0999 V2000
   15.5251    5.3236   -1.4201 H   0  0  0  0  0  0  0  0  0  0  0  0
   15.5888    4.2572   -1.6150 C   0  0  0  0  0  0  0  0  0  0  0  0
   15.8431    3.8430   -2.8654 N   0  0  0  0  0  0  0  0  0  0  0  0
   15.9088    2.5193   -3.0975 C   0  0  0  0  0  0  0  0  0  0  0  0
   16.1049    2.1948   -4.1148 H   0  0  0  0  0  0  0  0  0  0  0  0
   15.7163    1.5524   -2.0948 C   0  0  0  0  0  0  0  0  0  0  0  0
   15.7709    0.1162   -2.3949 C   0  0  0  0  0  0  0  0  0  0  0  0
   16.3225   -0.3254   -3.6012 C   0  0  0  0  0  0  0  0  0  0  0  0
   16.7060    0.4011   -4.3119 H   0  0  0  0  0  0  0  0  0  0  0  0
   16.4024   -1.6889   -3.8781 C   0  0  0  0  0  0  0  0  0  0  0  0
   16.8406   -2.0109   -4.8146 H   0  0  0  0  0  0  0  0  0  0  0  0
   15.9124   -2.6224   -2.9599 C   0  0  0  0  0  0  0  0  0  0  0  0
   15.9706   -3.6793   -3.1950 H   0  0  0  0  0  0  0  0  0  0  0  0
   15.3471   -2.2120   -1.7430 C   0  0  0  0  0  0  0  0  0  0  0  0
   14.7972   -3.2189   -0.7387 C   0  0  2  0  0  0  0  0  0  0  0  0
   15.1658   -4.6661   -1.0436 C   0  0  0  0  0  0  0  0  0  0  0  0
   16.3899   -5.1845   -0.5894 C   0  0  0  0  0  0  0  0  0  0  0  0
   17.0771   -4.5399   -0.0474 H   0  0  0  0  0  0  0  0  0  0  0  0
   16.7248   -6.5234   -0.8016 C   0  0  0  0  0  0  0  0  0  0  0  0
   17.6651   -6.9069   -0.4180 H   0  0  0  0  0  0  0  0  0  0  0  0
   15.8425   -7.3656   -1.4833 C   0  0  0  0  0  0  0  0  0  0  0  0
   16.0984   -8.4096   -1.6382 H   0  0  0  0  0  0  0  0  0  0  0  0
   14.6293   -6.8592   -1.9624 C   0  0  0  0  0  0  0  0  0  0  0  0
   13.9451   -7.5092   -2.4985 H   0  0  0  0  0  0  0  0  0  0  0  0
   14.2919   -5.5168   -1.7454 C   0  0  0  0  0  0  0  0  0  0  0  0
   13.3397   -5.1395   -2.1096 H   0  0  0  0  0  0  0  0  0  0  0  0
   13.2858   -3.0262   -0.5454 C   0  0  0  0  0  0  0  0  0  0  0  0
   12.3796   -3.1935   -1.3515 O   0  0  0  0  0  0  0  0  0  0  0  0
   13.0662   -2.7429    0.7620 N   0  0  0  0  0  0  0  0  0  0  0  0
   11.8260   -2.5913    1.2673 C   0  0  0  0  0  0  0  0  0  0  0  0
   11.0630   -1.8638    0.6624 O   0  0  0  0  0  0  0  0  0  0  0  0
   11.4074   -3.4088    2.2936 N   0  0  0  0  0  0  0  0  0  0  0  0
   12.0330   -4.7025    2.5212 C   0  0  0  0  0  0  0  0  0  0  0  0
   12.9461   -4.5843    3.1195 H   0  0  0  0  0  0  0  0  0  0  0  0
   12.2719   -5.2235    1.5844 H   0  0  0  0  0  0  0  0  0  0  0  0
   10.9798   -5.4836    3.2841 C   0  0  0  0  0  0  0  0  0  0  0  0
   10.4683   -6.2027    2.6340 H   0  0  0  0  0  0  0  0  0  0  0  0
   11.4393   -6.0230    4.1049 H   0  0  0  0  0  0  0  0  0  0  0  0
   10.0126   -4.4428    3.8243 C   0  0  0  0  0  0  0  0  0  0  0  0
   10.3717   -4.1279    4.7981 H   0  0  0  0  0  0  0  0  0  0  0  0
    8.9953   -4.8319    3.9291 H   0  0  0  0  0  0  0  0  0  0  0  0
   10.0964   -3.2489    2.8960 C   0  0  0  0  0  0  0  0  0  0  0  0
    9.2931   -3.2818    2.1493 H   0  0  0  0  0  0  0  0  0  0  0  0
   10.0347   -2.3090    3.4594 H   0  0  0  0  0  0  0  0  0  0  0  0
   14.2260   -2.7321    1.4526 C   0  0  0  0  0  0  0  0  0  0  0  0
   14.3408   -2.5064    2.7913 N   0  0  0  0  0  0  0  0  0  0  0  0
   15.2727   -2.2369    3.1142 H   0  0  0  0  0  0  0  0  0  0  0  0
   13.5341   -2.0781    3.2428 H   0  0  0  0  0  0  0  0  0  0  0  0
   15.2170   -2.9133    0.6477 N   0  0  0  0  0  4  0  0  0  0  0  0
   16.1874   -2.9750    0.9553 H   0  0  0  0  0  0  0  0  0  0  0  0
   15.2816   -0.8319   -1.4772 C   0  0  0  0  0  0  0  0  0  0  0  0
   14.8407   -0.4875   -0.5449 H   0  0  0  0  0  0  0  0  0  0  0  0
   15.4787    1.9939   -0.7936 C   0  0  0  0  0  0  0  0  0  0  0  0
   15.3687    1.2786    0.0168 H   0  0  0  0  0  0  0  0  0  0  0  0
   15.4078    3.3631   -0.5566 C   0  0  0  0  0  0  0  0  0  0  0  0
   15.2129    3.7353    0.4416 H   0  0  0  0  0  0  0  0  0  0  0  0
  1  2  1  0
  2  3  2  0
  3  4  1  0
  4  5  1  0
  4  6  2  0
  6  7  1  0
  7  8  2  0
  8  9  1  0
  8 10  1  0
 10 11  1  0
 10 12  2  0
 12 13  1  0
 12 14  1  0
 15 14  1  6
 15 16  1  0
 16 17  2  0
 17 18  1  0
 17 19  1  0
 19 20  1  0
 19 21  2  0
 21 22  1  0
 21 23  1  0
 23 24  1  0
 23 25  2  0
 25 26  1  0
 15 27  1  0
 27 28  2  0
 27 29  1  0
 29 30  1  0
 30 31  2  0
 30 32  1  0
 32 33  1  0
 33 34  1  0
 33 35  1  0
 33 36  1  0
 36 37  1  0
 36 38  1  0
 36 39  1  0
 39 40  1  0
 39 41  1  0
 39 42  1  0
 42 43  1  0
 42 44  1  0
 29 45  1  0
 45 46  1  0
 46 47  1  0
 46 48  1  0
 45 49  2  0
 49 50  1  0
 14 51  2  0
 51 52  1  0
  6 53  1  0
 53 54  1  0
 53 55  2  0
 55 56  1  0
 55  2  1  0
 51  7  1  0
 49 15  1  0
 25 16  1  0
 42 32  1  0
M  CHG  1  49   1
M  END
>  <score>  (29) 
5.96851

$$$$

     RDKit          3D

 49 52  0  0  0  0  0  0  0  0999 V2000
   15.5713    5.3725   -1.3884 H   0  0  0  0  0  0  0  0  0  0  0  0
   15.5848    4.3039   -1.5940 C   0  0  0  0  0  0  0  0  0  0  0  0
   15.8210    3.8823   -2.8455 N   0  0  0  0  0  0  0  0  0  0  0  0
   15.8617    2.5554   -3.0863 C   0  0  0  0  0  0  0  0  0  0  0  0
   16.0395    2.2343   -4.1075 H   0  0  0  0  0  0  0  0  0  0  0  0
   15.6837    1.5725   -2.0941 C   0  0  0  0  0  0  0  0  0  0  0  0
   15.7740    0.1183   -2.4099 C   0  0  0  0  0  0  0  0  0  0  0  0
   16.3491   -0.3238   -3.6131 C   0  0  0  0  0  0  0  0  0  0  0  0
   16.7304    0.3990   -4.3283 H   0  0  0  0  0  0  0  0  0  0  0  0
   16.4311   -1.6918   -3.9096 C   0  0  0  0  0  0  0  0  0  0  0  0
   16.8666   -2.0085   -4.8539 H   0  0  0  0  0  0  0  0  0  0  0  0
   15.9437   -2.6464   -3.0053 C   0  0  0  0  0  0  0  0  0  0  0  0
   16.0064   -3.7009   -3.2632 H   0  0  0  0  0  0  0  0  0  0  0  0
   15.3756   -2.2468   -1.7822 C   0  0  0  0  0  0  0  0  0  0  0  0
   14.8004   -3.2521   -0.7839 C   0  0  2  0  0  0  0  0  0  0  0  0
   15.1616   -4.7176   -1.0675 C   0  0  0  0  0  0  0  0  0  0  0  0
   16.3843   -5.2389   -0.6079 C   0  0  0  0  0  0  0  0  0  0  0  0
   17.0680   -4.5912   -0.0672 H   0  0  0  0  0  0  0  0  0  0  0  0
   16.7273   -6.5826   -0.8009 C   0  0  0  0  0  0  0  0  0  0  0  0
   17.6738   -6.9554   -0.4187 H   0  0  0  0  0  0  0  0  0  0  0  0
   15.8540   -7.4426   -1.4707 C   0  0  0  0  0  0  0  0  0  0  0  0
   16.1235   -8.4875   -1.6112 H   0  0  0  0  0  0  0  0  0  0  0  0
   14.6428   -6.9431   -1.9608 C   0  0  0  0  0  0  0  0  0  0  0  0
   13.9729   -7.6166   -2.4887 H   0  0  0  0  0  0  0  0  0  0  0  0
   14.2995   -5.5928   -1.7668 C   0  0  0  0  0  0  0  0  0  0  0  0
   13.3518   -5.2397   -2.1627 H   0  0  0  0  0  0  0  0  0  0  0  0
   13.2880   -3.0197   -0.6083 C   0  0  0  0  0  0  0  0  0  0  0  0
   12.4196   -3.0930   -1.4775 O   0  0  0  0  0  0  0  0  0  0  0  0
   13.0320   -2.6466    0.6932 N   0  0  0  0  0  0  0  0  0  0  0  0
   11.5153   -2.3139    1.3587 S   0  0  0  0  0  0  0  0  0  0  0  0
   11.1319   -4.0333    1.8525 C   0  0  0  0  0  0  0  0  0  0  0  0
   11.9031   -4.3827    2.5428 H   0  0  0  0  0  0  0  0  0  0  0  0
   11.1656   -4.6673    0.9648 H   0  0  0  0  0  0  0  0  0  0  0  0
    9.7602   -4.1545    2.5156 C   0  0  0  0  0  0  0  0  0  0  0  0
    8.9689   -3.8288    1.8355 H   0  0  0  0  0  0  0  0  0  0  0  0
    9.5670   -5.1958    2.7920 H   0  0  0  0  0  0  0  0  0  0  0  0
    9.7122   -3.5456    3.4223 H   0  0  0  0  0  0  0  0  0  0  0  0
   14.2206   -2.6186    1.3701 C   0  0  0  0  0  0  0  0  0  0  0  0
   14.3914   -2.3390    2.6962 N   0  0  0  0  0  0  0  0  0  0  0  0
   13.5784   -2.1304    3.2758 H   0  0  0  0  0  0  0  0  0  0  0  0
   15.3284   -2.3524    3.0914 H   0  0  0  0  0  0  0  0  0  0  0  0
   15.2109   -2.9027    0.5954 N   0  0  0  0  0  4  0  0  0  0  0  0
   16.1769   -2.9053    0.9030 H   0  0  0  0  0  0  0  0  0  0  0  0
   15.2994   -0.8611   -1.5141 C   0  0  0  0  0  0  0  0  0  0  0  0
   14.8656   -0.5339   -0.5761 H   0  0  0  0  0  0  0  0  0  0  0  0
   15.4283    2.0292   -0.7951 C   0  0  0  0  0  0  0  0  0  0  0  0
   15.2891    1.3204    0.0120 H   0  0  0  0  0  0  0  0  0  0  0  0
   15.3687    3.4042   -0.5499 C   0  0  0  0  0  0  0  0  0  0  0  0
   15.1671    3.7879    0.4439 H   0  0  0  0  0  0  0  0  0  0  0  0
  1  2  1  0
  2  3  2  0
  3  4  1  0
  4  5  1  0
  4  6  2  0
  6  7  1  0
  7  8  2  0
  8  9  1  0
  8 10  1  0
 10 11  1  0
 10 12  2  0
 12 13  1  0
 12 14  1  0
 15 14  1  6
 15 16  1  0
 16 17  2  0
 17 18  1  0
 17 19  1  0
 19 20  1  0
 19 21  2  0
 21 22  1  0
 21 23  1  0
 23 24  1  0
 23 25  2  0
 25 26  1  0
 15 27  1  0
 27 28  2  0
 27 29  1  0
 29 30  1  0
 30 31  1  0
 31 32  1  0
 31 33  1  0
 31 34  1  0
 34 35  1  0
 34 36  1  0
 34 37  1  0
 29 38  1  0
 38 39  1  0
 39 40  1  0
 39 41  1  0
 38 42  2  0
 42 43  1  0
 14 44  2  0
 44 45  1  0
  6 46  1  0
 46 47  1  0
 46 48  2  0
 48 49  1  0
 48  2  1  0
 44  7  1  0
 42 15  1  0
 25 16  1  0
M  CHG  1  42   1
M  END
>  <score>  (30) 
5.9614

$$$$

     RDKit          3D

 57 61  0  0  0  0  0  0  0  0999 V2000
   15.5341    5.3545   -1.4220 H   0  0  0  0  0  0  0  0  0  0  0  0
   15.6145    4.2888   -1.6139 C   0  0  0  0  0  0  0  0  0  0  0  0
   15.8667    3.8711   -2.8643 N   0  0  0  0  0  0  0  0  0  0  0  0
   15.9504    2.5469   -3.0913 C   0  0  0  0  0  0  0  0  0  0  0  0
   16.1413    2.2119   -4.1059 H   0  0  0  0  0  0  0  0  0  0  0  0
   15.7807    1.5817   -2.0871 C   0  0  0  0  0  0  0  0  0  0  0  0
   15.8295    0.1425   -2.3936 C   0  0  0  0  0  0  0  0  0  0  0  0
   16.3677   -0.3428   -3.5951 C   0  0  0  0  0  0  0  0  0  0  0  0
   16.7719    0.3574   -4.3186 H   0  0  0  0  0  0  0  0  0  0  0  0
   16.3927   -1.7187   -3.8577 C   0  0  0  0  0  0  0  0  0  0  0  0
   16.8188   -2.0855   -4.7858 H   0  0  0  0  0  0  0  0  0  0  0  0
   15.8632   -2.6195   -2.9269 C   0  0  0  0  0  0  0  0  0  0  0  0
   15.8791   -3.6857   -3.1350 H   0  0  0  0  0  0  0  0  0  0  0  0
   15.3082   -2.1535   -1.7230 C   0  0  0  0  0  0  0  0  0  0  0  0
   14.6677   -3.0793   -0.7037 C   0  0  2  0  0  0  0  0  0  0  0  0
   15.0190   -4.5376   -0.9602 C   0  0  0  0  0  0  0  0  0  0  0  0
   16.2539   -5.0366   -0.5149 C   0  0  0  0  0  0  0  0  0  0  0  0
   16.9278   -4.3822    0.0311 H   0  0  0  0  0  0  0  0  0  0  0  0
   16.6283   -6.3584   -0.7633 C   0  0  0  0  0  0  0  0  0  0  0  0
   17.5852   -6.7214   -0.4000 H   0  0  0  0  0  0  0  0  0  0  0  0
   15.7714   -7.2023   -1.4744 C   0  0  0  0  0  0  0  0  0  0  0  0
   16.0642   -8.2288   -1.6704 H   0  0  0  0  0  0  0  0  0  0  0  0
   14.5402   -6.7204   -1.9330 C   0  0  0  0  0  0  0  0  0  0  0  0
   13.8753   -7.3771   -2.4857 H   0  0  0  0  0  0  0  0  0  0  0  0
   14.1648   -5.3938   -1.6790 C   0  0  0  0  0  0  0  0  0  0  0  0
   13.2099   -5.0276   -2.0456 H   0  0  0  0  0  0  0  0  0  0  0  0
   13.1583   -2.7761   -0.5999 C   0  0  0  0  0  0  0  0  0  0  0  0
   12.2797   -2.9786   -1.4351 O   0  0  0  0  0  0  0  0  0  0  0  0
   12.8960   -2.2981    0.6541 N   0  0  0  0  0  0  0  0  0  0  0  0
   11.6225   -1.8120    1.0745 C   0  0  0  0  0  0  0  0  0  0  0  0
   10.8098   -2.4658    0.7311 H   0  0  0  0  0  0  0  0  0  0  0  0
   11.5518   -1.7309    2.1663 H   0  0  0  0  0  0  0  0  0  0  0  0
   11.6070   -0.5276    0.3929 N   0  0  0  0  0  0  0  0  0  0  0  0
   12.5045   -0.1049    0.1557 H   0  0  0  0  0  0  0  0  0  0  0  0
   10.4412    0.2231    0.2481 C   0  0  0  0  0  0  0  0  0  0  0  0
    9.2231   -0.2823    0.6931 C   0  0  0  0  0  0  0  0  0  0  0  0
    9.2592   -1.2534    1.1690 H   0  0  0  0  0  0  0  0  0  0  0  0
    8.0373    0.4508    0.5350 C   0  0  0  0  0  0  0  0  0  0  0  0
    7.0883    0.0782    0.9040 H   0  0  0  0  0  0  0  0  0  0  0  0
    8.0664    1.6800   -0.1288 C   0  0  0  0  0  0  0  0  0  0  0  0
    7.1408    2.2260   -0.2533 H   0  0  0  0  0  0  0  0  0  0  0  0
    9.2828    2.1944   -0.5970 C   0  0  0  0  0  0  0  0  0  0  0  0
    9.3337    3.1593   -1.0939 H   0  0  0  0  0  0  0  0  0  0  0  0
   10.4617    1.4725   -0.3710 C   0  0  0  0  0  0  0  0  0  0  0  0
   11.4054    1.8696   -0.7106 H   0  0  0  0  0  0  0  0  0  0  0  0
   14.0595   -2.2516    1.3643 C   0  0  0  0  0  0  0  0  0  0  0  0
   14.1564   -1.8555    2.6669 N   0  0  0  0  0  0  0  0  0  0  0  0
   15.0276   -2.0555    3.1573 H   0  0  0  0  0  0  0  0  0  0  0  0
   13.2929   -1.7984    3.2023 H   0  0  0  0  0  0  0  0  0  0  0  0
   15.0573   -2.6958    0.6739 N   0  0  0  0  0  4  0  0  0  0  0  0
   16.0038   -2.8255    1.0363 H   0  0  0  0  0  0  0  0  0  0  0  0
   15.3041   -0.7754   -1.4777 C   0  0  0  0  0  0  0  0  0  0  0  0
   14.8682   -0.4128   -0.5513 H   0  0  0  0  0  0  0  0  0  0  0  0
   15.5408    2.0275   -0.7828 C   0  0  0  0  0  0  0  0  0  0  0  0
   15.4348    1.3155    0.0320 H   0  0  0  0  0  0  0  0  0  0  0  0
   15.4513    3.3979   -0.5513 C   0  0  0  0  0  0  0  0  0  0  0  0
   15.2561    3.7780    0.4446 H   0  0  0  0  0  0  0  0  0  0  0  0
  1  2  1  0
  2  3  2  0
  3  4  1  0
  4  5  1  0
  4  6  2  0
  6  7  1  0
  7  8  2  0
  8  9  1  0
  8 10  1  0
 10 11  1  0
 10 12  2  0
 12 13  1  0
 12 14  1  0
 15 14  1  6
 15 16  1  0
 16 17  2  0
 17 18  1  0
 17 19  1  0
 19 20  1  0
 19 21  2  0
 21 22  1  0
 21 23  1  0
 23 24  1  0
 23 25  2  0
 25 26  1  0
 15 27  1  0
 27 28  2  0
 27 29  1  0
 29 30  1  0
 30 31  1  0
 30 32  1  0
 30 33  1  0
 33 34  1  0
 33 35  1  0
 35 36  2  0
 36 37  1  0
 36 38  1  0
 38 39  1  0
 38 40  2  0
 40 41  1  0
 40 42  1  0
 42 43  1  0
 42 44  2  0
 44 45  1  0
 29 46  1  0
 46 47  1  0
 47 48  1  0
 47 49  1  0
 46 50  2  0
 50 51  1  0
 14 52  2  0
 52 53  1  0
  6 54  1  0
 54 55  1  0
 54 56  2  0
 56 57  1  0
 56  2  1  0
 52  7  1  0
 50 15  1  0
 25 16  1  0
 44 35  1  0
M  CHG  1  50   1
M  END
>  <score>  (31) 
5.96055

$$$$

     RDKit          3D

 56 60  0  0  0  0  0  0  0  0999 V2000
   15.5682    5.3707   -1.3880 H   0  0  0  0  0  0  0  0  0  0  0  0
   15.5852    4.3015   -1.5968 C   0  0  0  0  0  0  0  0  0  0  0  0
   15.8197    3.8799   -2.8497 N   0  0  0  0  0  0  0  0  0  0  0  0
   15.8656    2.5521   -3.0875 C   0  0  0  0  0  0  0  0  0  0  0  0
   16.0461    2.2251   -4.1052 H   0  0  0  0  0  0  0  0  0  0  0  0
   15.6858    1.5708   -2.0962 C   0  0  0  0  0  0  0  0  0  0  0  0
   15.7736    0.1207   -2.4109 C   0  0  0  0  0  0  0  0  0  0  0  0
   16.3440   -0.3207   -3.6131 C   0  0  0  0  0  0  0  0  0  0  0  0
   16.7260    0.4071   -4.3209 H   0  0  0  0  0  0  0  0  0  0  0  0
   16.4325   -1.6877   -3.9107 C   0  0  0  0  0  0  0  0  0  0  0  0
   16.8649   -2.0081   -4.8530 H   0  0  0  0  0  0  0  0  0  0  0  0
   15.9484   -2.6432   -3.0095 C   0  0  0  0  0  0  0  0  0  0  0  0
   16.0048   -3.7009   -3.2590 H   0  0  0  0  0  0  0  0  0  0  0  0
   15.3856   -2.2403   -1.7894 C   0  0  0  0  0  0  0  0  0  0  0  0
   14.8231   -3.2474   -0.7912 C   0  0  2  0  0  0  0  0  0  0  0  0
   15.1761   -4.7165   -1.0763 C   0  0  0  0  0  0  0  0  0  0  0  0
   16.3921   -5.2396   -0.6075 C   0  0  0  0  0  0  0  0  0  0  0  0
   17.0697   -4.5871   -0.0651 H   0  0  0  0  0  0  0  0  0  0  0  0
   16.7311   -6.5822   -0.8025 C   0  0  0  0  0  0  0  0  0  0  0  0
   17.6733   -6.9570   -0.4163 H   0  0  0  0  0  0  0  0  0  0  0  0
   15.8546   -7.4391   -1.4722 C   0  0  0  0  0  0  0  0  0  0  0  0
   16.1198   -8.4850   -1.6121 H   0  0  0  0  0  0  0  0  0  0  0  0
   14.6432   -6.9394   -1.9605 C   0  0  0  0  0  0  0  0  0  0  0  0
   13.9709   -7.6097   -2.4883 H   0  0  0  0  0  0  0  0  0  0  0  0
   14.3048   -5.5885   -1.7676 C   0  0  0  0  0  0  0  0  0  0  0  0
   13.3552   -5.2291   -2.1540 H   0  0  0  0  0  0  0  0  0  0  0  0
   13.3092   -3.0121   -0.6239 C   0  0  0  0  0  0  0  0  0  0  0  0
   12.4766   -3.1270   -1.5309 O   0  0  0  0  0  0  0  0  0  0  0  0
   13.0394   -2.6175    0.6853 N   0  0  0  0  0  0  0  0  0  0  0  0
   11.7444   -2.6349    1.3282 N   0  0  0  0  0  0  0  0  0  0  0  0
   11.6226   -1.9019    2.0411 H   0  0  0  0  0  0  0  0  0  0  0  0
   11.4432   -3.9545    1.8944 C   0  0  0  0  0  0  0  0  0  0  0  0
   12.1096   -4.1659    2.7395 H   0  0  0  0  0  0  0  0  0  0  0  0
   11.6046   -4.7278    1.1373 H   0  0  0  0  0  0  0  0  0  0  0  0
   10.0151   -3.9799    2.3359 C   0  0  0  0  0  0  0  0  0  0  0  0
    8.9891   -4.3314    1.4667 C   0  0  0  0  0  0  0  0  0  0  0  0
    9.2128   -4.5933    0.4424 H   0  0  0  0  0  0  0  0  0  0  0  0
    7.6690   -4.3279    1.9121 C   0  0  0  0  0  0  0  0  0  0  0  0
    6.8937   -4.5987    1.2105 H   0  0  0  0  0  0  0  0  0  0  0  0
    7.3220   -3.9913    3.1609 N   0  0  0  0  0  0  0  0  0  0  0  0
    8.3152   -3.6732    4.0043 C   0  0  0  0  0  0  0  0  0  0  0  0
    8.0777   -3.4191    5.0235 H   0  0  0  0  0  0  0  0  0  0  0  0
    9.6559   -3.6486    3.6325 C   0  0  0  0  0  0  0  0  0  0  0  0
   10.4144   -3.3621    4.3492 H   0  0  0  0  0  0  0  0  0  0  0  0
   14.2607   -2.6083    1.3524 C   0  0  0  0  0  0  0  0  0  0  0  0
   14.4300   -2.3496    2.6912 N   0  0  0  0  0  0  0  0  0  0  0  0
   13.6149   -2.1299    3.2612 H   0  0  0  0  0  0  0  0  0  0  0  0
   15.3642   -2.3536    3.1023 H   0  0  0  0  0  0  0  0  0  0  0  0
   15.2545   -2.8927    0.5797 N   0  0  0  0  0  4  0  0  0  0  0  0
   16.2254   -2.9248    0.8960 H   0  0  0  0  0  0  0  0  0  0  0  0
   15.3036   -0.8557   -1.5146 C   0  0  0  0  0  0  0  0  0  0  0  0
   14.8680   -0.5271   -0.5775 H   0  0  0  0  0  0  0  0  0  0  0  0
   15.4332    2.0241   -0.7977 C   0  0  0  0  0  0  0  0  0  0  0  0
   15.2997    1.3086    0.0049 H   0  0  0  0  0  0  0  0  0  0  0  0
   15.3730    3.4004   -0.5509 C   0  0  0  0  0  0  0  0  0  0  0  0
   15.1684    3.7867    0.4426 H   0  0  0  0  0  0  0  0  0  0  0  0
  1  2  1  0
  2  3  2  0
  3  4  1  0
  4  5  1  0
  4  6  2  0
  6  7  1  0
  7  8  2  0
  8  9  1  0
  8 10  1  0
 10 11  1  0
 10 12  2  0
 12 13  1  0
 12 14  1  0
 15 14  1  6
 15 16  1  0
 16 17  2  0
 17 18  1  0
 17 19  1  0
 19 20  1  0
 19 21  2  0
 21 22  1  0
 21 23  1  0
 23 24  1  0
 23 25  2  0
 25 26  1  0
 15 27  1  0
 27 28  2  0
 27 29  1  0
 29 30  1  0
 30 31  1  0
 30 32  1  0
 32 33  1  0
 32 34  1  0
 32 35  1  0
 35 36  2  0
 36 37  1  0
 36 38  1  0
 38 39  1  0
 38 40  2  0
 40 41  1  0
 41 42  1  0
 41 43  2  0
 43 44  1  0
 29 45  1  0
 45 46  1  0
 46 47  1  0
 46 48  1  0
 45 49  2  0
 49 50  1  0
 14 51  2  0
 51 52  1  0
  6 53  1  0
 53 54  1  0
 53 55  2  0
 55 56  1  0
 55  2  1  0
 51  7  1  0
 49 15  1  0
 25 16  1  0
 43 35  1  0
M  CHG  1  49   1
M  END
>  <score>  (32) 
5.96031

$$$$

     RDKit          3D

 58 62  0  0  0  0  0  0  0  0999 V2000
   15.5330    5.3263   -1.4140 H   0  0  0  0  0  0  0  0  0  0  0  0
   15.5852    4.2611   -1.6146 C   0  0  0  0  0  0  0  0  0  0  0  0
   15.8404    3.8492   -2.8659 N   0  0  0  0  0  0  0  0  0  0  0  0
   15.8990    2.5252   -3.0982 C   0  0  0  0  0  0  0  0  0  0  0  0
   16.0949    2.1951   -4.1143 H   0  0  0  0  0  0  0  0  0  0  0  0
   15.7091    1.5583   -2.0951 C   0  0  0  0  0  0  0  0  0  0  0  0
   15.7700    0.1202   -2.3911 C   0  0  0  0  0  0  0  0  0  0  0  0
   16.3219   -0.3209   -3.5976 C   0  0  0  0  0  0  0  0  0  0  0  0
   16.7055    0.4094   -4.3044 H   0  0  0  0  0  0  0  0  0  0  0  0
   16.3969   -1.6861   -3.8825 C   0  0  0  0  0  0  0  0  0  0  0  0
   16.8508   -2.0129   -4.8139 H   0  0  0  0  0  0  0  0  0  0  0  0
   15.9057   -2.6221   -2.9625 C   0  0  0  0  0  0  0  0  0  0  0  0
   15.9707   -3.6792   -3.1974 H   0  0  0  0  0  0  0  0  0  0  0  0
   15.3453   -2.2145   -1.7395 C   0  0  0  0  0  0  0  0  0  0  0  0
   14.7783   -3.2206   -0.7396 C   0  0  2  0  0  0  0  0  0  0  0  0
   15.1589   -4.6712   -1.0432 C   0  0  0  0  0  0  0  0  0  0  0  0
   16.3845   -5.1920   -0.5921 C   0  0  0  0  0  0  0  0  0  0  0  0
   17.0657   -4.5454   -0.0472 H   0  0  0  0  0  0  0  0  0  0  0  0
   16.7247   -6.5340   -0.7971 C   0  0  0  0  0  0  0  0  0  0  0  0
   17.6687   -6.9163   -0.4154 H   0  0  0  0  0  0  0  0  0  0  0  0
   15.8429   -7.3785   -1.4784 C   0  0  0  0  0  0  0  0  0  0  0  0
   16.1037   -8.4226   -1.6295 H   0  0  0  0  0  0  0  0  0  0  0  0
   14.6313   -6.8735   -1.9648 C   0  0  0  0  0  0  0  0  0  0  0  0
   13.9514   -7.5354   -2.4959 H   0  0  0  0  0  0  0  0  0  0  0  0
   14.2917   -5.5286   -1.7487 C   0  0  0  0  0  0  0  0  0  0  0  0
   13.3361   -5.1617   -2.1113 H   0  0  0  0  0  0  0  0  0  0  0  0
   13.2564   -3.0222   -0.5592 C   0  0  0  0  0  0  0  0  0  0  0  0
   12.3554   -3.1671   -1.3817 O   0  0  0  0  0  0  0  0  0  0  0  0
   13.0131   -2.7138    0.7465 N   0  0  0  0  0  0  0  0  0  0  0  0
   11.7646   -2.7000    1.2904 C   0  0  0  0  0  0  0  0  0  0  0  0
   10.8061   -2.5435    0.5423 O   0  0  0  0  0  0  0  0  0  0  0  0
   11.6949   -2.9102    2.6118 O   0  0  0  0  0  0  0  0  0  0  0  0
   10.3719   -2.9328    3.1691 C   0  0  0  0  0  0  0  0  0  0  0  0
   10.4554   -2.9334    4.2598 H   0  0  0  0  0  0  0  0  0  0  0  0
    9.8253   -2.0274    2.8857 H   0  0  0  0  0  0  0  0  0  0  0  0
    9.6008   -4.1639    2.7439 C   0  0  0  0  0  0  0  0  0  0  0  0
   10.0280   -5.4384    3.1487 C   0  0  0  0  0  0  0  0  0  0  0  0
   10.9110   -5.5408    3.7722 H   0  0  0  0  0  0  0  0  0  0  0  0
    9.3274   -6.5870    2.7592 C   0  0  0  0  0  0  0  0  0  0  0  0
    9.6718   -7.5666    3.0784 H   0  0  0  0  0  0  0  0  0  0  0  0
    8.1790   -6.4744    1.9688 C   0  0  0  0  0  0  0  0  0  0  0  0
    7.6366   -7.3662    1.6648 H   0  0  0  0  0  0  0  0  0  0  0  0
    7.7159   -5.2082    1.5967 C   0  0  0  0  0  0  0  0  0  0  0  0
    6.8008   -5.1239    1.0168 H   0  0  0  0  0  0  0  0  0  0  0  0
    8.4243   -4.0596    1.9809 C   0  0  0  0  0  0  0  0  0  0  0  0
    8.0522   -3.0838    1.6856 H   0  0  0  0  0  0  0  0  0  0  0  0
   14.1962   -2.7009    1.4292 C   0  0  0  0  0  0  0  0  0  0  0  0
   14.3379   -2.4771    2.7652 N   0  0  0  0  0  0  0  0  0  0  0  0
   15.2814   -2.2551    3.0876 H   0  0  0  0  0  0  0  0  0  0  0  0
   13.5515   -2.0389    3.2377 H   0  0  0  0  0  0  0  0  0  0  0  0
   15.2007   -2.9026    0.6444 N   0  0  0  0  0  4  0  0  0  0  0  0
   16.1655   -2.9940    0.9670 H   0  0  0  0  0  0  0  0  0  0  0  0
   15.2839   -0.8326   -1.4769 C   0  0  0  0  0  0  0  0  0  0  0  0
   14.8441   -0.4828   -0.5483 H   0  0  0  0  0  0  0  0  0  0  0  0
   15.4712    1.9982   -0.7950 C   0  0  0  0  0  0  0  0  0  0  0  0
   15.3620    1.2748    0.0071 H   0  0  0  0  0  0  0  0  0  0  0  0
   15.3971    3.3670   -0.5584 C   0  0  0  0  0  0  0  0  0  0  0  0
   15.2050    3.7444    0.4385 H   0  0  0  0  0  0  0  0  0  0  0  0
  1  2  1  0
  2  3  2  0
  3  4  1  0
  4  5  1  0
  4  6  2  0
  6  7  1  0
  7  8  2  0
  8  9  1  0
  8 10  1  0
 10 11  1  0
 10 12  2  0
 12 13  1  0
 12 14  1  0
 15 14  1  6
 15 16  1  0
 16 17  2  0
 17 18  1  0
 17 19  1  0
 19 20  1  0
 19 21  2  0
 21 22  1  0
 21 23  1  0
 23 24  1  0
 23 25  2  0
 25 26  1  0
 15 27  1  0
 27 28  2  0
 27 29  1  0
 29 30  1  0
 30 31  2  0
 30 32  1  0
 32 33  1  0
 33 34  1  0
 33 35  1  0
 33 36  1  0
 36 37  2  0
 37 38  1  0
 37 39  1  0
 39 40  1  0
 39 41  2  0
 41 42  1  0
 41 43  1  0
 43 44  1  0
 43 45  2  0
 45 46  1  0
 29 47  1  0
 47 48  1  0
 48 49  1  0
 48 50  1  0
 47 51  2  0
 51 52  1  0
 14 53  2  0
 53 54  1  0
  6 55  1  0
 55 56  1  0
 55 57  2  0
 57 58  1  0
 57  2  1  0
 53  7  1  0
 51 15  1  0
 25 16  1  0
 45 36  1  0
M  CHG  1  51   1
M  END
>  <score>  (33) 
5.96027

$$$$

     RDKit          3D

 49 53  0  0  0  0  0  0  0  0999 V2000
   15.5701    5.3721   -1.3877 H   0  0  0  0  0  0  0  0  0  0  0  0
   15.5849    4.3035   -1.5953 C   0  0  0  0  0  0  0  0  0  0  0  0
   15.8201    3.8818   -2.8477 N   0  0  0  0  0  0  0  0  0  0  0  0
   15.8635    2.5543   -3.0870 C   0  0  0  0  0  0  0  0  0  0  0  0
   16.0426    2.2298   -4.1061 H   0  0  0  0  0  0  0  0  0  0  0  0
   15.6847    1.5716   -2.0953 C   0  0  0  0  0  0  0  0  0  0  0  0
   15.7740    0.1187   -2.4098 C   0  0  0  0  0  0  0  0  0  0  0  0
   16.3467   -0.3224   -3.6127 C   0  0  0  0  0  0  0  0  0  0  0  0
   16.7286    0.4022   -4.3248 H   0  0  0  0  0  0  0  0  0  0  0  0
   16.4315   -1.6909   -3.9080 C   0  0  0  0  0  0  0  0  0  0  0  0
   16.8656   -2.0090   -4.8521 H   0  0  0  0  0  0  0  0  0  0  0  0
   15.9420   -2.6458   -3.0038 C   0  0  0  0  0  0  0  0  0  0  0  0
   16.0052   -3.7006   -3.2609 H   0  0  0  0  0  0  0  0  0  0  0  0
   15.3683   -2.2447   -1.7820 C   0  0  0  0  0  0  0  0  0  0  0  0
   14.7931   -3.2498   -0.7777 C   0  0  2  0  0  0  0  0  0  0  0  0
   15.1617   -4.7153   -1.0677 C   0  0  0  0  0  0  0  0  0  0  0  0
   16.3851   -5.2366   -0.6078 C   0  0  0  0  0  0  0  0  0  0  0  0
   17.0671   -4.5887   -0.0659 H   0  0  0  0  0  0  0  0  0  0  0  0
   16.7287   -6.5806   -0.8023 C   0  0  0  0  0  0  0  0  0  0  0  0
   17.6728   -6.9555   -0.4176 H   0  0  0  0  0  0  0  0  0  0  0  0
   15.8543   -7.4409   -1.4714 C   0  0  0  0  0  0  0  0  0  0  0  0
   16.1218   -8.4863   -1.6113 H   0  0  0  0  0  0  0  0  0  0  0  0
   14.6431   -6.9409   -1.9611 C   0  0  0  0  0  0  0  0  0  0  0  0
   13.9723   -7.6134   -2.4883 H   0  0  0  0  0  0  0  0  0  0  0  0
   14.3006   -5.5902   -1.7670 C   0  0  0  0  0  0  0  0  0  0  0  0
   13.3524   -5.2351   -2.1586 H   0  0  0  0  0  0  0  0  0  0  0  0
   13.2784   -3.0229   -0.5771 C   0  0  0  0  0  0  0  0  0  0  0  0
   12.4133   -3.0858   -1.4481 O   0  0  0  0  0  0  0  0  0  0  0  0
   13.0193   -2.6760    0.7352 N   0  0  0  0  0  0  0  0  0  0  0  0
   11.7257   -2.4319    1.3651 C   0  0  0  0  0  0  0  0  0  0  0  0
   11.7530   -2.2397    2.4447 H   0  0  0  0  0  0  0  0  0  0  0  0
   10.5253   -3.2018    0.8240 C   0  0  0  0  0  0  0  0  0  0  0  0
   10.6878   -3.8972   -0.0030 H   0  0  0  0  0  0  0  0  0  0  0  0
    9.7561   -3.5245    1.5329 H   0  0  0  0  0  0  0  0  0  0  0  0
   10.6621   -1.7076    0.5475 C   0  0  0  0  0  0  0  0  0  0  0  0
   10.9186   -1.3902   -0.4659 H   0  0  0  0  0  0  0  0  0  0  0  0
    9.9861   -1.0244    1.0714 H   0  0  0  0  0  0  0  0  0  0  0  0
   14.2277   -2.6348    1.3775 C   0  0  0  0  0  0  0  0  0  0  0  0
   14.4168   -2.3420    2.6956 N   0  0  0  0  0  0  0  0  0  0  0  0
   13.6220   -2.0280    3.2489 H   0  0  0  0  0  0  0  0  0  0  0  0
   15.3528   -2.3989    3.1002 H   0  0  0  0  0  0  0  0  0  0  0  0
   15.2143   -2.9037    0.5954 N   0  0  0  0  0  4  0  0  0  0  0  0
   16.1868   -2.9118    0.8993 H   0  0  0  0  0  0  0  0  0  0  0  0
   15.2990   -0.8588   -1.5131 C   0  0  0  0  0  0  0  0  0  0  0  0
   14.8673   -0.5298   -0.5758 H   0  0  0  0  0  0  0  0  0  0  0  0
   15.4308    2.0265   -0.7966 C   0  0  0  0  0  0  0  0  0  0  0  0
   15.2944    1.3153    0.0086 H   0  0  0  0  0  0  0  0  0  0  0  0
   15.3707    3.4026   -0.5504 C   0  0  0  0  0  0  0  0  0  0  0  0
   15.1678    3.7870    0.4432 H   0  0  0  0  0  0  0  0  0  0  0  0
  1  2  1  0
  2  3  2  0
  3  4  1  0
  4  5  1  0
  4  6  2  0
  6  7  1  0
  7  8  2  0
  8  9  1  0
  8 10  1  0
 10 11  1  0
 10 12  2  0
 12 13  1  0
 12 14  1  0
 15 14  1  6
 15 16  1  0
 16 17  2  0
 17 18  1  0
 17 19  1  0
 19 20  1  0
 19 21  2  0
 21 22  1  0
 21 23  1  0
 23 24  1  0
 23 25  2  0
 25 26  1  0
 15 27  1  0
 27 28  2  0
 27 29  1  0
 29 30  1  0
 30 31  1  0
 30 32  1  0
 32 33  1  0
 32 34  1  0
 32 35  1  0
 35 36  1  0
 35 37  1  0
 29 38  1  0
 38 39  1  0
 39 40  1  0
 39 41  1  0
 38 42  2  0
 42 43  1  0
 14 44  2  0
 44 45  1  0
  6 46  1  0
 46 47  1  0
 46 48  2  0
 48 49  1  0
 48  2  1  0
 44  7  1  0
 42 15  1  0
 25 16  1  0
 35 30  1  0
M  CHG  1  42   1
M  END
>  <score>  (34) 
5.95462

$$$$

     RDKit          3D

 46 49  0  0  0  0  0  0  0  0999 V2000
   15.5696    5.3723   -1.3876 H   0  0  0  0  0  0  0  0  0  0  0  0
   15.5826    4.3035   -1.5949 C   0  0  0  0  0  0  0  0  0  0  0  0
   15.8196    3.8808   -2.8464 N   0  0  0  0  0  0  0  0  0  0  0  0
   15.8631    2.5529   -3.0884 C   0  0  0  0  0  0  0  0  0  0  0  0
   16.0473    2.2227   -4.1059 H   0  0  0  0  0  0  0  0  0  0  0  0
   15.6865    1.5715   -2.0956 C   0  0  0  0  0  0  0  0  0  0  0  0
   15.7693    0.1179   -2.4110 C   0  0  0  0  0  0  0  0  0  0  0  0
   16.3505   -0.3216   -3.6098 C   0  0  0  0  0  0  0  0  0  0  0  0
   16.7229    0.4104   -4.3199 H   0  0  0  0  0  0  0  0  0  0  0  0
   16.4324   -1.6894   -3.9101 C   0  0  0  0  0  0  0  0  0  0  0  0
   16.8650   -2.0063   -4.8529 H   0  0  0  0  0  0  0  0  0  0  0  0
   15.9473   -2.6456   -3.0095 C   0  0  0  0  0  0  0  0  0  0  0  0
   16.0043   -3.7015   -3.2564 H   0  0  0  0  0  0  0  0  0  0  0  0
   15.3887   -2.2463   -1.7860 C   0  0  0  0  0  0  0  0  0  0  0  0
   14.8284   -3.2549   -0.7893 C   0  0  2  0  0  0  0  0  0  0  0  0
   15.1782   -4.7194   -1.0780 C   0  0  0  0  0  0  0  0  0  0  0  0
   16.3957   -5.2406   -0.6124 C   0  0  0  0  0  0  0  0  0  0  0  0
   17.0657   -4.5861   -0.0634 H   0  0  0  0  0  0  0  0  0  0  0  0
   16.7294   -6.5844   -0.8025 C   0  0  0  0  0  0  0  0  0  0  0  0
   17.6720   -6.9557   -0.4165 H   0  0  0  0  0  0  0  0  0  0  0  0
   15.8532   -7.4407   -1.4732 C   0  0  0  0  0  0  0  0  0  0  0  0
   16.1210   -8.4859   -1.6114 H   0  0  0  0  0  0  0  0  0  0  0  0
   14.6425   -6.9390   -1.9619 C   0  0  0  0  0  0  0  0  0  0  0  0
   13.9725   -7.6118   -2.4881 H   0  0  0  0  0  0  0  0  0  0  0  0
   14.3034   -5.5889   -1.7673 C   0  0  0  0  0  0  0  0  0  0  0  0
   13.3534   -5.2310   -2.1558 H   0  0  0  0  0  0  0  0  0  0  0  0
   13.3185   -3.0084   -0.6292 C   0  0  0  0  0  0  0  0  0  0  0  0
   12.4562   -3.0973   -1.5026 O   0  0  0  0  0  0  0  0  0  0  0  0
   13.0534   -2.6333    0.6732 N   0  0  0  0  0  0  0  0  0  0  0  0
   11.7997   -2.1851    1.1825 O   0  0  0  0  0  0  0  0  0  0  0  0
   11.0665   -3.2804    1.7234 C   0  0  0  0  0  0  0  0  0  0  0  0
   10.1058   -2.9499    2.1419 H   0  0  0  0  0  0  0  0  0  0  0  0
   10.8892   -4.0083    0.9303 H   0  0  0  0  0  0  0  0  0  0  0  0
   11.6492   -3.7779    2.5026 H   0  0  0  0  0  0  0  0  0  0  0  0
   14.2512   -2.6123    1.3572 C   0  0  0  0  0  0  0  0  0  0  0  0
   14.4148   -2.3264    2.6922 N   0  0  0  0  0  0  0  0  0  0  0  0
   15.3438   -2.3477    3.1157 H   0  0  0  0  0  0  0  0  0  0  0  0
   13.5965   -2.1177    3.2646 H   0  0  0  0  0  0  0  0  0  0  0  0
   15.2486   -2.9146    0.5883 N   0  0  0  0  0  4  0  0  0  0  0  0
   16.2228   -2.9235    0.8943 H   0  0  0  0  0  0  0  0  0  0  0  0
   15.2947   -0.8610   -1.5170 C   0  0  0  0  0  0  0  0  0  0  0  0
   14.8703   -0.5283   -0.5759 H   0  0  0  0  0  0  0  0  0  0  0  0
   15.4384    2.0254   -0.7965 C   0  0  0  0  0  0  0  0  0  0  0  0
   15.2983    1.3055    0.0006 H   0  0  0  0  0  0  0  0  0  0  0  0
   15.3725    3.4016   -0.5514 C   0  0  0  0  0  0  0  0  0  0  0  0
   15.1680    3.7872    0.4394 H   0  0  0  0  0  0  0  0  0  0  0  0
  1  2  1  0
  2  3  2  0
  3  4  1  0
  4  5  1  0
  4  6  2  0
  6  7  1  0
  7  8  2  0
  8  9  1  0
  8 10  1  0
 10 11  1  0
 10 12  2  0
 12 13  1  0
 12 14  1  0
 15 14  1  6
 15 16  1  0
 16 17  2  0
 17 18  1  0
 17 19  1  0
 19 20  1  0
 19 21  2  0
 21 22  1  0
 21 23  1  0
 23 24  1  0
 23 25  2  0
 25 26  1  0
 15 27  1  0
 27 28  2  0
 27 29  1  0
 29 30  1  0
 30 31  1  0
 31 32  1  0
 31 33  1  0
 31 34  1  0
 29 35  1  0
 35 36  1  0
 36 37  1  0
 36 38  1  0
 35 39  2  0
 39 40  1  0
 14 41  2  0
 41 42  1  0
  6 43  1  0
 43 44  1  0
 43 45  2  0
 45 46  1  0
 45  2  1  0
 41  7  1  0
 39 15  1  0
 25 16  1  0
M  CHG  1  39   1
M  END
>  <score>  (35) 
5.95363

$$$$

     RDKit          3D

 47 51  0  0  0  0  0  0  0  0999 V2000
   15.5478    5.3460   -1.3963 H   0  0  0  0  0  0  0  0  0  0  0  0
   15.5854    4.2797   -1.6082 C   0  0  0  0  0  0  0  0  0  0  0  0
   15.8240    3.8646   -2.8629 N   0  0  0  0  0  0  0  0  0  0  0  0
   15.8838    2.5378   -3.0973 C   0  0  0  0  0  0  0  0  0  0  0  0
   16.0828    2.1880   -4.1052 H   0  0  0  0  0  0  0  0  0  0  0  0
   15.7026    1.5674   -2.0998 C   0  0  0  0  0  0  0  0  0  0  0  0
   15.7739    0.1244   -2.4038 C   0  0  0  0  0  0  0  0  0  0  0  0
   16.3315   -0.3142   -3.6060 C   0  0  0  0  0  0  0  0  0  0  0  0
   16.7011    0.4394   -4.2924 H   0  0  0  0  0  0  0  0  0  0  0  0
   16.4205   -1.6817   -3.8994 C   0  0  0  0  0  0  0  0  0  0  0  0
   16.8605   -2.0036   -4.8367 H   0  0  0  0  0  0  0  0  0  0  0  0
   15.9393   -2.6305   -2.9868 C   0  0  0  0  0  0  0  0  0  0  0  0
   15.9934   -3.6909   -3.2197 H   0  0  0  0  0  0  0  0  0  0  0  0
   15.3781   -2.2218   -1.7654 C   0  0  0  0  0  0  0  0  0  0  0  0
   14.8077   -3.2268   -0.7660 C   0  0  2  0  0  0  0  0  0  0  0  0
   15.1772   -4.6868   -1.0683 C   0  0  0  0  0  0  0  0  0  0  0  0
   16.3971   -5.2121   -0.6056 C   0  0  0  0  0  0  0  0  0  0  0  0
   17.0707   -4.5631   -0.0534 H   0  0  0  0  0  0  0  0  0  0  0  0
   16.7332   -6.5582   -0.8037 C   0  0  0  0  0  0  0  0  0  0  0  0
   17.6676   -6.9498   -0.4128 H   0  0  0  0  0  0  0  0  0  0  0  0
   15.8547   -7.4060   -1.4827 C   0  0  0  0  0  0  0  0  0  0  0  0
   16.1013   -8.4560   -1.6164 H   0  0  0  0  0  0  0  0  0  0  0  0
   14.6436   -6.9016   -1.9660 C   0  0  0  0  0  0  0  0  0  0  0  0
   13.9618   -7.5674   -2.4871 H   0  0  0  0  0  0  0  0  0  0  0  0
   14.3059   -5.5524   -1.7599 C   0  0  0  0  0  0  0  0  0  0  0  0
   13.3514   -5.1801   -2.1193 H   0  0  0  0  0  0  0  0  0  0  0  0
   13.2905   -2.9993   -0.5901 C   0  0  0  0  0  0  0  0  0  0  0  0
   12.3908   -3.1388   -1.4121 O   0  0  0  0  0  0  0  0  0  0  0  0
   13.0382   -2.6954    0.7192 N   0  0  0  0  0  0  0  0  0  0  0  0
   11.7727   -2.6070    1.2354 C   0  0  0  0  0  0  0  0  0  0  0  0
   10.7174   -2.2178    0.5895 N   0  0  0  0  0  0  0  0  0  0  0  0
    9.6794   -2.2894    1.4853 N   0  0  0  0  0  0  0  0  0  0  0  0
   10.0649   -2.7455    2.6305 N   0  0  0  0  0  0  0  0  0  0  0  0
   11.3911   -2.9454    2.4911 N   0  0  0  0  0  0  0  0  0  0  0  0
   12.0068   -3.3803    3.1770 H   0  0  0  0  0  0  0  0  0  0  0  0
   14.2183   -2.6861    1.4010 C   0  0  0  0  0  0  0  0  0  0  0  0
   14.3767   -2.4405    2.7326 N   0  0  0  0  0  0  0  0  0  0  0  0
   13.6217   -1.9612    3.2183 H   0  0  0  0  0  0  0  0  0  0  0  0
   15.3313   -2.3084    3.0657 H   0  0  0  0  0  0  0  0  0  0  0  0
   15.2219   -2.9144    0.6222 N   0  0  0  0  0  4  0  0  0  0  0  0
   16.1923   -2.9697    0.9466 H   0  0  0  0  0  0  0  0  0  0  0  0
   15.3013   -0.8384   -1.4971 C   0  0  0  0  0  0  0  0  0  0  0  0
   14.8659   -0.4885   -0.5667 H   0  0  0  0  0  0  0  0  0  0  0  0
   15.4601    2.0052   -0.8020 C   0  0  0  0  0  0  0  0  0  0  0  0
   15.3512    1.2573   -0.0232 H   0  0  0  0  0  0  0  0  0  0  0  0
   15.3897    3.3792   -0.5590 C   0  0  0  0  0  0  0  0  0  0  0  0
   15.1852    3.7658    0.4307 H   0  0  0  0  0  0  0  0  0  0  0  0
  1  2  1  0
  2  3  2  0
  3  4  1  0
  4  5  1  0
  4  6  2  0
  6  7  1  0
  7  8  2  0
  8  9  1  0
  8 10  1  0
 10 11  1  0
 10 12  2  0
 12 13  1  0
 12 14  1  0
 15 14  1  6
 15 16  1  0
 16 17  2  0
 17 18  1  0
 17 19  1  0
 19 20  1  0
 19 21  2  0
 21 22  1  0
 21 23  1  0
 23 24  1  0
 23 25  2  0
 25 26  1  0
 15 27  1  0
 27 28  2  0
 27 29  1  0
 29 30  1  0
 30 31  2  0
 31 32  1  0
 32 33  2  0
 33 34  1  0
 34 35  1  0
 29 36  1  0
 36 37  1  0
 37 38  1  0
 37 39  1  0
 36 40  2  0
 40 41  1  0
 14 42  2  0
 42 43  1  0
  6 44  1  0
 44 45  1  0
 44 46  2  0
 46 47  1  0
 46  2  1  0
 42  7  1  0
 40 15  1  0
 25 16  1  0
 34 30  1  0
M  CHG  1  40   1
M  END
>  <score>  (36) 
5.94209

$$$$

     RDKit          3D

 58 62  0  0  0  0  0  0  0  0999 V2000
   15.5217    5.3126   -1.4208 H   0  0  0  0  0  0  0  0  0  0  0  0
   15.5830    4.2458   -1.6168 C   0  0  0  0  0  0  0  0  0  0  0  0
   15.8397    3.8342   -2.8670 N   0  0  0  0  0  0  0  0  0  0  0  0
   15.9046    2.5099   -3.0979 C   0  0  0  0  0  0  0  0  0  0  0  0
   16.1085    2.1839   -4.1141 H   0  0  0  0  0  0  0  0  0  0  0  0
   15.7110    1.5443   -2.0935 C   0  0  0  0  0  0  0  0  0  0  0  0
   15.7743    0.1087   -2.3863 C   0  0  0  0  0  0  0  0  0  0  0  0
   16.3218   -0.3253   -3.5963 C   0  0  0  0  0  0  0  0  0  0  0  0
   16.6895    0.4093   -4.3076 H   0  0  0  0  0  0  0  0  0  0  0  0
   16.4068   -1.6850   -3.8834 C   0  0  0  0  0  0  0  0  0  0  0  0
   16.8372   -2.0022   -4.8269 H   0  0  0  0  0  0  0  0  0  0  0  0
   15.9408   -2.6279   -2.9609 C   0  0  0  0  0  0  0  0  0  0  0  0
   16.0029   -3.6841   -3.2023 H   0  0  0  0  0  0  0  0  0  0  0  0
   15.3920   -2.2323   -1.7315 C   0  0  0  0  0  0  0  0  0  0  0  0
   14.8474   -3.2544   -0.7313 C   0  0  2  0  0  0  0  0  0  0  0  0
   15.2185   -4.6963   -1.0432 C   0  0  0  0  0  0  0  0  0  0  0  0
   16.4392   -5.2274   -0.5951 C   0  0  0  0  0  0  0  0  0  0  0  0
   17.1326   -4.5882   -0.0550 H   0  0  0  0  0  0  0  0  0  0  0  0
   16.7556   -6.5715   -0.8084 C   0  0  0  0  0  0  0  0  0  0  0  0
   17.6901   -6.9665   -0.4224 H   0  0  0  0  0  0  0  0  0  0  0  0
   15.8621   -7.4011   -1.4911 C   0  0  0  0  0  0  0  0  0  0  0  0
   16.1003   -8.4509   -1.6395 H   0  0  0  0  0  0  0  0  0  0  0  0
   14.6557   -6.8782   -1.9681 C   0  0  0  0  0  0  0  0  0  0  0  0
   13.9590   -7.5197   -2.4971 H   0  0  0  0  0  0  0  0  0  0  0  0
   14.3360   -5.5335   -1.7477 C   0  0  0  0  0  0  0  0  0  0  0  0
   13.3868   -5.1449   -2.1079 H   0  0  0  0  0  0  0  0  0  0  0  0
   13.3302   -3.0538   -0.5709 C   0  0  0  0  0  0  0  0  0  0  0  0
   12.4831   -3.2214   -1.4513 O   0  0  0  0  0  0  0  0  0  0  0  0
   13.0435   -2.5727    0.7058 N   0  0  0  0  0  0  0  0  0  0  0  0
   11.9100   -1.7069    1.0277 N   0  0  0  0  0  0  0  0  0  0  0  0
   11.3761   -1.8458    1.8865 H   0  0  0  0  0  0  0  0  0  0  0  0
   11.6037   -0.5441    0.3336 C   0  0  0  0  0  0  0  0  0  0  0  0
   12.2502   -0.2112   -0.6472 O   0  0  0  0  0  0  0  0  0  0  0  0
   10.5166    0.1937    0.7508 N   0  0  0  0  0  0  0  0  0  0  0  0
   10.1349   -0.0854    1.6482 H   0  0  0  0  0  0  0  0  0  0  0  0
   10.3458    1.5264    0.3809 C   0  0  0  0  0  0  0  0  0  0  0  0
    9.1015    2.1390    0.5166 C   0  0  0  0  0  0  0  0  0  0  0  0
    8.2668    1.5342    0.8563 H   0  0  0  0  0  0  0  0  0  0  0  0
    8.9426    3.5002    0.2080 C   0  0  0  0  0  0  0  0  0  0  0  0
    7.9654    3.9657    0.2942 H   0  0  0  0  0  0  0  0  0  0  0  0
   10.0482    4.2341   -0.2429 C   0  0  0  0  0  0  0  0  0  0  0  0
    9.9362    5.2775   -0.5130 H   0  0  0  0  0  0  0  0  0  0  0  0
   11.3031    3.6274   -0.3784 C   0  0  0  0  0  0  0  0  0  0  0  0
   12.1624    4.1930   -0.7260 H   0  0  0  0  0  0  0  0  0  0  0  0
   11.4402    2.2682   -0.0816 C   0  0  0  0  0  0  0  0  0  0  0  0
   12.3989    1.7665   -0.1701 H   0  0  0  0  0  0  0  0  0  0  0  0
   14.2610   -2.5645    1.3857 C   0  0  0  0  0  0  0  0  0  0  0  0
   14.4861   -2.1984    2.6837 N   0  0  0  0  0  0  0  0  0  0  0  0
   13.6950   -2.1041    3.3180 H   0  0  0  0  0  0  0  0  0  0  0  0
   15.4209   -2.3500    3.0634 H   0  0  0  0  0  0  0  0  0  0  0  0
   15.2526   -2.9419    0.6501 N   0  0  0  0  0  4  0  0  0  0  0  0
   16.2133   -3.0243    0.9915 H   0  0  0  0  0  0  0  0  0  0  0  0
   15.3013   -0.8489   -1.4683 C   0  0  0  0  0  0  0  0  0  0  0  0
   14.8471   -0.5044   -0.5425 H   0  0  0  0  0  0  0  0  0  0  0  0
   15.4738    1.9845   -0.7935 C   0  0  0  0  0  0  0  0  0  0  0  0
   15.3687    1.2632    0.0122 H   0  0  0  0  0  0  0  0  0  0  0  0
   15.4013    3.3528   -0.5588 C   0  0  0  0  0  0  0  0  0  0  0  0
   15.2114    3.7270    0.4395 H   0  0  0  0  0  0  0  0  0  0  0  0
  1  2  1  0
  2  3  2  0
  3  4  1  0
  4  5  1  0
  4  6  2  0
  6  7  1  0
  7  8  2  0
  8  9  1  0
  8 10  1  0
 10 11  1  0
 10 12  2  0
 12 13  1  0
 12 14  1  0
 15 14  1  6
 15 16  1  0
 16 17  2  0
 17 18  1  0
 17 19  1  0
 19 20  1  0
 19 21  2  0
 21 22  1  0
 21 23  1  0
 23 24  1  0
 23 25  2  0
 25 26  1  0
 15 27  1  0
 27 28  2  0
 27 29  1  0
 29 30  1  0
 30 31  1  0
 30 32  1  0
 32 33  2  0
 32 34  1  0
 34 35  1  0
 34 36  1  0
 36 37  2  0
 37 38  1  0
 37 39  1  0
 39 40  1  0
 39 41  2  0
 41 42  1  0
 41 43  1  0
 43 44  1  0
 43 45  2  0
 45 46  1  0
 29 47  1  0
 47 48  1  0
 48 49  1  0
 48 50  1  0
 47 51  2  0
 51 52  1  0
 14 53  2  0
 53 54  1  0
  6 55  1  0
 55 56  1  0
 55 57  2  0
 57 58  1  0
 57  2  1  0
 53  7  1  0
 51 15  1  0
 25 16  1  0
 45 36  1  0
M  CHG  1  51   1
M  END
>  <score>  (37) 
5.93889

$$$$

     RDKit          3D

 54 58  0  0  0  0  0  0  0  0999 V2000
   15.5307    5.3220   -1.4147 H   0  0  0  0  0  0  0  0  0  0  0  0
   15.5837    4.2572   -1.6159 C   0  0  0  0  0  0  0  0  0  0  0  0
   15.8410    3.8491   -2.8678 N   0  0  0  0  0  0  0  0  0  0  0  0
   15.9003    2.5258   -3.1010 C   0  0  0  0  0  0  0  0  0  0  0  0
   16.0989    2.1939   -4.1154 H   0  0  0  0  0  0  0  0  0  0  0  0
   15.7129    1.5590   -2.0987 C   0  0  0  0  0  0  0  0  0  0  0  0
   15.7791    0.1241   -2.3973 C   0  0  0  0  0  0  0  0  0  0  0  0
   16.3280   -0.3145   -3.6060 C   0  0  0  0  0  0  0  0  0  0  0  0
   16.7042    0.4191   -4.3129 H   0  0  0  0  0  0  0  0  0  0  0  0
   16.4030   -1.6793   -3.8960 C   0  0  0  0  0  0  0  0  0  0  0  0
   16.8577   -2.0063   -4.8276 H   0  0  0  0  0  0  0  0  0  0  0  0
   15.9141   -2.6180   -2.9759 C   0  0  0  0  0  0  0  0  0  0  0  0
   15.9828   -3.6760   -3.2051 H   0  0  0  0  0  0  0  0  0  0  0  0
   15.3532   -2.2106   -1.7535 C   0  0  0  0  0  0  0  0  0  0  0  0
   14.7729   -3.2066   -0.7502 C   0  0  2  0  0  0  0  0  0  0  0  0
   15.1552   -4.6632   -1.0384 C   0  0  0  0  0  0  0  0  0  0  0  0
   16.3832   -5.1886   -0.5878 C   0  0  0  0  0  0  0  0  0  0  0  0
   17.0719   -4.5454   -0.0483 H   0  0  0  0  0  0  0  0  0  0  0  0
   16.7217   -6.5323   -0.7951 C   0  0  0  0  0  0  0  0  0  0  0  0
   17.6648   -6.9187   -0.4173 H   0  0  0  0  0  0  0  0  0  0  0  0
   15.8417   -7.3746   -1.4785 C   0  0  0  0  0  0  0  0  0  0  0  0
   16.1002   -8.4195   -1.6292 H   0  0  0  0  0  0  0  0  0  0  0  0
   14.6323   -6.8656   -1.9629 C   0  0  0  0  0  0  0  0  0  0  0  0
   13.9541   -7.5281   -2.4923 H   0  0  0  0  0  0  0  0  0  0  0  0
   14.2912   -5.5210   -1.7439 C   0  0  0  0  0  0  0  0  0  0  0  0
   13.3384   -5.1525   -2.1111 H   0  0  0  0  0  0  0  0  0  0  0  0
   13.2513   -2.9642   -0.5613 C   0  0  0  0  0  0  0  0  0  0  0  0
   12.3536   -3.0129   -1.4021 O   0  0  0  0  0  0  0  0  0  0  0  0
   13.0181   -2.6304    0.7502 N   0  0  0  0  0  0  0  0  0  0  0  0
   11.7970   -2.0915    1.2589 C   0  0  1  0  0  0  0  0  0  0  0  0
   11.8290   -1.9016    2.3437 H   0  0  0  0  0  0  0  0  0  0  0  0
   11.6675   -0.8928    0.4640 N   0  0  0  0  0  0  0  0  0  0  0  0
   12.1582   -1.0238   -0.4153 H   0  0  0  0  0  0  0  0  0  0  0  0
   10.2454   -0.6445    0.2222 C   0  0  0  0  0  0  0  0  0  0  0  0
    9.7614   -0.1963    1.0993 H   0  0  0  0  0  0  0  0  0  0  0  0
   10.0931    0.0061   -0.6415 H   0  0  0  0  0  0  0  0  0  0  0  0
    9.7237   -2.0384   -0.0224 C   0  0  0  0  0  0  0  0  0  0  0  0
    8.6592   -2.1139    0.1970 H   0  0  0  0  0  0  0  0  0  0  0  0
    9.8756   -2.3141   -1.0694 H   0  0  0  0  0  0  0  0  0  0  0  0
   10.5709   -2.9156    0.8965 C   0  0  0  0  0  0  0  0  0  0  0  0
   10.0217   -3.1733    1.8015 H   0  0  0  0  0  0  0  0  0  0  0  0
   10.8500   -3.8408    0.3976 H   0  0  0  0  0  0  0  0  0  0  0  0
   14.2256   -2.5201    1.3737 C   0  0  0  0  0  0  0  0  0  0  0  0
   14.4116   -2.1468    2.6699 N   0  0  0  0  0  0  0  0  0  0  0  0
   13.5943   -2.1758    3.2769 H   0  0  0  0  0  0  0  0  0  0  0  0
   15.3232   -2.3571    3.0697 H   0  0  0  0  0  0  0  0  0  0  0  0
   15.2103   -2.8632    0.6166 N   0  0  0  0  0  4  0  0  0  0  0  0
   16.1732   -2.9853    0.9442 H   0  0  0  0  0  0  0  0  0  0  0  0
   15.2947   -0.8297   -1.4870 C   0  0  0  0  0  0  0  0  0  0  0  0
   14.8583   -0.4838   -0.5551 H   0  0  0  0  0  0  0  0  0  0  0  0
   15.4736    1.9944   -0.7976 C   0  0  0  0  0  0  0  0  0  0  0  0
   15.3667    1.2698    0.0036 H   0  0  0  0  0  0  0  0  0  0  0  0
   15.3961    3.3628   -0.5596 C   0  0  0  0  0  0  0  0  0  0  0  0
   15.2071    3.7404    0.4378 H   0  0  0  0  0  0  0  0  0  0  0  0
  1  2  1  0
  2  3  2  0
  3  4  1  0
  4  5  1  0
  4  6  2  0
  6  7  1  0
  7  8  2  0
  8  9  1  0
  8 10  1  0
 10 11  1  0
 10 12  2  0
 12 13  1  0
 12 14  1  0
 15 14  1  6
 15 16  1  0
 16 17  2  0
 17 18  1  0
 17 19  1  0
 19 20  1  0
 19 21  2  0
 21 22  1  0
 21 23  1  0
 23 24  1  0
 23 25  2  0
 25 26  1  0
 15 27  1  0
 27 28  2  0
 27 29  1  0
 29 30  1  0
 30 31  1  1
 30 32  1  0
 32 33  1  0
 32 34  1  0
 34 35  1  0
 34 36  1  0
 34 37  1  0
 37 38  1  0
 37 39  1  0
 37 40  1  0
 40 41  1  0
 40 42  1  0
 29 43  1  0
 43 44  1  0
 44 45  1  0
 44 46  1  0
 43 47  2  0
 47 48  1  0
 14 49  2  0
 49 50  1  0
  6 51  1  0
 51 52  1  0
 51 53  2  0
 53 54  1  0
 53  2  1  0
 49  7  1  0
 47 15  1  0
 25 16  1  0
 40 30  1  0
M  CHG  1  47   1
M  END
>  <score>  (38) 
5.93816

$$$$

     RDKit          3D

 61 65  0  0  0  0  0  0  0  0999 V2000
   15.5335    5.3385   -1.4096 H   0  0  0  0  0  0  0  0  0  0  0  0
   15.5954    4.2727   -1.6079 C   0  0  0  0  0  0  0  0  0  0  0  0
   15.8425    3.8611   -2.8602 N   0  0  0  0  0  0  0  0  0  0  0  0
   15.9180    2.5380   -3.0943 C   0  0  0  0  0  0  0  0  0  0  0  0
   16.1112    2.2091   -4.1107 H   0  0  0  0  0  0  0  0  0  0  0  0
   15.7487    1.5657   -2.0950 C   0  0  0  0  0  0  0  0  0  0  0  0
   15.8398    0.1281   -2.4126 C   0  0  0  0  0  0  0  0  0  0  0  0
   16.3695   -0.3095   -3.6352 C   0  0  0  0  0  0  0  0  0  0  0  0
   16.7227    0.4208   -4.3547 H   0  0  0  0  0  0  0  0  0  0  0  0
   16.4522   -1.6745   -3.9353 C   0  0  0  0  0  0  0  0  0  0  0  0
   16.8585   -1.9971   -4.8878 H   0  0  0  0  0  0  0  0  0  0  0  0
   16.0031   -2.6227   -3.0128 C   0  0  0  0  0  0  0  0  0  0  0  0
   16.0470   -3.6818   -3.2505 H   0  0  0  0  0  0  0  0  0  0  0  0
   15.4756   -2.2137   -1.7820 C   0  0  0  0  0  0  0  0  0  0  0  0
   14.8935   -3.2085   -0.8004 C   0  0  2  0  0  0  0  0  0  0  0  0
   15.2486   -4.6657   -1.0679 C   0  0  0  0  0  0  0  0  0  0  0  0
   16.4547   -5.1995   -0.5941 C   0  0  0  0  0  0  0  0  0  0  0  0
   17.1414   -4.5591   -0.0487 H   0  0  0  0  0  0  0  0  0  0  0  0
   16.7714   -6.5467   -0.7956 C   0  0  0  0  0  0  0  0  0  0  0  0
   17.7050   -6.9407   -0.4058 H   0  0  0  0  0  0  0  0  0  0  0  0
   15.8833   -7.3822   -1.4805 C   0  0  0  0  0  0  0  0  0  0  0  0
   16.1253   -8.4307   -1.6286 H   0  0  0  0  0  0  0  0  0  0  0  0
   14.6781   -6.8648   -1.9646 C   0  0  0  0  0  0  0  0  0  0  0  0
   13.9804   -7.5119   -2.4879 H   0  0  0  0  0  0  0  0  0  0  0  0
   14.3647   -5.5161   -1.7616 C   0  0  0  0  0  0  0  0  0  0  0  0
   13.4183   -5.1366   -2.1353 H   0  0  0  0  0  0  0  0  0  0  0  0
   13.3766   -3.0192   -0.7723 C   0  0  0  0  0  0  0  0  0  0  0  0
   12.6131   -3.2045   -1.7216 O   0  0  0  0  0  0  0  0  0  0  0  0
   12.9802   -2.6990    0.5089 N   0  0  0  0  0  0  0  0  0  0  0  0
   11.6269   -2.8995    0.9309 N   0  0  0  0  0  0  0  0  0  0  0  0
   11.3920   -3.8684    2.0196 C   0  0  0  0  0  0  0  0  0  0  0  0
   11.7497   -3.4562    2.9682 H   0  0  0  0  0  0  0  0  0  0  0  0
   11.9575   -4.7842    1.8238 H   0  0  0  0  0  0  0  0  0  0  0  0
    9.8889   -4.1853    2.1059 C   0  0  0  0  0  0  0  0  0  0  0  0
    9.5924   -4.7795    1.2335 H   0  0  0  0  0  0  0  0  0  0  0  0
    9.6916   -4.7966    2.9941 H   0  0  0  0  0  0  0  0  0  0  0  0
    9.1133   -2.9318    2.1058 N   0  0  0  0  0  0  0  0  0  0  0  0
    8.7328   -2.3250    3.2999 C   0  0  0  0  0  0  0  0  0  0  0  0
    8.2832   -1.1820    3.2765 O   0  0  0  0  0  0  0  0  0  0  0  0
    8.6863   -3.1252    4.5922 C   0  0  0  0  0  0  0  0  0  0  0  0
    9.3730   -3.9698    4.5554 H   0  0  0  0  0  0  0  0  0  0  0  0
    8.9875   -2.4980    5.4364 H   0  0  0  0  0  0  0  0  0  0  0  0
    7.6630   -3.4998    4.7280 H   0  0  0  0  0  0  0  0  0  0  0  0
    9.2948   -2.0848    0.9199 C   0  0  0  0  0  0  0  0  0  0  0  0
    8.6801   -1.1720    0.9720 H   0  0  0  0  0  0  0  0  0  0  0  0
    9.0170   -2.6083   -0.0000 H   0  0  0  0  0  0  0  0  0  0  0  0
   10.7683   -1.7015    0.8934 C   0  0  0  0  0  0  0  0  0  0  0  0
   10.9886   -1.1088    0.0024 H   0  0  0  0  0  0  0  0  0  0  0  0
   10.9753   -1.1004    1.7712 H   0  0  0  0  0  0  0  0  0  0  0  0
   14.1389   -2.6417    1.2873 C   0  0  0  0  0  0  0  0  0  0  0  0
   14.2557   -2.4367    2.6399 N   0  0  0  0  0  0  0  0  0  0  0  0
   15.1940   -2.2652    3.0059 H   0  0  0  0  0  0  0  0  0  0  0  0
   13.4552   -2.0474    3.1351 H   0  0  0  0  0  0  0  0  0  0  0  0
   15.2122   -2.8524    0.5963 N   0  0  0  0  0  4  0  0  0  0  0  0
   16.1403   -2.9822    1.0111 H   0  0  0  0  0  0  0  0  0  0  0  0
   15.3902   -0.8380   -1.5026 C   0  0  0  0  0  0  0  0  0  0  0  0
   14.9472   -0.5124   -0.5657 H   0  0  0  0  0  0  0  0  0  0  0  0
   15.5002    2.0049   -0.7915 C   0  0  0  0  0  0  0  0  0  0  0  0
   15.3901    1.2861    0.0157 H   0  0  0  0  0  0  0  0  0  0  0  0
   15.4190    3.3756   -0.5528 C   0  0  0  0  0  0  0  0  0  0  0  0
   15.2249    3.7538    0.4430 H   0  0  0  0  0  0  0  0  0  0  0  0
  1  2  1  0
  2  3  2  0
  3  4  1  0
  4  5  1  0
  4  6  2  0
  6  7  1  0
  7  8  2  0
  8  9  1  0
  8 10  1  0
 10 11  1  0
 10 12  2  0
 12 13  1  0
 12 14  1  0
 15 14  1  6
 15 16  1  0
 16 17  2  0
 17 18  1  0
 17 19  1  0
 19 20  1  0
 19 21  2  0
 21 22  1  0
 21 23  1  0
 23 24  1  0
 23 25  2  0
 25 26  1  0
 15 27  1  0
 27 28  2  0
 27 29  1  0
 29 30  1  0
 30 31  1  0
 31 32  1  0
 31 33  1  0
 31 34  1  0
 34 35  1  0
 34 36  1  0
 34 37  1  0
 37 38  1  0
 38 39  2  0
 38 40  1  0
 40 41  1  0
 40 42  1  0
 40 43  1  0
 37 44  1  0
 44 45  1  0
 44 46  1  0
 44 47  1  0
 47 48  1  0
 47 49  1  0
 29 50  1  0
 50 51  1  0
 51 52  1  0
 51 53  1  0
 50 54  2  0
 54 55  1  0
 14 56  2  0
 56 57  1  0
  6 58  1  0
 58 59  1  0
 58 60  2  0
 60 61  1  0
 60  2  1  0
 56  7  1  0
 54 15  1  0
 25 16  1  0
 47 30  1  0
M  CHG  1  54   1
M  END
>  <score>  (39) 
5.93159

$$$$

     RDKit          3D

 54 57  0  0  0  0  0  0  0  0999 V2000
   15.5692    5.3721   -1.3874 H   0  0  0  0  0  0  0  0  0  0  0  0
   15.5835    4.3030   -1.5957 C   0  0  0  0  0  0  0  0  0  0  0  0
   15.8192    3.8808   -2.8480 N   0  0  0  0  0  0  0  0  0  0  0  0
   15.8642    2.5528   -3.0880 C   0  0  0  0  0  0  0  0  0  0  0  0
   16.0470    2.2230   -4.1053 H   0  0  0  0  0  0  0  0  0  0  0  0
   15.6862    1.5710   -2.0963 C   0  0  0  0  0  0  0  0  0  0  0  0
   15.7710    0.1189   -2.4109 C   0  0  0  0  0  0  0  0  0  0  0  0
   16.3476   -0.3212   -3.6110 C   0  0  0  0  0  0  0  0  0  0  0  0
   16.7243    0.4094   -4.3200 H   0  0  0  0  0  0  0  0  0  0  0  0
   16.4325   -1.6894   -3.9085 C   0  0  0  0  0  0  0  0  0  0  0  0
   16.8648   -2.0075   -4.8526 H   0  0  0  0  0  0  0  0  0  0  0  0
   15.9450   -2.6450   -3.0053 C   0  0  0  0  0  0  0  0  0  0  0  0
   16.0041   -3.7015   -3.2566 H   0  0  0  0  0  0  0  0  0  0  0  0
   15.3771   -2.2440   -1.7834 C   0  0  0  0  0  0  0  0  0  0  0  0
   14.8105   -3.2523   -0.7822 C   0  0  2  0  0  0  0  0  0  0  0  0
   15.1732   -4.7156   -1.0731 C   0  0  0  0  0  0  0  0  0  0  0  0
   16.3921   -5.2373   -0.6101 C   0  0  0  0  0  0  0  0  0  0  0  0
   17.0664   -4.5856   -0.0631 H   0  0  0  0  0  0  0  0  0  0  0  0
   16.7297   -6.5814   -0.8034 C   0  0  0  0  0  0  0  0  0  0  0  0
   17.6719   -6.9565   -0.4165 H   0  0  0  0  0  0  0  0  0  0  0  0
   15.8536   -7.4394   -1.4728 C   0  0  0  0  0  0  0  0  0  0  0  0
   16.1204   -8.4853   -1.6116 H   0  0  0  0  0  0  0  0  0  0  0  0
   14.6429   -6.9381   -1.9617 C   0  0  0  0  0  0  0  0  0  0  0  0
   13.9722   -7.6114   -2.4879 H   0  0  0  0  0  0  0  0  0  0  0  0
   14.3038   -5.5873   -1.7671 C   0  0  0  0  0  0  0  0  0  0  0  0
   13.3535   -5.2304   -2.1543 H   0  0  0  0  0  0  0  0  0  0  0  0
   13.2956   -3.0394   -0.5893 C   0  0  0  0  0  0  0  0  0  0  0  0
   12.4281   -3.1082   -1.4567 O   0  0  0  0  0  0  0  0  0  0  0  0
   13.0161   -2.6680    0.7090 N   0  0  0  0  0  0  0  0  0  0  0  0
   11.6846   -2.5624    1.3154 C   0  0  0  0  0  0  0  0  0  0  0  0
   10.9413   -2.2660    0.5664 H   0  0  0  0  0  0  0  0  0  0  0  0
   11.6806   -1.7919    2.0914 H   0  0  0  0  0  0  0  0  0  0  0  0
   11.2921   -3.9084    1.9170 C   0  0  0  0  0  0  0  0  0  0  0  0
   11.3795   -4.6762    1.1459 H   0  0  0  0  0  0  0  0  0  0  0  0
   11.9901   -4.1676    2.7157 H   0  0  0  0  0  0  0  0  0  0  0  0
    9.8591   -3.9221    2.4651 C   0  0  0  0  0  0  0  0  0  0  0  0
    9.5783   -4.9525    2.6996 H   0  0  0  0  0  0  0  0  0  0  0  0
    9.1684   -3.5624    1.7001 H   0  0  0  0  0  0  0  0  0  0  0  0
    9.7027   -3.0793    3.7288 C   0  0  0  0  0  0  0  0  0  0  0  0
    8.6974   -3.2015    4.1464 H   0  0  0  0  0  0  0  0  0  0  0  0
   10.4268   -3.3903    4.4835 H   0  0  0  0  0  0  0  0  0  0  0  0
    9.8660   -2.0214    3.5136 H   0  0  0  0  0  0  0  0  0  0  0  0
   14.2199   -2.6329    1.3680 C   0  0  0  0  0  0  0  0  0  0  0  0
   14.3957   -2.3506    2.6906 N   0  0  0  0  0  0  0  0  0  0  0  0
   13.5826   -2.1479    3.2672 H   0  0  0  0  0  0  0  0  0  0  0  0
   15.3365   -2.3485    3.0868 H   0  0  0  0  0  0  0  0  0  0  0  0
   15.2163   -2.8963    0.5931 N   0  0  0  0  0  4  0  0  0  0  0  0
   16.1845   -2.9132    0.9081 H   0  0  0  0  0  0  0  0  0  0  0  0
   15.2963   -0.8584   -1.5155 C   0  0  0  0  0  0  0  0  0  0  0  0
   14.8698   -0.5271   -0.5759 H   0  0  0  0  0  0  0  0  0  0  0  0
   15.4366    2.0246   -0.7974 C   0  0  0  0  0  0  0  0  0  0  0  0
   15.2993    1.3064    0.0022 H   0  0  0  0  0  0  0  0  0  0  0  0
   15.3728    3.4010   -0.5513 C   0  0  0  0  0  0  0  0  0  0  0  0
   15.1681    3.7871    0.4409 H   0  0  0  0  0  0  0  0  0  0  0  0
  1  2  1  0
  2  3  2  0
  3  4  1  0
  4  5  1  0
  4  6  2  0
  6  7  1  0
  7  8  2  0
  8  9  1  0
  8 10  1  0
 10 11  1  0
 10 12  2  0
 12 13  1  0
 12 14  1  0
 15 14  1  6
 15 16  1  0
 16 17  2  0
 17 18  1  0
 17 19  1  0
 19 20  1  0
 19 21  2  0
 21 22  1  0
 21 23  1  0
 23 24  1  0
 23 25  2  0
 25 26  1  0
 15 27  1  0
 27 28  2  0
 27 29  1  0
 29 30  1  0
 30 31  1  0
 30 32  1  0
 30 33  1  0
 33 34  1  0
 33 35  1  0
 33 36  1  0
 36 37  1  0
 36 38  1  0
 36 39  1  0
 39 40  1  0
 39 41  1  0
 39 42  1  0
 29 43  1  0
 43 44  1  0
 44 45  1  0
 44 46  1  0
 43 47  2  0
 47 48  1  0
 14 49  2  0
 49 50  1  0
  6 51  1  0
 51 52  1  0
 51 53  2  0
 53 54  1  0
 53  2  1  0
 49  7  1  0
 47 15  1  0
 25 16  1  0
M  CHG  1  47   1
M  END
>  <score>  (40) 
5.92266

$$$$

     RDKit          3D

 63 67  0  0  0  0  0  0  0  0999 V2000
   15.5567    5.3564   -1.3924 H   0  0  0  0  0  0  0  0  0  0  0  0
   15.5863    4.2892   -1.6034 C   0  0  0  0  0  0  0  0  0  0  0  0
   15.8209    3.8711   -2.8576 N   0  0  0  0  0  0  0  0  0  0  0  0
   15.8760    2.5442   -3.0927 C   0  0  0  0  0  0  0  0  0  0  0  0
   16.0668    2.2035   -4.1046 H   0  0  0  0  0  0  0  0  0  0  0  0
   15.6944    1.5693   -2.0976 C   0  0  0  0  0  0  0  0  0  0  0  0
   15.7733    0.1226   -2.4093 C   0  0  0  0  0  0  0  0  0  0  0  0
   16.3340   -0.3166   -3.6127 C   0  0  0  0  0  0  0  0  0  0  0  0
   16.7136    0.4271   -4.3052 H   0  0  0  0  0  0  0  0  0  0  0  0
   16.4251   -1.6844   -3.9082 C   0  0  0  0  0  0  0  0  0  0  0  0
   16.8639   -2.0040   -4.8463 H   0  0  0  0  0  0  0  0  0  0  0  0
   15.9432   -2.6362   -3.0017 C   0  0  0  0  0  0  0  0  0  0  0  0
   16.0006   -3.6951   -3.2409 H   0  0  0  0  0  0  0  0  0  0  0  0
   15.3788   -2.2316   -1.7822 C   0  0  0  0  0  0  0  0  0  0  0  0
   14.8222   -3.2399   -0.7793 C   0  0  2  0  0  0  0  0  0  0  0  0
   15.1844   -4.7026   -1.0734 C   0  0  0  0  0  0  0  0  0  0  0  0
   16.4010   -5.2275   -0.6062 C   0  0  0  0  0  0  0  0  0  0  0  0
   17.0747   -4.5761   -0.0577 H   0  0  0  0  0  0  0  0  0  0  0  0
   16.7367   -6.5729   -0.8032 C   0  0  0  0  0  0  0  0  0  0  0  0
   17.6733   -6.9590   -0.4125 H   0  0  0  0  0  0  0  0  0  0  0  0
   15.8579   -7.4238   -1.4787 C   0  0  0  0  0  0  0  0  0  0  0  0
   16.1087   -8.4725   -1.6142 H   0  0  0  0  0  0  0  0  0  0  0  0
   14.6466   -6.9220   -1.9642 C   0  0  0  0  0  0  0  0  0  0  0  0
   13.9648   -7.5877   -2.4869 H   0  0  0  0  0  0  0  0  0  0  0  0
   14.3131   -5.5709   -1.7656 C   0  0  0  0  0  0  0  0  0  0  0  0
   13.3601   -5.2007   -2.1326 H   0  0  0  0  0  0  0  0  0  0  0  0
   13.3032   -3.0328   -0.5995 C   0  0  0  0  0  0  0  0  0  0  0  0
   12.4402   -3.1481   -1.4632 O   0  0  0  0  0  0  0  0  0  0  0  0
   13.0244   -2.6414    0.6955 N   0  0  0  0  0  0  0  0  0  0  0  0
   11.6882   -2.6020    1.3246 C   0  0  0  0  0  0  0  0  0  0  0  0
   11.6730   -1.8589    2.1304 H   0  0  0  0  0  0  0  0  0  0  0  0
   10.9168   -2.3072    0.6019 H   0  0  0  0  0  0  0  0  0  0  0  0
   11.3222   -3.9745    1.8991 C   0  0  0  0  0  0  0  0  0  0  0  0
   11.3508   -4.7176    1.0909 H   0  0  0  0  0  0  0  0  0  0  0  0
   12.0726   -4.2539    2.6486 H   0  0  0  0  0  0  0  0  0  0  0  0
    9.9784   -3.9827    2.5183 N   0  0  0  0  0  0  0  0  0  0  0  0
    8.8316   -3.7960    1.6164 C   0  0  0  0  0  0  0  0  0  0  0  0
    8.6799   -2.7323    1.4052 H   0  0  0  0  0  0  0  0  0  0  0  0
    8.9834   -4.3201    0.6629 H   0  0  0  0  0  0  0  0  0  0  0  0
    7.6377   -4.3978    2.3560 C   0  0  0  0  0  0  0  0  0  0  0  0
    6.8695   -3.6441    2.5586 H   0  0  0  0  0  0  0  0  0  0  0  0
    7.1965   -5.1921    1.7452 H   0  0  0  0  0  0  0  0  0  0  0  0
    8.1873   -4.9727    3.6657 C   0  0  0  0  0  0  0  0  0  0  0  0
    7.7523   -5.9531    3.8906 H   0  0  0  0  0  0  0  0  0  0  0  0
    7.9669   -4.2912    4.4941 H   0  0  0  0  0  0  0  0  0  0  0  0
    9.6976   -5.0606    3.4813 C   0  0  1  0  0  0  0  0  0  0  0  0
   10.2216   -4.9029    4.4334 H   0  0  0  0  0  0  0  0  0  0  0  0
   10.1069   -6.4175    2.9106 C   0  0  0  0  0  0  0  0  0  0  0  0
    9.6751   -6.5439    1.9129 H   0  0  0  0  0  0  0  0  0  0  0  0
    9.7630   -7.2324    3.5589 H   0  0  0  0  0  0  0  0  0  0  0  0
   11.1983   -6.4594    2.8301 H   0  0  0  0  0  0  0  0  0  0  0  0
   14.2344   -2.6140    1.3598 C   0  0  0  0  0  0  0  0  0  0  0  0
   14.3999   -2.3551    2.6853 N   0  0  0  0  0  0  0  0  0  0  0  0
   15.3416   -2.3411    3.0810 H   0  0  0  0  0  0  0  0  0  0  0  0
   13.5899   -2.1402    3.2614 H   0  0  0  0  0  0  0  0  0  0  0  0
   15.2406   -2.8874    0.5956 N   0  0  0  0  0  4  0  0  0  0  0  0
   16.2059   -2.9503    0.9290 H   0  0  0  0  0  0  0  0  0  0  0  0
   15.3039   -0.8474   -1.5068 C   0  0  0  0  0  0  0  0  0  0  0  0
   14.8694   -0.5084   -0.5722 H   0  0  0  0  0  0  0  0  0  0  0  0
   15.4456    2.0137   -0.7997 C   0  0  0  0  0  0  0  0  0  0  0  0
   15.3298    1.2783   -0.0104 H   0  0  0  0  0  0  0  0  0  0  0  0
   15.3826    3.3887   -0.5553 C   0  0  0  0  0  0  0  0  0  0  0  0
   15.1779    3.7757    0.4359 H   0  0  0  0  0  0  0  0  0  0  0  0
  1  2  1  0
  2  3  2  0
  3  4  1  0
  4  5  1  0
  4  6  2  0
  6  7  1  0
  7  8  2  0
  8  9  1  0
  8 10  1  0
 10 11  1  0
 10 12  2  0
 12 13  1  0
 12 14  1  0
 15 14  1  6
 15 16  1  0
 16 17  2  0
 17 18  1  0
 17 19  1  0
 19 20  1  0
 19 21  2  0
 21 22  1  0
 21 23  1  0
 23 24  1  0
 23 25  2  0
 25 26  1  0
 15 27  1  0
 27 28  2  0
 27 29  1  0
 29 30  1  0
 30 31  1  0
 30 32  1  0
 30 33  1  0
 33 34  1  0
 33 35  1  0
 33 36  1  0
 36 37  1  0
 37 38  1  0
 37 39  1  0
 37 40  1  0
 40 41  1  0
 40 42  1  0
 40 43  1  0
 43 44  1  0
 43 45  1  0
 43 46  1  0
 46 47  1  1
 46 48  1  0
 48 49  1  0
 48 50  1  0
 48 51  1  0
 29 52  1  0
 52 53  1  0
 53 54  1  0
 53 55  1  0
 52 56  2  0
 56 57  1  0
 14 58  2  0
 58 59  1  0
  6 60  1  0
 60 61  1  0
 60 62  2  0
 62 63  1  0
 62  2  1  0
 58  7  1  0
 56 15  1  0
 25 16  1  0
 46 36  1  0
M  CHG  1  56   1
M  END
>  <score>  (41) 
5.9159

$$$$

     RDKit          3D

 44 47  0  0  0  0  0  0  0  0999 V2000
   11.6879   -2.0136    2.2678 H   0  0  0  0  0  0  0  0  0  0  0  0
   11.8060   -2.3332    1.2365 C   0  0  0  0  0  0  0  0  0  0  0  0
   10.8094   -2.4016    0.5340 O   0  0  0  0  0  0  0  0  0  0  0  0
   13.0318   -2.6613    0.7126 N   0  0  0  0  0  0  0  0  0  0  0  0
   13.2798   -3.0242   -0.5872 C   0  0  0  0  0  0  0  0  0  0  0  0
   12.3950   -3.0709   -1.4364 O   0  0  0  0  0  0  0  0  0  0  0  0
   14.7914   -3.2530   -0.7831 C   0  0  1  0  0  0  0  0  0  0  0  0
   15.1611   -4.7175   -1.0673 C   0  0  0  0  0  0  0  0  0  0  0  0
   16.3847   -5.2378   -0.6081 C   0  0  0  0  0  0  0  0  0  0  0  0
   17.0682   -4.5905   -0.0664 H   0  0  0  0  0  0  0  0  0  0  0  0
   16.7276   -6.5822   -0.8011 C   0  0  0  0  0  0  0  0  0  0  0  0
   17.6738   -6.9553   -0.4183 H   0  0  0  0  0  0  0  0  0  0  0  0
   15.8542   -7.4427   -1.4709 C   0  0  0  0  0  0  0  0  0  0  0  0
   16.1234   -8.4878   -1.6111 H   0  0  0  0  0  0  0  0  0  0  0  0
   14.6434   -6.9428   -1.9612 C   0  0  0  0  0  0  0  0  0  0  0  0
   13.9727   -7.6162   -2.4885 H   0  0  0  0  0  0  0  0  0  0  0  0
   14.3003   -5.5924   -1.7673 C   0  0  0  0  0  0  0  0  0  0  0  0
   13.3522   -5.2395   -2.1620 H   0  0  0  0  0  0  0  0  0  0  0  0
   15.3709   -2.2474   -1.7826 C   0  0  0  0  0  0  0  0  0  0  0  0
   15.9428   -2.6466   -3.0049 C   0  0  0  0  0  0  0  0  0  0  0  0
   16.0059   -3.7013   -3.2624 H   0  0  0  0  0  0  0  0  0  0  0  0
   16.4316   -1.6916   -3.9096 C   0  0  0  0  0  0  0  0  0  0  0  0
   16.8671   -2.0076   -4.8546 H   0  0  0  0  0  0  0  0  0  0  0  0
   16.3493   -0.3237   -3.6129 C   0  0  0  0  0  0  0  0  0  0  0  0
   16.7299    0.3998   -4.3277 H   0  0  0  0  0  0  0  0  0  0  0  0
   15.7737    0.1178   -2.4100 C   0  0  0  0  0  0  0  0  0  0  0  0
   15.6838    1.5721   -2.0944 C   0  0  0  0  0  0  0  0  0  0  0  0
   15.8618    2.5551   -3.0865 C   0  0  0  0  0  0  0  0  0  0  0  0
   16.0399    2.2338   -4.1074 H   0  0  0  0  0  0  0  0  0  0  0  0
   15.8208    3.8823   -2.8455 N   0  0  0  0  0  0  0  0  0  0  0  0
   15.5846    4.3041   -1.5940 C   0  0  0  0  0  0  0  0  0  0  0  0
   15.5714    5.3727   -1.3883 H   0  0  0  0  0  0  0  0  0  0  0  0
   15.3688    3.4043   -0.5499 C   0  0  0  0  0  0  0  0  0  0  0  0
   15.1672    3.7884    0.4436 H   0  0  0  0  0  0  0  0  0  0  0  0
   15.4290    2.0288   -0.7953 C   0  0  0  0  0  0  0  0  0  0  0  0
   15.2898    1.3193    0.0109 H   0  0  0  0  0  0  0  0  0  0  0  0
   15.2978   -0.8618   -1.5148 C   0  0  0  0  0  0  0  0  0  0  0  0
   14.8656   -0.5351   -0.5765 H   0  0  0  0  0  0  0  0  0  0  0  0
   15.1914   -2.8998    0.5952 N   0  0  0  0  0  4  0  0  0  0  0  0
   16.1547   -2.9039    0.9073 H   0  0  0  0  0  0  0  0  0  0  0  0
   14.2091   -2.6189    1.3720 C   0  0  0  0  0  0  0  0  0  0  0  0
   14.3776   -2.3280    2.6852 N   0  0  0  0  0  0  0  0  0  0  0  0
   15.3196   -2.3452    3.0699 H   0  0  0  0  0  0  0  0  0  0  0  0
   13.5676   -2.1661    3.2798 H   0  0  0  0  0  0  0  0  0  0  0  0
  1  2  1  0
  2  3  2  0
  2  4  1  0
  4  5  1  0
  5  6  2  0
  5  7  1  0
  7  8  1  6
  8  9  2  0
  9 10  1  0
  9 11  1  0
 11 12  1  0
 11 13  2  0
 13 14  1  0
 13 15  1  0
 15 16  1  0
 15 17  2  0
 17 18  1  0
  7 19  1  0
 19 20  2  0
 20 21  1  0
 20 22  1  0
 22 23  1  0
 22 24  2  0
 24 25  1  0
 24 26  1  0
 26 27  1  0
 27 28  2  0
 28 29  1  0
 28 30  1  0
 30 31  2  0
 31 32  1  0
 31 33  1  0
 33 34  1  0
 33 35  2  0
 35 36  1  0
 26 37  2  0
 37 38  1  0
  7 39  1  0
 39 40  1  0
 39 41  2  0
 41 42  1  0
 42 43  1  0
 42 44  1  0
 41  4  1  0
 17  8  1  0
 37 19  1  0
 35 27  1  0
M  CHG  1  39   1
M  END
>  <score>  (42) 
5.91327

$$$$

     RDKit          3D

 52 56  0  0  0  0  0  0  0  0999 V2000
   15.5287    5.3224   -1.4148 H   0  0  0  0  0  0  0  0  0  0  0  0
   15.5844    4.2567   -1.6161 C   0  0  0  0  0  0  0  0  0  0  0  0
   15.8398    3.8460   -2.8682 N   0  0  0  0  0  0  0  0  0  0  0  0
   15.9024    2.5221   -3.1013 C   0  0  0  0  0  0  0  0  0  0  0  0
   16.1032    2.1900   -4.1151 H   0  0  0  0  0  0  0  0  0  0  0  0
   15.7130    1.5538   -2.1011 C   0  0  0  0  0  0  0  0  0  0  0  0
   15.7753    0.1187   -2.4016 C   0  0  0  0  0  0  0  0  0  0  0  0
   16.3268   -0.3133   -3.6096 C   0  0  0  0  0  0  0  0  0  0  0  0
   16.6994    0.4266   -4.3105 H   0  0  0  0  0  0  0  0  0  0  0  0
   16.4102   -1.6761   -3.9017 C   0  0  0  0  0  0  0  0  0  0  0  0
   16.8554   -1.9954   -4.8381 H   0  0  0  0  0  0  0  0  0  0  0  0
   15.9333   -2.6208   -2.9853 C   0  0  0  0  0  0  0  0  0  0  0  0
   15.9987   -3.6788   -3.2152 H   0  0  0  0  0  0  0  0  0  0  0  0
   15.3806   -2.2184   -1.7619 C   0  0  0  0  0  0  0  0  0  0  0  0
   14.8355   -3.2292   -0.7635 C   0  0  2  0  0  0  0  0  0  0  0  0
   15.2092   -4.6802   -1.0570 C   0  0  0  0  0  0  0  0  0  0  0  0
   16.4262   -5.2095   -0.5977 C   0  0  0  0  0  0  0  0  0  0  0  0
   17.1090   -4.5663   -0.0498 H   0  0  0  0  0  0  0  0  0  0  0  0
   16.7473   -6.5558   -0.8026 C   0  0  0  0  0  0  0  0  0  0  0  0
   17.6807   -6.9491   -0.4106 H   0  0  0  0  0  0  0  0  0  0  0  0
   15.8565   -7.3912   -1.4839 C   0  0  0  0  0  0  0  0  0  0  0  0
   16.0986   -8.4403   -1.6280 H   0  0  0  0  0  0  0  0  0  0  0  0
   14.6494   -6.8740   -1.9655 C   0  0  0  0  0  0  0  0  0  0  0  0
   13.9547   -7.5256   -2.4866 H   0  0  0  0  0  0  0  0  0  0  0  0
   14.3276   -5.5273   -1.7527 C   0  0  0  0  0  0  0  0  0  0  0  0
   13.3746   -5.1470   -2.1089 H   0  0  0  0  0  0  0  0  0  0  0  0
   13.3176   -3.0324   -0.5979 C   0  0  0  0  0  0  0  0  0  0  0  0
   12.4291   -3.2980   -1.4041 O   0  0  0  0  0  0  0  0  0  0  0  0
   13.0584   -2.5675    0.6717 N   0  0  0  0  0  0  0  0  0  0  0  0
   11.7631   -2.6512    1.3092 C   0  0  0  0  0  0  0  0  0  0  0  0
   11.7059   -1.9592    2.1588 H   0  0  0  0  0  0  0  0  0  0  0  0
   10.9588   -2.3661    0.6208 H   0  0  0  0  0  0  0  0  0  0  0  0
   11.5847   -4.0272    1.7751 N   0  0  0  0  0  0  0  0  0  0  0  0
   11.2554   -5.1399    1.0132 C   0  0  0  0  0  0  0  0  0  0  0  0
   11.1960   -5.1314   -0.0690 H   0  0  0  0  0  0  0  0  0  0  0  0
   10.9956   -6.1821    1.7692 N   0  0  0  0  0  0  0  0  0  0  0  0
   11.1838   -5.7333    3.0727 C   0  0  0  0  0  0  0  0  0  0  0  0
   11.0192   -6.3238    3.9622 H   0  0  0  0  0  0  0  0  0  0  0  0
   11.5721   -4.4240    3.0906 C   0  0  0  0  0  0  0  0  0  0  0  0
   11.7977   -3.8006    3.9529 H   0  0  0  0  0  0  0  0  0  0  0  0
   14.2458   -2.6031    1.3617 C   0  0  0  0  0  0  0  0  0  0  0  0
   14.3948   -2.4265    2.7051 N   0  0  0  0  0  0  0  0  0  0  0  0
   13.5955   -2.0970    3.2431 H   0  0  0  0  0  0  0  0  0  0  0  0
   15.3387   -2.2984    3.0684 H   0  0  0  0  0  0  0  0  0  0  0  0
   15.2520   -2.8798    0.6070 N   0  0  0  0  0  4  0  0  0  0  0  0
   16.1988   -3.0242    0.9607 H   0  0  0  0  0  0  0  0  0  0  0  0
   15.2995   -0.8391   -1.4904 C   0  0  0  0  0  0  0  0  0  0  0  0
   14.8622   -0.4981   -0.5560 H   0  0  0  0  0  0  0  0  0  0  0  0
   15.4787    1.9896   -0.7998 C   0  0  0  0  0  0  0  0  0  0  0  0
   15.3727    1.2624   -0.0009 H   0  0  0  0  0  0  0  0  0  0  0  0
   15.4020    3.3595   -0.5605 C   0  0  0  0  0  0  0  0  0  0  0  0
   15.2104    3.7370    0.4367 H   0  0  0  0  0  0  0  0  0  0  0  0
  1  2  1  0
  2  3  2  0
  3  4  1  0
  4  5  1  0
  4  6  2  0
  6  7  1  0
  7  8  2  0
  8  9  1  0
  8 10  1  0
 10 11  1  0
 10 12  2  0
 12 13  1  0
 12 14  1  0
 15 14  1  6
 15 16  1  0
 16 17  2  0
 17 18  1  0
 17 19  1  0
 19 20  1  0
 19 21  2  0
 21 22  1  0
 21 23  1  0
 23 24  1  0
 23 25  2  0
 25 26  1  0
 15 27  1  0
 27 28  2  0
 27 29  1  0
 29 30  1  0
 30 31  1  0
 30 32  1  0
 30 33  1  0
 33 34  1  0
 34 35  1  0
 34 36  2  0
 36 37  1  0
 37 38  1  0
 37 39  2  0
 39 40  1  0
 29 41  1  0
 41 42  1  0
 42 43  1  0
 42 44  1  0
 41 45  2  0
 45 46  1  0
 14 47  2  0
 47 48  1  0
  6 49  1  0
 49 50  1  0
 49 51  2  0
 51 52  1  0
 51  2  1  0
 47  7  1  0
 45 15  1  0
 25 16  1  0
 39 33  1  0
M  CHG  1  45   1
M  END
>  <score>  (43) 
5.91061

$$$$

     RDKit          3D

 43 46  0  0  0  0  0  0  0  0999 V2000
   11.1443   -3.5713    1.7957 H   0  0  0  0  0  0  0  0  0  0  0  0
   11.5160   -2.3402    1.3614 S   0  0  0  0  0  0  0  0  0  0  0  0
   13.0365   -2.6545    0.6898 N   0  0  0  0  0  0  0  0  0  0  0  0
   13.2944   -3.0113   -0.6173 C   0  0  0  0  0  0  0  0  0  0  0  0
   12.4251   -3.0891   -1.4857 O   0  0  0  0  0  0  0  0  0  0  0  0
   14.8043   -3.2510   -0.7861 C   0  0  1  0  0  0  0  0  0  0  0  0
   15.1622   -4.7188   -1.0682 C   0  0  0  0  0  0  0  0  0  0  0  0
   16.3842   -5.2408   -0.6074 C   0  0  0  0  0  0  0  0  0  0  0  0
   17.0693   -4.5932   -0.0682 H   0  0  0  0  0  0  0  0  0  0  0  0
   16.7271   -6.5842   -0.7998 C   0  0  0  0  0  0  0  0  0  0  0  0
   17.6746   -6.9550   -0.4190 H   0  0  0  0  0  0  0  0  0  0  0  0
   15.8544   -7.4441   -1.4702 C   0  0  0  0  0  0  0  0  0  0  0  0
   16.1246   -8.4886   -1.6110 H   0  0  0  0  0  0  0  0  0  0  0  0
   14.6431   -6.9450   -1.9605 C   0  0  0  0  0  0  0  0  0  0  0  0
   13.9729   -7.6181   -2.4887 H   0  0  0  0  0  0  0  0  0  0  0  0
   14.2996   -5.5944   -1.7674 C   0  0  0  0  0  0  0  0  0  0  0  0
   13.3521   -5.2427   -2.1654 H   0  0  0  0  0  0  0  0  0  0  0  0
   15.3792   -2.2471   -1.7845 C   0  0  0  0  0  0  0  0  0  0  0  0
   15.9447   -2.6466   -3.0081 C   0  0  0  0  0  0  0  0  0  0  0  0
   16.0075   -3.7009   -3.2654 H   0  0  0  0  0  0  0  0  0  0  0  0
   16.4310   -1.6920   -3.9117 C   0  0  0  0  0  0  0  0  0  0  0  0
   16.8678   -2.0084   -4.8553 H   0  0  0  0  0  0  0  0  0  0  0  0
   16.3498   -0.3244   -3.6141 C   0  0  0  0  0  0  0  0  0  0  0  0
   16.7328    0.3954   -4.3311 H   0  0  0  0  0  0  0  0  0  0  0  0
   15.7747    0.1185   -2.4102 C   0  0  0  0  0  0  0  0  0  0  0  0
   15.6828    1.5734   -2.0936 C   0  0  0  0  0  0  0  0  0  0  0  0
   15.8609    2.5566   -3.0858 C   0  0  0  0  0  0  0  0  0  0  0  0
   16.0368    2.2373   -4.1079 H   0  0  0  0  0  0  0  0  0  0  0  0
   15.8218    3.8836   -2.8453 N   0  0  0  0  0  0  0  0  0  0  0  0
   15.5852    4.3045   -1.5935 C   0  0  0  0  0  0  0  0  0  0  0  0
   15.5720    5.3727   -1.3883 H   0  0  0  0  0  0  0  0  0  0  0  0
   15.3673    3.4054   -0.5499 C   0  0  0  0  0  0  0  0  0  0  0  0
   15.1668    3.7867    0.4449 H   0  0  0  0  0  0  0  0  0  0  0  0
   15.4257    2.0310   -0.7947 C   0  0  0  0  0  0  0  0  0  0  0  0
   15.2862    1.3264    0.0150 H   0  0  0  0  0  0  0  0  0  0  0  0
   15.3009   -0.8620   -1.5149 C   0  0  0  0  0  0  0  0  0  0  0  0
   14.8647   -0.5377   -0.5766 H   0  0  0  0  0  0  0  0  0  0  0  0
   15.2165   -2.9027    0.5929 N   0  0  0  0  0  4  0  0  0  0  0  0
   16.1835   -2.9039    0.9006 H   0  0  0  0  0  0  0  0  0  0  0  0
   14.2264   -2.6180    1.3675 C   0  0  0  0  0  0  0  0  0  0  0  0
   14.3942   -2.3389    2.6952 N   0  0  0  0  0  0  0  0  0  0  0  0
   15.3297   -2.3519    3.0944 H   0  0  0  0  0  0  0  0  0  0  0  0
   13.5803   -2.1324    3.2746 H   0  0  0  0  0  0  0  0  0  0  0  0
  1  2  1  0
  2  3  1  0
  3  4  1  0
  4  5  2  0
  4  6  1  0
  6  7  1  6
  7  8  2  0
  8  9  1  0
  8 10  1  0
 10 11  1  0
 10 12  2  0
 12 13  1  0
 12 14  1  0
 14 15  1  0
 14 16  2  0
 16 17  1  0
  6 18  1  0
 18 19  2  0
 19 20  1  0
 19 21  1  0
 21 22  1  0
 21 23  2  0
 23 24  1  0
 23 25  1  0
 25 26  1  0
 26 27  2  0
 27 28  1  0
 27 29  1  0
 29 30  2  0
 30 31  1  0
 30 32  1  0
 32 33  1  0
 32 34  2  0
 34 35  1  0
 25 36  2  0
 36 37  1  0
  6 38  1  0
 38 39  1  0
 38 40  2  0
 40 41  1  0
 41 42  1  0
 41 43  1  0
 40  3  1  0
 16  7  1  0
 36 18  1  0
 34 26  1  0
M  CHG  1  38   1
M  END
>  <score>  (44) 
5.9073

$$$$

     RDKit          3D

 56 60  0  0  0  0  0  0  0  0999 V2000
   15.5917    5.3306   -1.4523 H   0  0  0  0  0  0  0  0  0  0  0  0
   15.6461    4.2616   -1.6363 C   0  0  0  0  0  0  0  0  0  0  0  0
   15.8577    3.8318   -2.8889 N   0  0  0  0  0  0  0  0  0  0  0  0
   15.9161    2.5046   -3.1049 C   0  0  0  0  0  0  0  0  0  0  0  0
   16.0765    2.1593   -4.1216 H   0  0  0  0  0  0  0  0  0  0  0  0
   15.7653    1.5468   -2.0879 C   0  0  0  0  0  0  0  0  0  0  0  0
   15.8231    0.1047   -2.3911 C   0  0  0  0  0  0  0  0  0  0  0  0
   16.3366   -0.3451   -3.6154 C   0  0  0  0  0  0  0  0  0  0  0  0
   16.6952    0.3799   -4.3393 H   0  0  0  0  0  0  0  0  0  0  0  0
   16.4026   -1.7124   -3.9034 C   0  0  0  0  0  0  0  0  0  0  0  0
   16.8060   -2.0432   -4.8555 H   0  0  0  0  0  0  0  0  0  0  0  0
   15.9524   -2.6468   -2.9647 C   0  0  0  0  0  0  0  0  0  0  0  0
   15.9977   -3.7069   -3.1944 H   0  0  0  0  0  0  0  0  0  0  0  0
   15.4361   -2.2288   -1.7292 C   0  0  0  0  0  0  0  0  0  0  0  0
   14.8925   -3.2249   -0.7169 C   0  0  2  0  0  0  0  0  0  0  0  0
   15.2548   -4.6752   -1.0202 C   0  0  0  0  0  0  0  0  0  0  0  0
   16.4716   -5.2178   -0.5790 C   0  0  0  0  0  0  0  0  0  0  0  0
   17.1751   -4.5913   -0.0377 H   0  0  0  0  0  0  0  0  0  0  0  0
   16.7800   -6.5638   -0.8089 C   0  0  0  0  0  0  0  0  0  0  0  0
   17.7188   -6.9714   -0.4469 H   0  0  0  0  0  0  0  0  0  0  0  0
   15.8801   -7.3847   -1.4962 C   0  0  0  0  0  0  0  0  0  0  0  0
   16.1159   -8.4314   -1.6665 H   0  0  0  0  0  0  0  0  0  0  0  0
   14.6781   -6.8522   -1.9695 C   0  0  0  0  0  0  0  0  0  0  0  0
   13.9807   -7.4848   -2.5115 H   0  0  0  0  0  0  0  0  0  0  0  0
   14.3711   -5.5062   -1.7377 C   0  0  0  0  0  0  0  0  0  0  0  0
   13.4287   -5.1133   -2.1071 H   0  0  0  0  0  0  0  0  0  0  0  0
   13.3764   -3.0401   -0.5944 C   0  0  0  0  0  0  0  0  0  0  0  0
   12.5459   -3.2493   -1.4791 O   0  0  0  0  0  0  0  0  0  0  0  0
   13.0708   -2.5873    0.6662 N   0  0  0  0  0  0  0  0  0  0  0  0
   11.7335   -2.3481    1.1072 O   0  0  0  0  0  0  0  0  0  0  0  0
   11.1977   -1.1303    0.7499 C   0  0  0  0  0  0  0  0  0  0  0  0
    9.8416   -0.8997    1.0078 C   0  0  0  0  0  0  0  0  0  0  0  0
    9.2436   -1.7162    1.3990 H   0  0  0  0  0  0  0  0  0  0  0  0
    9.2894    0.3773    0.8300 C   0  0  0  0  0  0  0  0  0  0  0  0
    8.2456    0.5585    1.0722 H   0  0  0  0  0  0  0  0  0  0  0  0
   10.1009    1.4328    0.3932 C   0  0  0  0  0  0  0  0  0  0  0  0
    9.6829    2.4326    0.3382 H   0  0  0  0  0  0  0  0  0  0  0  0
   11.4390    1.1986    0.0443 C   0  0  0  0  0  0  0  0  0  0  0  0
   12.3516    2.3088   -0.3997 C   0  0  0  0  0  0  0  0  0  0  0  0
   12.3841    3.1054    0.3525 H   0  0  0  0  0  0  0  0  0  0  0  0
   13.3649    1.9227   -0.5472 H   0  0  0  0  0  0  0  0  0  0  0  0
   12.0078    2.7303   -1.3450 H   0  0  0  0  0  0  0  0  0  0  0  0
   11.9605   -0.0890    0.2009 C   0  0  0  0  0  0  0  0  0  0  0  0
   13.0050   -0.2603   -0.0286 H   0  0  0  0  0  0  0  0  0  0  0  0
   14.2514   -2.5779    1.4016 C   0  0  0  0  0  0  0  0  0  0  0  0
   14.4419   -2.3602    2.7412 N   0  0  0  0  0  0  0  0  0  0  0  0
   15.3966   -2.3072    3.1020 H   0  0  0  0  0  0  0  0  0  0  0  0
   13.6527   -2.1112    3.3369 H   0  0  0  0  0  0  0  0  0  0  0  0
   15.2788   -2.8589    0.6622 N   0  0  0  0  0  4  0  0  0  0  0  0
   16.2272   -2.9731    1.0273 H   0  0  0  0  0  0  0  0  0  0  0  0
   15.3663   -0.8481   -1.4662 C   0  0  0  0  0  0  0  0  0  0  0  0
   14.9408   -0.5086   -0.5269 H   0  0  0  0  0  0  0  0  0  0  0  0
   15.5660    2.0050   -0.7828 C   0  0  0  0  0  0  0  0  0  0  0  0
   15.4719    1.3007    0.0401 H   0  0  0  0  0  0  0  0  0  0  0  0
   15.4959    3.3801   -0.5634 C   0  0  0  0  0  0  0  0  0  0  0  0
   15.3318    3.7750    0.4319 H   0  0  0  0  0  0  0  0  0  0  0  0
  1  2  1  0
  2  3  2  0
  3  4  1  0
  4  5  1  0
  4  6  2  0
  6  7  1  0
  7  8  2  0
  8  9  1  0
  8 10  1  0
 10 11  1  0
 10 12  2  0
 12 13  1  0
 12 14  1  0
 15 14  1  6
 15 16  1  0
 16 17  2  0
 17 18  1  0
 17 19  1  0
 19 20  1  0
 19 21  2  0
 21 22  1  0
 21 23  1  0
 23 24  1  0
 23 25  2  0
 25 26  1  0
 15 27  1  0
 27 28  2  0
 27 29  1  0
 29 30  1  0
 30 31  1  0
 31 32  2  0
 32 33  1  0
 32 34  1  0
 34 35  1  0
 34 36  2  0
 36 37  1  0
 36 38  1  0
 38 39  1  0
 39 40  1  0
 39 41  1  0
 39 42  1  0
 38 43  2  0
 43 44  1  0
 29 45  1  0
 45 46  1  0
 46 47  1  0
 46 48  1  0
 45 49  2  0
 49 50  1  0
 14 51  2  0
 51 52  1  0
  6 53  1  0
 53 54  1  0
 53 55  2  0
 55 56  1  0
 55  2  1  0
 51  7  1  0
 49 15  1  0
 25 16  1  0
 43 31  1  0
M  CHG  1  49   1
M  END
>  <score>  (45) 
5.89972

$$$$

     RDKit          3D

 55 59  0  0  0  0  0  0  0  0999 V2000
   15.5258    5.3063   -1.3819 H   0  0  0  0  0  0  0  0  0  0  0  0
   15.5990    4.2439   -1.5949 C   0  0  0  0  0  0  0  0  0  0  0  0
   15.8435    3.8513   -2.8540 N   0  0  0  0  0  0  0  0  0  0  0  0
   15.9243    2.5310   -3.1049 C   0  0  0  0  0  0  0  0  0  0  0  0
   16.1175    2.2229   -4.1277 H   0  0  0  0  0  0  0  0  0  0  0  0
   15.7626    1.5415   -2.1168 C   0  0  0  0  0  0  0  0  0  0  0  0
   15.8619    0.1047   -2.4439 C   0  0  0  0  0  0  0  0  0  0  0  0
   16.3661   -0.3057   -3.6843 C   0  0  0  0  0  0  0  0  0  0  0  0
   16.6865    0.4427   -4.4019 H   0  0  0  0  0  0  0  0  0  0  0  0
   16.4692   -1.6633   -4.0000 C   0  0  0  0  0  0  0  0  0  0  0  0
   16.8614   -1.9560   -4.9677 H   0  0  0  0  0  0  0  0  0  0  0  0
   16.0612   -2.6332   -3.0791 C   0  0  0  0  0  0  0  0  0  0  0  0
   16.1238   -3.6849   -3.3412 H   0  0  0  0  0  0  0  0  0  0  0  0
   15.5581   -2.2582   -1.8260 C   0  0  0  0  0  0  0  0  0  0  0  0
   15.0470   -3.2947   -0.8350 C   0  0  2  0  0  0  0  0  0  0  0  0
   15.4230   -4.7400   -1.1399 C   0  0  0  0  0  0  0  0  0  0  0  0
   16.6160   -5.2971   -0.6625 C   0  0  0  0  0  0  0  0  0  0  0  0
   17.3128   -4.6736   -0.1095 H   0  0  0  0  0  0  0  0  0  0  0  0
   16.8936   -6.6561   -0.8563 C   0  0  0  0  0  0  0  0  0  0  0  0
   17.8126   -7.0751   -0.4579 H   0  0  0  0  0  0  0  0  0  0  0  0
   15.9790   -7.4754   -1.5313 C   0  0  0  0  0  0  0  0  0  0  0  0
   16.1785   -8.5360   -1.6541 H   0  0  0  0  0  0  0  0  0  0  0  0
   14.7974   -6.9274   -2.0376 C   0  0  0  0  0  0  0  0  0  0  0  0
   14.0750   -7.5534   -2.5557 H   0  0  0  0  0  0  0  0  0  0  0  0
   14.5292   -5.5691   -1.8497 C   0  0  0  0  0  0  0  0  0  0  0  0
   13.5939   -5.1640   -2.2259 H   0  0  0  0  0  0  0  0  0  0  0  0
   13.5200   -3.2107   -0.7311 C   0  0  0  0  0  0  0  0  0  0  0  0
   12.6634   -3.3141   -1.5972 O   0  0  0  0  0  0  0  0  0  0  0  0
   13.1826   -2.9955    0.5459 N   0  0  0  0  0  0  0  0  0  0  0  0
   11.7630   -2.1800    0.7263 S   0  0  0  0  0  0  0  0  0  0  0  0
   11.5542   -1.9386    2.1533 O   0  0  0  0  0  0  0  0  0  0  0  0
   10.6914   -3.0121    0.1681 O   0  0  0  0  0  0  0  0  0  0  0  0
   11.8728   -0.6285   -0.2306 C   0  0  0  0  0  0  0  0  0  0  0  0
   11.4430    0.5256    0.4292 C   0  0  0  0  0  0  0  0  0  0  0  0
   11.0938    0.5033    1.4487 H   0  0  0  0  0  0  0  0  0  0  0  0
   11.3896    1.7466   -0.2178 C   0  0  0  0  0  0  0  0  0  0  0  0
   11.0884    2.6268    0.3343 H   0  0  0  0  0  0  0  0  0  0  0  0
   11.6711    1.8340   -1.5770 C   0  0  0  0  0  0  0  0  0  0  0  0
   11.5109    2.7808   -2.0848 H   0  0  0  0  0  0  0  0  0  0  0  0
   12.0781    0.6882   -2.2757 C   0  0  0  0  0  0  0  0  0  0  0  0
   12.2734    0.7360   -3.3456 H   0  0  0  0  0  0  0  0  0  0  0  0
   12.2064   -0.5372   -1.6031 C   0  0  0  0  0  0  0  0  0  0  0  0
   12.4992   -1.4008   -2.1946 H   0  0  0  0  0  0  0  0  0  0  0  0
   14.2819   -2.6729    1.2389 C   0  0  0  0  0  0  0  0  0  0  0  0
   14.1811   -2.1575    2.4850 N   0  0  0  0  0  0  0  0  0  0  0  0
   15.0271   -2.1753    3.0541 H   0  0  0  0  0  0  0  0  0  0  0  0
   13.2802   -2.2760    2.9437 H   0  0  0  0  0  0  0  0  0  0  0  0
   15.3530   -2.9088    0.5646 N   0  0  0  0  0  4  0  0  0  0  0  0
   16.3010   -2.7424    0.9143 H   0  0  0  0  0  0  0  0  0  0  0  0
   15.4588   -0.8839   -1.5284 C   0  0  0  0  0  0  0  0  0  0  0  0
   15.0488   -0.5779   -0.5701 H   0  0  0  0  0  0  0  0  0  0  0  0
   15.5205    1.9636   -0.8074 C   0  0  0  0  0  0  0  0  0  0  0  0
   15.4205    1.2354   -0.0067 H   0  0  0  0  0  0  0  0  0  0  0  0
   15.4330    3.3307   -0.5511 C   0  0  0  0  0  0  0  0  0  0  0  0
   15.2415    3.6915    0.4521 H   0  0  0  0  0  0  0  0  0  0  0  0
  1  2  1  0
  2  3  2  0
  3  4  1  0
  4  5  1  0
  4  6  2  0
  6  7  1  0
  7  8  2  0
  8  9  1  0
  8 10  1  0
 10 11  1  0
 10 12  2  0
 12 13  1  0
 12 14  1  0
 15 14  1  6
 15 16  1  0
 16 17  2  0
 17 18  1  0
 17 19  1  0
 19 20  1  0
 19 21  2  0
 21 22  1  0
 21 23  1  0
 23 24  1  0
 23 25  2  0
 25 26  1  0
 15 27  1  0
 27 28  2  0
 27 29  1  0
 29 30  1  0
 30 31  2  0
 30 32  2  0
 30 33  1  0
 33 34  2  0
 34 35  1  0
 34 36  1  0
 36 37  1  0
 36 38  2  0
 38 39  1  0
 38 40  1  0
 40 41  1  0
 40 42  2  0
 42 43  1  0
 29 44  1  0
 44 45  1  0
 45 46  1  0
 45 47  1  0
 44 48  2  0
 48 49  1  0
 14 50  2  0
 50 51  1  0
  6 52  1  0
 52 53  1  0
 52 54  2  0
 54 55  1  0
 54  2  1  0
 50  7  1  0
 48 15  1  0
 25 16  1  0
 42 33  1  0
M  CHG  1  48   1
M  END
>  <score>  (46) 
5.89914

$$$$

     RDKit          3D

 57 60  0  0  0  0  0  0  0  0999 V2000
   15.5564    5.3565   -1.3924 H   0  0  0  0  0  0  0  0  0  0  0  0
   15.5869    4.2890   -1.6037 C   0  0  0  0  0  0  0  0  0  0  0  0
   15.8210    3.8711   -2.8580 N   0  0  0  0  0  0  0  0  0  0  0  0
   15.8764    2.5441   -3.0924 C   0  0  0  0  0  0  0  0  0  0  0  0
   16.0663    2.2050   -4.1045 H   0  0  0  0  0  0  0  0  0  0  0  0
   15.6937    1.5687   -2.0983 C   0  0  0  0  0  0  0  0  0  0  0  0
   15.7738    0.1218   -2.4090 C   0  0  0  0  0  0  0  0  0  0  0  0
   16.3330   -0.3167   -3.6131 C   0  0  0  0  0  0  0  0  0  0  0  0
   16.7131    0.4281   -4.3036 H   0  0  0  0  0  0  0  0  0  0  0  0
   16.4275   -1.6839   -3.9102 C   0  0  0  0  0  0  0  0  0  0  0  0
   16.8653   -2.0013   -4.8500 H   0  0  0  0  0  0  0  0  0  0  0  0
   15.9505   -2.6379   -3.0033 C   0  0  0  0  0  0  0  0  0  0  0  0
   16.0030   -3.6979   -3.2417 H   0  0  0  0  0  0  0  0  0  0  0  0
   15.3928   -2.2332   -1.7824 C   0  0  0  0  0  0  0  0  0  0  0  0
   14.8407   -3.2430   -0.7834 C   0  0  2  0  0  0  0  0  0  0  0  0
   15.1881   -4.7059   -1.0798 C   0  0  0  0  0  0  0  0  0  0  0  0
   16.4019   -5.2313   -0.6098 C   0  0  0  0  0  0  0  0  0  0  0  0
   17.0747   -4.5793   -0.0603 H   0  0  0  0  0  0  0  0  0  0  0  0
   16.7379   -6.5759   -0.8044 C   0  0  0  0  0  0  0  0  0  0  0  0
   17.6744   -6.9609   -0.4116 H   0  0  0  0  0  0  0  0  0  0  0  0
   15.8578   -7.4259   -1.4793 C   0  0  0  0  0  0  0  0  0  0  0  0
   16.1090   -8.4745   -1.6145 H   0  0  0  0  0  0  0  0  0  0  0  0
   14.6462   -6.9246   -1.9652 C   0  0  0  0  0  0  0  0  0  0  0  0
   13.9639   -7.5903   -2.4879 H   0  0  0  0  0  0  0  0  0  0  0  0
   14.3134   -5.5726   -1.7695 C   0  0  0  0  0  0  0  0  0  0  0  0
   13.3597   -5.2024   -2.1345 H   0  0  0  0  0  0  0  0  0  0  0  0
   13.3300   -3.0113   -0.6285 C   0  0  0  0  0  0  0  0  0  0  0  0
   12.4836   -3.1250   -1.5140 O   0  0  0  0  0  0  0  0  0  0  0  0
   13.0710   -2.6352    0.6722 N   0  0  0  0  0  0  0  0  0  0  0  0
   11.8114   -2.2025    1.1712 O   0  0  0  0  0  0  0  0  0  0  0  0
   11.0791   -3.3054    1.7195 C   0  0  0  0  0  0  0  0  0  0  0  0
   10.8627   -4.0458    0.9411 H   0  0  0  0  0  0  0  0  0  0  0  0
   11.6496   -3.7989    2.5158 H   0  0  0  0  0  0  0  0  0  0  0  0
    9.7650   -2.8146    2.2950 C   0  0  0  0  0  0  0  0  0  0  0  0
    9.9669   -2.1038    3.1042 H   0  0  0  0  0  0  0  0  0  0  0  0
    9.1991   -2.2975    1.5138 H   0  0  0  0  0  0  0  0  0  0  0  0
    8.9893   -3.9630    2.8062 N   0  0  0  0  0  0  0  0  0  0  0  0
    8.4958   -4.9090    1.7915 C   0  0  0  0  0  0  0  0  0  0  0  0
    8.0927   -4.3681    0.9283 H   0  0  0  0  0  0  0  0  0  0  0  0
    7.7010   -5.5264    2.2221 H   0  0  0  0  0  0  0  0  0  0  0  0
    9.3066   -5.5648    1.4477 H   0  0  0  0  0  0  0  0  0  0  0  0
    9.5763   -4.6115    3.9920 C   0  0  0  0  0  0  0  0  0  0  0  0
    9.9517   -3.8414    4.6686 H   0  0  0  0  0  0  0  0  0  0  0  0
    8.8178   -5.2079    4.5095 H   0  0  0  0  0  0  0  0  0  0  0  0
   10.4121   -5.2687    3.7159 H   0  0  0  0  0  0  0  0  0  0  0  0
   14.2738   -2.5987    1.3589 C   0  0  0  0  0  0  0  0  0  0  0  0
   14.4311   -2.3080    2.6886 N   0  0  0  0  0  0  0  0  0  0  0  0
   13.6141   -2.1093    3.2635 H   0  0  0  0  0  0  0  0  0  0  0  0
   15.3633   -2.3371    3.1056 H   0  0  0  0  0  0  0  0  0  0  0  0
   15.2708   -2.9093    0.5942 N   0  0  0  0  0  4  0  0  0  0  0  0
   16.2434   -2.9579    0.9101 H   0  0  0  0  0  0  0  0  0  0  0  0
   15.3094   -0.8499   -1.5061 C   0  0  0  0  0  0  0  0  0  0  0  0
   14.8670   -0.5156   -0.5731 H   0  0  0  0  0  0  0  0  0  0  0  0
   15.4446    2.0131   -0.8005 C   0  0  0  0  0  0  0  0  0  0  0  0
   15.3290    1.2769   -0.0117 H   0  0  0  0  0  0  0  0  0  0  0  0
   15.3829    3.3886   -0.5550 C   0  0  0  0  0  0  0  0  0  0  0  0
   15.1774    3.7760    0.4365 H   0  0  0  0  0  0  0  0  0  0  0  0
  1  2  1  0
  2  3  2  0
  3  4  1  0
  4  5  1  0
  4  6  2  0
  6  7  1  0
  7  8  2  0
  8  9  1  0
  8 10  1  0
 10 11  1  0
 10 12  2  0
 12 13  1  0
 12 14  1  0
 15 14  1  6
 15 16  1  0
 16 17  2  0
 17 18  1  0
 17 19  1  0
 19 20  1  0
 19 21  2  0
 21 22  1  0
 21 23  1  0
 23 24  1  0
 23 25  2  0
 25 26  1  0
 15 27  1  0
 27 28  2  0
 27 29  1  0
 29 30  1  0
 30 31  1  0
 31 32  1  0
 31 33  1  0
 31 34  1  0
 34 35  1  0
 34 36  1  0
 34 37  1  0
 37 38  1  0
 38 39  1  0
 38 40  1  0
 38 41  1  0
 37 42  1  0
 42 43  1  0
 42 44  1  0
 42 45  1  0
 29 46  1  0
 46 47  1  0
 47 48  1  0
 47 49  1  0
 46 50  2  0
 50 51  1  0
 14 52  2  0
 52 53  1  0
  6 54  1  0
 54 55  1  0
 54 56  2  0
 56 57  1  0
 56  2  1  0
 52  7  1  0
 50 15  1  0
 25 16  1  0
M  CHG  1  50   1
M  END
>  <score>  (47) 
5.89266

$$$$

     RDKit          3D

 52 55  0  0  0  0  0  0  0  0999 V2000
   15.5160    5.3168   -1.4226 H   0  0  0  0  0  0  0  0  0  0  0  0
   15.5853    4.2514   -1.6144 C   0  0  0  0  0  0  0  0  0  0  0  0
   15.8387    3.8398   -2.8652 N   0  0  0  0  0  0  0  0  0  0  0  0
   15.9109    2.5175   -3.0991 C   0  0  0  0  0  0  0  0  0  0  0  0
   16.1120    2.1921   -4.1166 H   0  0  0  0  0  0  0  0  0  0  0  0
   15.7241    1.5525   -2.0942 C   0  0  0  0  0  0  0  0  0  0  0  0
   15.7879    0.1191   -2.3984 C   0  0  0  0  0  0  0  0  0  0  0  0
   16.3338   -0.3214   -3.6090 C   0  0  0  0  0  0  0  0  0  0  0  0
   16.7022    0.4017   -4.3311 H   0  0  0  0  0  0  0  0  0  0  0  0
   16.4127   -1.6850   -3.8893 C   0  0  0  0  0  0  0  0  0  0  0  0
   16.8391   -2.0069   -4.8321 H   0  0  0  0  0  0  0  0  0  0  0  0
   15.9403   -2.6210   -2.9626 C   0  0  0  0  0  0  0  0  0  0  0  0
   15.9970   -3.6779   -3.1973 H   0  0  0  0  0  0  0  0  0  0  0  0
   15.3872   -2.2098   -1.7400 C   0  0  0  0  0  0  0  0  0  0  0  0
   14.8198   -3.2001   -0.7299 C   0  0  2  0  0  0  0  0  0  0  0  0
   15.1796   -4.6519   -1.0266 C   0  0  0  0  0  0  0  0  0  0  0  0
   16.4041   -5.1806   -0.5812 C   0  0  0  0  0  0  0  0  0  0  0  0
   17.1025   -4.5453   -0.0432 H   0  0  0  0  0  0  0  0  0  0  0  0
   16.7287   -6.5229   -0.7970 C   0  0  0  0  0  0  0  0  0  0  0  0
   17.6706   -6.9135   -0.4231 H   0  0  0  0  0  0  0  0  0  0  0  0
   15.8400   -7.3540   -1.4843 C   0  0  0  0  0  0  0  0  0  0  0  0
   16.0903   -8.3980   -1.6479 H   0  0  0  0  0  0  0  0  0  0  0  0
   14.6291   -6.8374   -1.9579 C   0  0  0  0  0  0  0  0  0  0  0  0
   13.9400   -7.4789   -2.4987 H   0  0  0  0  0  0  0  0  0  0  0  0
   14.3007   -5.4939   -1.7315 C   0  0  0  0  0  0  0  0  0  0  0  0
   13.3542   -5.1087   -2.0999 H   0  0  0  0  0  0  0  0  0  0  0  0
   13.3093   -2.9487   -0.5591 C   0  0  0  0  0  0  0  0  0  0  0  0
   12.4376   -3.1407   -1.3997 O   0  0  0  0  0  0  0  0  0  0  0  0
   13.0535   -2.5209    0.7213 N   0  0  0  0  0  0  0  0  0  0  0  0
   11.8260   -1.9098    1.1565 C   0  0  0  0  0  0  0  0  0  0  0  0
   10.9801   -2.2281    0.5319 H   0  0  0  0  0  0  0  0  0  0  0  0
   11.5878   -2.1692    2.1956 H   0  0  0  0  0  0  0  0  0  0  0  0
   12.0392   -0.4929    1.0115 N   0  0  0  0  0  0  0  0  0  0  0  0
   12.1255    0.0904    1.8401 H   0  0  0  0  0  0  0  0  0  0  0  0
   12.0388    0.1082   -0.2262 C   0  0  0  0  0  0  0  0  0  0  0  0
   12.0152   -0.5668   -1.2377 O   0  0  0  0  0  0  0  0  0  0  0  0
   11.9451    1.6110   -0.3552 C   0  0  0  0  0  0  0  0  0  0  0  0
   10.9961    1.9462    0.0717 H   0  0  0  0  0  0  0  0  0  0  0  0
   12.0213    1.8972   -1.4123 H   0  0  0  0  0  0  0  0  0  0  0  0
   12.7681    2.0746    0.1788 H   0  0  0  0  0  0  0  0  0  0  0  0
   14.2552   -2.4633    1.3767 C   0  0  0  0  0  0  0  0  0  0  0  0
   14.4298   -2.0927    2.6714 N   0  0  0  0  0  0  0  0  0  0  0  0
   15.3351   -2.3128    3.0902 H   0  0  0  0  0  0  0  0  0  0  0  0
   13.6044   -2.1103    3.2651 H   0  0  0  0  0  0  0  0  0  0  0  0
   15.2395   -2.8598    0.6411 N   0  0  0  0  0  4  0  0  0  0  0  0
   16.1951   -2.9851    0.9801 H   0  0  0  0  0  0  0  0  0  0  0  0
   15.3085   -0.8305   -1.4808 C   0  0  0  0  0  0  0  0  0  0  0  0
   14.8636   -0.4880   -0.5505 H   0  0  0  0  0  0  0  0  0  0  0  0
   15.4853    1.9903   -0.7912 C   0  0  0  0  0  0  0  0  0  0  0  0
   15.3800    1.2769    0.0212 H   0  0  0  0  0  0  0  0  0  0  0  0
   15.4100    3.3572   -0.5563 C   0  0  0  0  0  0  0  0  0  0  0  0
   15.2227    3.7247    0.4435 H   0  0  0  0  0  0  0  0  0  0  0  0
  1  2  1  0
  2  3  2  0
  3  4  1  0
  4  5  1  0
  4  6  2  0
  6  7  1  0
  7  8  2  0
  8  9  1  0
  8 10  1  0
 10 11  1  0
 10 12  2  0
 12 13  1  0
 12 14  1  0
 15 14  1  6
 15 16  1  0
 16 17  2  0
 17 18  1  0
 17 19  1  0
 19 20  1  0
 19 21  2  0
 21 22  1  0
 21 23  1  0
 23 24  1  0
 23 25  2  0
 25 26  1  0
 15 27  1  0
 27 28  2  0
 27 29  1  0
 29 30  1  0
 30 31  1  0
 30 32  1  0
 30 33  1  0
 33 34  1  0
 33 35  1  0
 35 36  2  0
 35 37  1  0
 37 38  1  0
 37 39  1  0
 37 40  1  0
 29 41  1  0
 41 42  1  0
 42 43  1  0
 42 44  1  0
 41 45  2  0
 45 46  1  0
 14 47  2  0
 47 48  1  0
  6 49  1  0
 49 50  1  0
 49 51  2  0
 51 52  1  0
 51  2  1  0
 47  7  1  0
 45 15  1  0
 25 16  1  0
M  CHG  1  45   1
M  END
>  <score>  (48) 
5.88099

$$$$

     RDKit          3D

 57 61  0  0  0  0  0  0  0  0999 V2000
   15.5370    5.3287   -1.4095 H   0  0  0  0  0  0  0  0  0  0  0  0
   15.5827    4.2634   -1.6121 C   0  0  0  0  0  0  0  0  0  0  0  0
   15.8356    3.8528   -2.8637 N   0  0  0  0  0  0  0  0  0  0  0  0
   15.8918    2.5288   -3.0987 C   0  0  0  0  0  0  0  0  0  0  0  0
   16.0912    2.1967   -4.1128 H   0  0  0  0  0  0  0  0  0  0  0  0
   15.7054    1.5596   -2.0975 C   0  0  0  0  0  0  0  0  0  0  0  0
   15.7801    0.1204   -2.3975 C   0  0  0  0  0  0  0  0  0  0  0  0
   16.3312   -0.3135   -3.6057 C   0  0  0  0  0  0  0  0  0  0  0  0
   16.7008    0.4236   -4.3119 H   0  0  0  0  0  0  0  0  0  0  0  0
   16.4103   -1.6783   -3.9028 C   0  0  0  0  0  0  0  0  0  0  0  0
   16.8557   -2.0002   -4.8398 H   0  0  0  0  0  0  0  0  0  0  0  0
   15.9365   -2.6239   -2.9833 C   0  0  0  0  0  0  0  0  0  0  0  0
   15.9986   -3.6815   -3.2198 H   0  0  0  0  0  0  0  0  0  0  0  0
   15.3947   -2.2230   -1.7525 C   0  0  0  0  0  0  0  0  0  0  0  0
   14.8340   -3.2332   -0.7569 C   0  0  2  0  0  0  0  0  0  0  0  0
   15.1969   -4.6883   -1.0546 C   0  0  0  0  0  0  0  0  0  0  0  0
   16.4141   -5.2176   -0.5989 C   0  0  0  0  0  0  0  0  0  0  0  0
   17.0961   -4.5719   -0.0548 H   0  0  0  0  0  0  0  0  0  0  0  0
   16.7405   -6.5634   -0.8014 C   0  0  0  0  0  0  0  0  0  0  0  0
   17.6782   -6.9523   -0.4139 H   0  0  0  0  0  0  0  0  0  0  0  0
   15.8544   -7.4013   -1.4844 C   0  0  0  0  0  0  0  0  0  0  0  0
   16.1015   -8.4504   -1.6250 H   0  0  0  0  0  0  0  0  0  0  0  0
   14.6473   -6.8876   -1.9693 C   0  0  0  0  0  0  0  0  0  0  0  0
   13.9570   -7.5473   -2.4882 H   0  0  0  0  0  0  0  0  0  0  0  0
   14.3185   -5.5400   -1.7538 C   0  0  0  0  0  0  0  0  0  0  0  0
   13.3657   -5.1654   -2.1168 H   0  0  0  0  0  0  0  0  0  0  0  0
   13.3147   -3.0293   -0.6176 C   0  0  0  0  0  0  0  0  0  0  0  0
   12.4838   -3.1813   -1.5152 O   0  0  0  0  0  0  0  0  0  0  0  0
   13.0201   -2.6603    0.6838 N   0  0  0  0  0  0  0  0  0  0  0  0
   11.7104   -2.3222    1.1798 N   0  0  0  0  0  0  0  0  0  0  0  0
   11.0469   -1.1891    0.6881 C   0  0  0  0  0  0  0  0  0  0  0  0
   11.8018   -0.0980    0.2536 C   0  0  0  0  0  0  0  0  0  0  0  0
   12.8798   -0.1775    0.2683 H   0  0  0  0  0  0  0  0  0  0  0  0
   11.1837    1.0789   -0.1714 C   0  0  0  0  0  0  0  0  0  0  0  0
   11.7965    1.9315   -0.4374 H   0  0  0  0  0  0  0  0  0  0  0  0
    9.7907    1.1375   -0.2501 C   0  0  0  0  0  0  0  0  0  0  0  0
    9.3209    2.0439   -0.6099 H   0  0  0  0  0  0  0  0  0  0  0  0
    9.0143    0.0381    0.1130 C   0  0  0  0  0  0  0  0  0  0  0  0
    7.9325    0.0782   -0.0041 H   0  0  0  0  0  0  0  0  0  0  0  0
    9.6455   -1.1090    0.6162 C   0  0  0  0  0  0  0  0  0  0  0  0
    9.0547   -1.9555    0.9316 H   0  0  0  0  0  0  0  0  0  0  0  0
   11.0506   -3.2326    2.1300 C   0  0  0  0  0  0  0  0  0  0  0  0
   10.4761   -2.6741    2.8725 H   0  0  0  0  0  0  0  0  0  0  0  0
   10.3795   -3.9138    1.6049 H   0  0  0  0  0  0  0  0  0  0  0  0
   11.8015   -3.8202    2.6614 H   0  0  0  0  0  0  0  0  0  0  0  0
   14.2277   -2.5964    1.3706 C   0  0  0  0  0  0  0  0  0  0  0  0
   14.4320   -2.2876    2.6890 N   0  0  0  0  0  0  0  0  0  0  0  0
   15.3785   -2.3210    3.0680 H   0  0  0  0  0  0  0  0  0  0  0  0
   13.6379   -2.0817    3.2945 H   0  0  0  0  0  0  0  0  0  0  0  0
   15.2400   -2.8931    0.6223 N   0  0  0  0  0  4  0  0  0  0  0  0
   16.2011   -2.9792    0.9592 H   0  0  0  0  0  0  0  0  0  0  0  0
   15.3094   -0.8414   -1.4865 C   0  0  0  0  0  0  0  0  0  0  0  0
   14.8665   -0.5022   -0.5560 H   0  0  0  0  0  0  0  0  0  0  0  0
   15.4645    1.9973   -0.7973 C   0  0  0  0  0  0  0  0  0  0  0  0
   15.3554    1.2699    0.0006 H   0  0  0  0  0  0  0  0  0  0  0  0
   15.3895    3.3671   -0.5586 C   0  0  0  0  0  0  0  0  0  0  0  0
   15.2000    3.7486    0.4375 H   0  0  0  0  0  0  0  0  0  0  0  0
  1  2  1  0
  2  3  2  0
  3  4  1  0
  4  5  1  0
  4  6  2  0
  6  7  1  0
  7  8  2  0
  8  9  1  0
  8 10  1  0
 10 11  1  0
 10 12  2  0
 12 13  1  0
 12 14  1  0
 15 14  1  6
 15 16  1  0
 16 17  2  0
 17 18  1  0
 17 19  1  0
 19 20  1  0
 19 21  2  0
 21 22  1  0
 21 23  1  0
 23 24  1  0
 23 25  2  0
 25 26  1  0
 15 27  1  0
 27 28  2  0
 27 29  1  0
 29 30  1  0
 30 31  1  0
 31 32  2  0
 32 33  1  0
 32 34  1  0
 34 35  1  0
 34 36  2  0
 36 37  1  0
 36 38  1  0
 38 39  1  0
 38 40  2  0
 40 41  1  0
 30 42  1  0
 42 43  1  0
 42 44  1  0
 42 45  1  0
 29 46  1  0
 46 47  1  0
 47 48  1  0
 47 49  1  0
 46 50  2  0
 50 51  1  0
 14 52  2  0
 52 53  1  0
  6 54  1  0
 54 55  1  0
 54 56  2  0
 56 57  1  0
 56  2  1  0
 52  7  1  0
 50 15  1  0
 25 16  1  0
 40 31  1  0
M  CHG  1  50   1
M  END
>  <score>  (49) 
5.87778

$$$$

     RDKit          3D

 57 60  0  0  0  0  0  0  0  0999 V2000
   15.5215    5.3288   -1.4253 H   0  0  0  0  0  0  0  0  0  0  0  0
   15.5963    4.2636   -1.6174 C   0  0  0  0  0  0  0  0  0  0  0  0
   15.8460    3.8471   -2.8674 N   0  0  0  0  0  0  0  0  0  0  0  0
   15.9292    2.5218   -3.0915 C   0  0  0  0  0  0  0  0  0  0  0  0
   16.1235    2.1902   -4.1073 H   0  0  0  0  0  0  0  0  0  0  0  0
   15.7505    1.5602   -2.0797 C   0  0  0  0  0  0  0  0  0  0  0  0
   15.8043    0.1184   -2.3722 C   0  0  0  0  0  0  0  0  0  0  0  0
   16.3206   -0.3461   -3.5869 C   0  0  0  0  0  0  0  0  0  0  0  0
   16.6842    0.3616   -4.3225 H   0  0  0  0  0  0  0  0  0  0  0  0
   16.3934   -1.7144   -3.8603 C   0  0  0  0  0  0  0  0  0  0  0  0
   16.8087   -2.0512   -4.8043 H   0  0  0  0  0  0  0  0  0  0  0  0
   15.9285   -2.6404   -2.9241 C   0  0  0  0  0  0  0  0  0  0  0  0
   15.9885   -3.7031   -3.1424 H   0  0  0  0  0  0  0  0  0  0  0  0
   15.3810   -2.2058   -1.7072 C   0  0  0  0  0  0  0  0  0  0  0  0
   14.8153   -3.1896   -0.6948 C   0  0  2  0  0  0  0  0  0  0  0  0
   15.2147   -4.6295   -0.9837 C   0  0  0  0  0  0  0  0  0  0  0  0
   16.4384   -5.1549   -0.5347 C   0  0  0  0  0  0  0  0  0  0  0  0
   17.1333   -4.5249    0.0141 H   0  0  0  0  0  0  0  0  0  0  0  0
   16.7653   -6.4950   -0.7739 C   0  0  0  0  0  0  0  0  0  0  0  0
   17.7059   -6.8927   -0.4018 H   0  0  0  0  0  0  0  0  0  0  0  0
   15.8777   -7.3231   -1.4754 C   0  0  0  0  0  0  0  0  0  0  0  0
   16.1205   -8.3673   -1.6509 H   0  0  0  0  0  0  0  0  0  0  0  0
   14.6663   -6.8021   -1.9458 C   0  0  0  0  0  0  0  0  0  0  0  0
   13.9566   -7.4237   -2.4858 H   0  0  0  0  0  0  0  0  0  0  0  0
   14.3486   -5.4652   -1.7039 C   0  0  0  0  0  0  0  0  0  0  0  0
   13.4053   -5.0712   -2.0661 H   0  0  0  0  0  0  0  0  0  0  0  0
   13.2835   -3.0339   -0.5676 C   0  0  0  0  0  0  0  0  0  0  0  0
   12.4338   -3.2674   -1.4249 O   0  0  0  0  0  0  0  0  0  0  0  0
   12.9570   -2.6952    0.7298 N   0  0  0  0  0  0  0  0  0  0  0  0
   11.6000   -2.6664    1.2941 C   0  0  0  0  0  0  0  0  0  0  0  0
   10.9463   -2.0549    0.6622 H   0  0  0  0  0  0  0  0  0  0  0  0
   11.6039   -2.1966    2.2813 H   0  0  0  0  0  0  0  0  0  0  0  0
   11.0331   -4.0806    1.4069 C   0  0  0  0  0  0  0  0  0  0  0  0
   11.1147   -4.5760    0.4360 H   0  0  0  0  0  0  0  0  0  0  0  0
    9.9710   -4.0346    1.6602 H   0  0  0  0  0  0  0  0  0  0  0  0
   11.7732   -4.8917    2.4757 C   0  0  0  0  0  0  0  0  0  0  0  0
   12.8504   -4.7186    2.3694 H   0  0  0  0  0  0  0  0  0  0  0  0
   11.4772   -6.3697    2.2536 C   0  0  0  0  0  0  0  0  0  0  0  0
   12.0474   -6.9779    2.9590 H   0  0  0  0  0  0  0  0  0  0  0  0
   11.7616   -6.6598    1.2381 H   0  0  0  0  0  0  0  0  0  0  0  0
   10.4102   -6.5690    2.3933 H   0  0  0  0  0  0  0  0  0  0  0  0
   11.3253   -4.4905    3.8848 C   0  0  0  0  0  0  0  0  0  0  0  0
   11.5100   -3.4295    4.0550 H   0  0  0  0  0  0  0  0  0  0  0  0
   11.8802   -5.0650    4.6341 H   0  0  0  0  0  0  0  0  0  0  0  0
   10.2550   -4.6793    4.0189 H   0  0  0  0  0  0  0  0  0  0  0  0
   14.1472   -2.6221    1.4317 C   0  0  0  0  0  0  0  0  0  0  0  0
   14.2471   -2.4486    2.7838 N   0  0  0  0  0  0  0  0  0  0  0  0
   15.1513   -2.1716    3.1823 H   0  0  0  0  0  0  0  0  0  0  0  0
   13.3936   -2.2268    3.2876 H   0  0  0  0  0  0  0  0  0  0  0  0
   15.1903   -2.8287    0.6921 N   0  0  0  0  0  4  0  0  0  0  0  0
   16.1089   -3.0430    1.0929 H   0  0  0  0  0  0  0  0  0  0  0  0
   15.3283   -0.8253   -1.4480 C   0  0  0  0  0  0  0  0  0  0  0  0
   14.8997   -0.4780   -0.5136 H   0  0  0  0  0  0  0  0  0  0  0  0
   15.5134    2.0062   -0.7807 C   0  0  0  0  0  0  0  0  0  0  0  0
   15.4040    1.2907    0.0304 H   0  0  0  0  0  0  0  0  0  0  0  0
   15.4326    3.3747   -0.5522 C   0  0  0  0  0  0  0  0  0  0  0  0
   15.2421    3.7470    0.4450 H   0  0  0  0  0  0  0  0  0  0  0  0
  1  2  1  0
  2  3  2  0
  3  4  1  0
  4  5  1  0
  4  6  2  0
  6  7  1  0
  7  8  2  0
  8  9  1  0
  8 10  1  0
 10 11  1  0
 10 12  2  0
 12 13  1  0
 12 14  1  0
 15 14  1  6
 15 16  1  0
 16 17  2  0
 17 18  1  0
 17 19  1  0
 19 20  1  0
 19 21  2  0
 21 22  1  0
 21 23  1  0
 23 24  1  0
 23 25  2  0
 25 26  1  0
 15 27  1  0
 27 28  2  0
 27 29  1  0
 29 30  1  0
 30 31  1  0
 30 32  1  0
 30 33  1  0
 33 34  1  0
 33 35  1  0
 33 36  1  0
 36 37  1  0
 36 38  1  0
 38 39  1  0
 38 40  1  0
 38 41  1  0
 36 42  1  0
 42 43  1  0
 42 44  1  0
 42 45  1  0
 29 46  1  0
 46 47  1  0
 47 48  1  0
 47 49  1  0
 46 50  2  0
 50 51  1  0
 14 52  2  0
 52 53  1  0
  6 54  1  0
 54 55  1  0
 54 56  2  0
 56 57  1  0
 56  2  1  0
 52  7  1  0
 50 15  1  0
 25 16  1  0
M  CHG  1  50   1
M  END
>  <score>  (50) 
5.87767

$$$$

     RDKit          3D

 56 60  0  0  0  0  0  0  0  0999 V2000
   12.3629   -3.2031    3.0821 H   0  0  0  0  0  0  0  0  0  0  0  0
   11.5340   -2.8860    2.4540 C   0  0  0  0  0  0  0  0  0  0  0  0
   11.8103   -2.4490    1.1833 C   0  0  0  0  0  0  0  0  0  0  0  0
   10.9756   -2.1733    0.5424 H   0  0  0  0  0  0  0  0  0  0  0  0
   13.1080   -2.5343    0.6606 N   0  0  0  0  0  0  0  0  0  0  0  0
   13.3896   -2.9617   -0.6236 C   0  0  0  0  0  0  0  0  0  0  0  0
   12.5416   -3.1920   -1.4906 O   0  0  0  0  0  0  0  0  0  0  0  0
   14.9019   -3.2024   -0.7542 C   0  0  1  0  0  0  0  0  0  0  0  0
   15.2422   -4.6570   -1.0465 C   0  0  0  0  0  0  0  0  0  0  0  0
   16.4543   -5.2015   -0.5944 C   0  0  0  0  0  0  0  0  0  0  0  0
   17.1583   -4.5712   -0.0579 H   0  0  0  0  0  0  0  0  0  0  0  0
   16.7564   -6.5482   -0.8078 C   0  0  0  0  0  0  0  0  0  0  0  0
   17.6921   -6.9501   -0.4327 H   0  0  0  0  0  0  0  0  0  0  0  0
   15.8553   -7.3690   -1.4922 C   0  0  0  0  0  0  0  0  0  0  0  0
   16.0895   -8.4165   -1.6543 H   0  0  0  0  0  0  0  0  0  0  0  0
   14.6505   -6.8375   -1.9631 C   0  0  0  0  0  0  0  0  0  0  0  0
   13.9476   -7.4688   -2.4977 H   0  0  0  0  0  0  0  0  0  0  0  0
   14.3464   -5.4898   -1.7422 C   0  0  0  0  0  0  0  0  0  0  0  0
   13.4045   -5.0935   -2.1099 H   0  0  0  0  0  0  0  0  0  0  0  0
   15.4589   -2.2130   -1.7578 C   0  0  0  0  0  0  0  0  0  0  0  0
   15.9869   -2.6275   -2.9880 C   0  0  0  0  0  0  0  0  0  0  0  0
   16.0352   -3.6872   -3.2204 H   0  0  0  0  0  0  0  0  0  0  0  0
   16.4318   -1.6837   -3.9169 C   0  0  0  0  0  0  0  0  0  0  0  0
   16.8372   -2.0050   -4.8695 H   0  0  0  0  0  0  0  0  0  0  0  0
   16.3487   -0.3200   -3.6243 C   0  0  0  0  0  0  0  0  0  0  0  0
   16.7008    0.4062   -4.3480 H   0  0  0  0  0  0  0  0  0  0  0  0
   15.8215    0.1208   -2.4044 C   0  0  0  0  0  0  0  0  0  0  0  0
   15.7463    1.5546   -2.0915 C   0  0  0  0  0  0  0  0  0  0  0  0
   15.9205    2.5209   -3.0945 C   0  0  0  0  0  0  0  0  0  0  0  0
   16.1205    2.1859   -4.1077 H   0  0  0  0  0  0  0  0  0  0  0  0
   15.8397    3.8439   -2.8658 N   0  0  0  0  0  0  0  0  0  0  0  0
   15.5929    4.2568   -1.6135 C   0  0  0  0  0  0  0  0  0  0  0  0
   15.5169    5.3228   -1.4228 H   0  0  0  0  0  0  0  0  0  0  0  0
   15.4259    3.3621   -0.5532 C   0  0  0  0  0  0  0  0  0  0  0  0
   15.2316    3.7320    0.4456 H   0  0  0  0  0  0  0  0  0  0  0  0
   15.5054    1.9934   -0.7884 C   0  0  0  0  0  0  0  0  0  0  0  0
   15.3945    1.2787    0.0225 H   0  0  0  0  0  0  0  0  0  0  0  0
   15.3679   -0.8367   -1.4885 C   0  0  0  0  0  0  0  0  0  0  0  0
   14.9290   -0.5043   -0.5515 H   0  0  0  0  0  0  0  0  0  0  0  0
   15.3173   -2.8703    0.6242 N   0  0  0  0  0  4  0  0  0  0  0  0
   16.2455   -3.0811    1.0028 H   0  0  0  0  0  0  0  0  0  0  0  0
   14.2971   -2.6035    1.3697 C   0  0  0  0  0  0  0  0  0  0  0  0
   14.4572   -2.4380    2.7151 N   0  0  0  0  0  0  0  0  0  0  0  0
   15.4024   -2.2337    3.0400 H   0  0  0  0  0  0  0  0  0  0  0  0
   13.6753   -2.0342    3.2289 H   0  0  0  0  0  0  0  0  0  0  0  0
   10.1647   -3.0665    2.9297 C   0  0  0  0  0  0  0  0  0  0  0  0
    9.0640   -2.9109    2.0776 C   0  0  0  0  0  0  0  0  0  0  0  0
    9.2040   -2.5716    1.0558 H   0  0  0  0  0  0  0  0  0  0  0  0
    7.7855   -3.2316    2.5290 C   0  0  0  0  0  0  0  0  0  0  0  0
    6.9525   -3.1261    1.8502 H   0  0  0  0  0  0  0  0  0  0  0  0
    7.5861   -3.7214    3.8197 C   0  0  0  0  0  0  0  0  0  0  0  0
    6.5853   -4.0041    4.1300 H   0  0  0  0  0  0  0  0  0  0  0  0
    8.6732   -3.8523    4.6860 C   0  0  0  0  0  0  0  0  0  0  0  0
    8.5069   -4.2291    5.6951 H   0  0  0  0  0  0  0  0  0  0  0  0
    9.9597   -3.5231    4.2326 C   0  0  0  0  0  0  0  0  0  0  0  0
   10.8369   -3.6710    4.8560 H   0  0  0  0  0  0  0  0  0  0  0  0
  1  2  1  0
  2  3  2  3
  3  4  1  0
  3  5  1  0
  5  6  1  0
  6  7  2  0
  6  8  1  0
  8  9  1  6
  9 10  2  0
 10 11  1  0
 10 12  1  0
 12 13  1  0
 12 14  2  0
 14 15  1  0
 14 16  1  0
 16 17  1  0
 16 18  2  0
 18 19  1  0
  8 20  1  0
 20 21  2  0
 21 22  1  0
 21 23  1  0
 23 24  1  0
 23 25  2  0
 25 26  1  0
 25 27  1  0
 27 28  1  0
 28 29  2  0
 29 30  1  0
 29 31  1  0
 31 32  2  0
 32 33  1  0
 32 34  1  0
 34 35  1  0
 34 36  2  0
 36 37  1  0
 27 38  2  0
 38 39  1  0
  8 40  1  0
 40 41  1  0
 40 42  2  0
 42 43  1  0
 43 44  1  0
 43 45  1  0
  2 46  1  0
 46 47  2  0
 47 48  1  0
 47 49  1  0
 49 50  1  0
 49 51  2  0
 51 52  1  0
 51 53  1  0
 53 54  1  0
 53 55  2  0
 55 56  1  0
 42  5  1  0
 55 46  1  0
 18  9  1  0
 38 20  1  0
 36 28  1  0
M  CHG  1  40   1
M  END
>  <score>  (51) 
5.8769

$$$$

     RDKit          3D

 55 59  0  0  0  0  0  0  0  0999 V2000
   15.5757    5.3092   -1.4038 H   0  0  0  0  0  0  0  0  0  0  0  0
   15.6416    4.2424   -1.5957 C   0  0  0  0  0  0  0  0  0  0  0  0
   15.8748    3.8248   -2.8493 N   0  0  0  0  0  0  0  0  0  0  0  0
   15.9471    2.4998   -3.0737 C   0  0  0  0  0  0  0  0  0  0  0  0
   16.1299    2.1671   -4.0909 H   0  0  0  0  0  0  0  0  0  0  0  0
   15.7887    1.5315   -2.0662 C   0  0  0  0  0  0  0  0  0  0  0  0
   15.8677    0.0907   -2.3751 C   0  0  0  0  0  0  0  0  0  0  0  0
   16.3419   -0.3393   -3.6226 C   0  0  0  0  0  0  0  0  0  0  0  0
   16.6549    0.3965   -4.3572 H   0  0  0  0  0  0  0  0  0  0  0  0
   16.4181   -1.7017   -3.9253 C   0  0  0  0  0  0  0  0  0  0  0  0
   16.7871   -2.0147   -4.8977 H   0  0  0  0  0  0  0  0  0  0  0  0
   16.0178   -2.6514   -2.9795 C   0  0  0  0  0  0  0  0  0  0  0  0
   16.0608   -3.7065   -3.2305 H   0  0  0  0  0  0  0  0  0  0  0  0
   15.5520   -2.2569   -1.7151 C   0  0  0  0  0  0  0  0  0  0  0  0
   15.0674   -3.2832   -0.6987 C   0  0  2  0  0  0  0  0  0  0  0  0
   15.4195   -4.7227   -1.0493 C   0  0  0  0  0  0  0  0  0  0  0  0
   16.6183   -5.2880   -0.6004 C   0  0  0  0  0  0  0  0  0  0  0  0
   17.3124   -4.6749   -0.0335 H   0  0  0  0  0  0  0  0  0  0  0  0
   16.9112   -6.6323   -0.8470 C   0  0  0  0  0  0  0  0  0  0  0  0
   17.8364   -7.0542   -0.4676 H   0  0  0  0  0  0  0  0  0  0  0  0
   16.0095   -7.4290   -1.5617 C   0  0  0  0  0  0  0  0  0  0  0  0
   16.2297   -8.4774   -1.7408 H   0  0  0  0  0  0  0  0  0  0  0  0
   14.8186   -6.8730   -2.0381 C   0  0  0  0  0  0  0  0  0  0  0  0
   14.1145   -7.4883   -2.5914 H   0  0  0  0  0  0  0  0  0  0  0  0
   14.5275   -5.5277   -1.7865 C   0  0  0  0  0  0  0  0  0  0  0  0
   13.5894   -5.1152   -2.1482 H   0  0  0  0  0  0  0  0  0  0  0  0
   13.5547   -3.1808   -0.4802 C   0  0  0  0  0  0  0  0  0  0  0  0
   12.6504   -3.1434   -1.3009 O   0  0  0  0  0  0  0  0  0  0  0  0
   13.3110   -3.1932    0.8458 N   0  0  0  0  0  0  0  0  0  0  0  0
   11.9002   -2.5068    1.3541 S   0  0  0  0  0  0  0  0  0  0  0  0
   11.1533   -2.0534    0.1676 O   0  0  0  0  0  0  0  0  0  0  0  0
   12.2603   -1.3790    2.2138 O   0  0  0  0  0  0  0  0  0  0  0  0
   11.0250   -3.8967    2.1834 C   0  0  0  0  0  0  0  0  0  0  0  0
   11.1376   -5.2062    1.6583 C   0  0  0  0  0  0  0  0  0  0  0  0
   11.8094   -5.4442    0.8311 H   0  0  0  0  0  0  0  0  0  0  0  0
   10.3423   -6.2404    2.1659 C   0  0  0  0  0  0  0  0  0  0  0  0
   10.4099   -7.2315    1.7281 H   0  0  0  0  0  0  0  0  0  0  0  0
    9.4188   -6.0011    3.1848 C   0  0  0  0  0  0  0  0  0  0  0  0
    8.3456   -7.2851    3.7125 Cl  0  0  0  0  0  0  0  0  0  0  0  0
    9.3430   -4.7199    3.7501 C   0  0  0  0  0  0  0  0  0  0  0  0
    8.6544   -4.5324    4.5698 H   0  0  0  0  0  0  0  0  0  0  0  0
   10.1412   -3.6675    3.2648 C   0  0  0  0  0  0  0  0  0  0  0  0
   10.0487   -2.6800    3.7316 H   0  0  0  0  0  0  0  0  0  0  0  0
   14.4498   -2.9015    1.4913 C   0  0  0  0  0  0  0  0  0  0  0  0
   14.4801   -2.5371    2.8009 N   0  0  0  0  0  0  0  0  0  0  0  0
   15.3679   -2.1971    3.1671 H   0  0  0  0  0  0  0  0  0  0  0  0
   13.6109   -2.2196    3.2315 H   0  0  0  0  0  0  0  0  0  0  0  0
   15.4619   -2.9670    0.6961 N   0  0  0  0  0  4  0  0  0  0  0  0
   16.4265   -2.8391    0.9987 H   0  0  0  0  0  0  0  0  0  0  0  0
   15.4706   -0.8797   -1.4372 C   0  0  0  0  0  0  0  0  0  0  0  0
   15.0795   -0.5527   -0.4786 H   0  0  0  0  0  0  0  0  0  0  0  0
   15.5602    1.9789   -0.7625 C   0  0  0  0  0  0  0  0  0  0  0  0
   15.4580    1.2674    0.0521 H   0  0  0  0  0  0  0  0  0  0  0  0
   15.4813    3.3509   -0.5324 C   0  0  0  0  0  0  0  0  0  0  0  0
   15.2984    3.7316    0.4651 H   0  0  0  0  0  0  0  0  0  0  0  0
  1  2  1  0
  2  3  2  0
  3  4  1  0
  4  5  1  0
  4  6  2  0
  6  7  1  0
  7  8  2  0
  8  9  1  0
  8 10  1  0
 10 11  1  0
 10 12  2  0
 12 13  1  0
 12 14  1  0
 15 14  1  6
 15 16  1  0
 16 17  2  0
 17 18  1  0
 17 19  1  0
 19 20  1  0
 19 21  2  0
 21 22  1  0
 21 23  1  0
 23 24  1  0
 23 25  2  0
 25 26  1  0
 15 27  1  0
 27 28  2  0
 27 29  1  0
 29 30  1  0
 30 31  2  0
 30 32  2  0
 30 33  1  0
 33 34  2  0
 34 35  1  0
 34 36  1  0
 36 37  1  0
 36 38  2  0
 38 39  1  0
 38 40  1  0
 40 41  1  0
 40 42  2  0
 42 43  1  0
 29 44  1  0
 44 45  1  0
 45 46  1  0
 45 47  1  0
 44 48  2  0
 48 49  1  0
 14 50  2  0
 50 51  1  0
  6 52  1  0
 52 53  1  0
 52 54  2  0
 54 55  1  0
 54  2  1  0
 50  7  1  0
 48 15  1  0
 25 16  1  0
 42 33  1  0
M  CHG  1  48   1
M  END
>  <score>  (52) 
5.87608

$$$$

     RDKit          3D

 60 64  0  0  0  0  0  0  0  0999 V2000
   15.5309    5.3218   -1.4123 H   0  0  0  0  0  0  0  0  0  0  0  0
   15.5854    4.2577   -1.6158 C   0  0  0  0  0  0  0  0  0  0  0  0
   15.8388    3.8505   -2.8689 N   0  0  0  0  0  0  0  0  0  0  0  0
   15.8980    2.5269   -3.1023 C   0  0  0  0  0  0  0  0  0  0  0  0
   16.0997    2.1907   -4.1153 H   0  0  0  0  0  0  0  0  0  0  0  0
   15.7111    1.5594   -2.1011 C   0  0  0  0  0  0  0  0  0  0  0  0
   15.7819    0.1238   -2.4009 C   0  0  0  0  0  0  0  0  0  0  0  0
   16.3278   -0.3102   -3.6125 C   0  0  0  0  0  0  0  0  0  0  0  0
   16.7000    0.4339   -4.3093 H   0  0  0  0  0  0  0  0  0  0  0  0
   16.4085   -1.6738   -3.9078 C   0  0  0  0  0  0  0  0  0  0  0  0
   16.8620   -1.9956   -4.8415 H   0  0  0  0  0  0  0  0  0  0  0  0
   15.9358   -2.6183   -2.9876 C   0  0  0  0  0  0  0  0  0  0  0  0
   16.0034   -3.6770   -3.2156 H   0  0  0  0  0  0  0  0  0  0  0  0
   15.3893   -2.2152   -1.7595 C   0  0  0  0  0  0  0  0  0  0  0  0
   14.8331   -3.2233   -0.7593 C   0  0  2  0  0  0  0  0  0  0  0  0
   15.2029   -4.6779   -1.0565 C   0  0  0  0  0  0  0  0  0  0  0  0
   16.4191   -5.2100   -0.5982 C   0  0  0  0  0  0  0  0  0  0  0  0
   17.1027   -4.5663   -0.0529 H   0  0  0  0  0  0  0  0  0  0  0  0
   16.7439   -6.5566   -0.8006 C   0  0  0  0  0  0  0  0  0  0  0  0
   17.6783   -6.9532   -0.4111 H   0  0  0  0  0  0  0  0  0  0  0  0
   15.8566   -7.3922   -1.4862 C   0  0  0  0  0  0  0  0  0  0  0  0
   16.0957   -8.4427   -1.6260 H   0  0  0  0  0  0  0  0  0  0  0  0
   14.6494   -6.8766   -1.9703 C   0  0  0  0  0  0  0  0  0  0  0  0
   13.9538   -7.5337   -2.4859 H   0  0  0  0  0  0  0  0  0  0  0  0
   14.3245   -5.5291   -1.7544 C   0  0  0  0  0  0  0  0  0  0  0  0
   13.3709   -5.1491   -2.1087 H   0  0  0  0  0  0  0  0  0  0  0  0
   13.3112   -3.0271   -0.5974 C   0  0  0  0  0  0  0  0  0  0  0  0
   12.4398   -3.2367   -1.4449 O   0  0  0  0  0  0  0  0  0  0  0  0
   13.0347   -2.6137    0.6954 N   0  0  0  0  0  0  0  0  0  0  0  0
   11.7008   -2.5658    1.3235 C   0  0  0  0  0  0  0  0  0  0  0  0
   11.6726   -1.8212    2.1280 H   0  0  0  0  0  0  0  0  0  0  0  0
   10.9439   -2.2683    0.5896 H   0  0  0  0  0  0  0  0  0  0  0  0
   11.3238   -3.9321    1.9026 C   0  0  0  0  0  0  0  0  0  0  0  0
   11.3526   -4.6685    1.0931 H   0  0  0  0  0  0  0  0  0  0  0  0
   12.0811   -4.2183    2.6363 H   0  0  0  0  0  0  0  0  0  0  0  0
    9.9847   -3.9633    2.5314 N   0  0  0  0  0  0  0  0  0  0  0  0
    9.4536   -5.3092    2.7636 C   0  0  0  0  0  0  0  0  0  0  0  0
   10.2156   -5.9417    3.2224 H   0  0  0  0  0  0  0  0  0  0  0  0
    9.1274   -5.7758    1.8297 H   0  0  0  0  0  0  0  0  0  0  0  0
    8.2988   -5.1294    3.7288 C   0  0  0  0  0  0  0  0  0  0  0  0
    8.2887   -5.9240    4.4806 H   0  0  0  0  0  0  0  0  0  0  0  0
    7.3537   -5.1596    3.1806 H   0  0  0  0  0  0  0  0  0  0  0  0
    8.4901   -3.7443    4.3511 C   0  0  0  0  0  0  0  0  0  0  0  0
    7.6239   -3.1351    4.0851 H   0  0  0  0  0  0  0  0  0  0  0  0
    8.5766   -3.7727    5.4415 H   0  0  0  0  0  0  0  0  0  0  0  0
    9.7545   -3.1480    3.7332 C   0  0  0  0  0  0  0  0  0  0  0  0
   10.6015   -3.2203    4.4256 H   0  0  0  0  0  0  0  0  0  0  0  0
    9.6083   -2.0935    3.4826 H   0  0  0  0  0  0  0  0  0  0  0  0
   14.2445   -2.6000    1.3663 C   0  0  0  0  0  0  0  0  0  0  0  0
   14.4138   -2.3607    2.6994 N   0  0  0  0  0  0  0  0  0  0  0  0
   13.6085   -2.1083    3.2712 H   0  0  0  0  0  0  0  0  0  0  0  0
   15.3572   -2.3150    3.0760 H   0  0  0  0  0  0  0  0  0  0  0  0
   15.2570   -2.8773    0.6119 N   0  0  0  0  0  4  0  0  0  0  0  0
   16.2156   -2.9984    0.9546 H   0  0  0  0  0  0  0  0  0  0  0  0
   15.3098   -0.8356   -1.4905 C   0  0  0  0  0  0  0  0  0  0  0  0
   14.8649   -0.4953   -0.5594 H   0  0  0  0  0  0  0  0  0  0  0  0
   15.4712    1.9930   -0.8001 C   0  0  0  0  0  0  0  0  0  0  0  0
   15.3713    1.2585   -0.0061 H   0  0  0  0  0  0  0  0  0  0  0  0
   15.3961    3.3623   -0.5612 C   0  0  0  0  0  0  0  0  0  0  0  0
   15.2072    3.7421    0.4348 H   0  0  0  0  0  0  0  0  0  0  0  0
  1  2  1  0
  2  3  2  0
  3  4  1  0
  4  5  1  0
  4  6  2  0
  6  7  1  0
  7  8  2  0
  8  9  1  0
  8 10  1  0
 10 11  1  0
 10 12  2  0
 12 13  1  0
 12 14  1  0
 15 14  1  6
 15 16  1  0
 16 17  2  0
 17 18  1  0
 17 19  1  0
 19 20  1  0
 19 21  2  0
 21 22  1  0
 21 23  1  0
 23 24  1  0
 23 25  2  0
 25 26  1  0
 15 27  1  0
 27 28  2  0
 27 29  1  0
 29 30  1  0
 30 31  1  0
 30 32  1  0
 30 33  1  0
 33 34  1  0
 33 35  1  0
 33 36  1  0
 36 37  1  0
 37 38  1  0
 37 39  1  0
 37 40  1  0
 40 41  1  0
 40 42  1  0
 40 43  1  0
 43 44  1  0
 43 45  1  0
 43 46  1  0
 46 47  1  0
 46 48  1  0
 29 49  1  0
 49 50  1  0
 50 51  1  0
 50 52  1  0
 49 53  2  0
 53 54  1  0
 14 55  2  0
 55 56  1  0
  6 57  1  0
 57 58  1  0
 57 59  2  0
 59 60  1  0
 59  2  1  0
 55  7  1  0
 53 15  1  0
 25 16  1  0
 46 36  1  0
M  CHG  1  53   1
M  END
>  <score>  (53) 
5.87579

$$$$

     RDKit          3D

 42 45  0  0  0  0  0  0  0  0999 V2000
   15.5696    5.3722   -1.3877 H   0  0  0  0  0  0  0  0  0  0  0  0
   15.5830    4.3031   -1.5951 C   0  0  0  0  0  0  0  0  0  0  0  0
   15.8194    3.8806   -2.8466 N   0  0  0  0  0  0  0  0  0  0  0  0
   15.8633    2.5530   -3.0880 C   0  0  0  0  0  0  0  0  0  0  0  0
   16.0467    2.2240   -4.1059 H   0  0  0  0  0  0  0  0  0  0  0  0
   15.6861    1.5714   -2.0956 C   0  0  0  0  0  0  0  0  0  0  0  0
   15.7702    0.1184   -2.4109 C   0  0  0  0  0  0  0  0  0  0  0  0
   16.3493   -0.3217   -3.6104 C   0  0  0  0  0  0  0  0  0  0  0  0
   16.7239    0.4095   -4.3206 H   0  0  0  0  0  0  0  0  0  0  0  0
   16.4323   -1.6897   -3.9093 C   0  0  0  0  0  0  0  0  0  0  0  0
   16.8649   -2.0073   -4.8526 H   0  0  0  0  0  0  0  0  0  0  0  0
   15.9467   -2.6453   -3.0079 C   0  0  0  0  0  0  0  0  0  0  0  0
   16.0050   -3.7016   -3.2577 H   0  0  0  0  0  0  0  0  0  0  0  0
   15.3841   -2.2453   -1.7858 C   0  0  0  0  0  0  0  0  0  0  0  0
   14.8208   -3.2556   -0.7891 C   0  0  2  0  0  0  0  0  0  0  0  0
   15.1768   -4.7188   -1.0771 C   0  0  0  0  0  0  0  0  0  0  0  0
   16.3942   -5.2396   -0.6113 C   0  0  0  0  0  0  0  0  0  0  0  0
   17.0666   -4.5867   -0.0632 H   0  0  0  0  0  0  0  0  0  0  0  0
   16.7295   -6.5830   -0.8028 C   0  0  0  0  0  0  0  0  0  0  0  0
   17.6720   -6.9561   -0.4166 H   0  0  0  0  0  0  0  0  0  0  0  0
   15.8535   -7.4401   -1.4731 C   0  0  0  0  0  0  0  0  0  0  0  0
   16.1209   -8.4857   -1.6114 H   0  0  0  0  0  0  0  0  0  0  0  0
   14.6429   -6.9389   -1.9621 C   0  0  0  0  0  0  0  0  0  0  0  0
   13.9723   -7.6122   -2.4879 H   0  0  0  0  0  0  0  0  0  0  0  0
   14.3037   -5.5889   -1.7678 C   0  0  0  0  0  0  0  0  0  0  0  0
   13.3530   -5.2323   -2.1560 H   0  0  0  0  0  0  0  0  0  0  0  0
   13.3056   -3.0323   -0.6039 C   0  0  0  0  0  0  0  0  0  0  0  0
   12.4229   -3.0844   -1.4551 O   0  0  0  0  0  0  0  0  0  0  0  0
   13.0413   -2.6851    0.6999 N   0  0  0  0  0  0  0  0  0  0  0  0
   11.2931   -2.1988    1.4591 Br  0  0  0  0  0  0  0  0  0  0  0  0
   14.2353   -2.6313    1.3615 C   0  0  0  0  0  0  0  0  0  0  0  0
   14.3933   -2.3284    2.6826 N   0  0  0  0  0  0  0  0  0  0  0  0
   15.3259   -2.3484    3.0956 H   0  0  0  0  0  0  0  0  0  0  0  0
   13.5737   -2.1381    3.2571 H   0  0  0  0  0  0  0  0  0  0  0  0
   15.2313   -2.9053    0.5882 N   0  0  0  0  0  4  0  0  0  0  0  0
   16.1994   -2.9151    0.9036 H   0  0  0  0  0  0  0  0  0  0  0  0
   15.2957   -0.8599   -1.5162 C   0  0  0  0  0  0  0  0  0  0  0  0
   14.8701   -0.5269   -0.5757 H   0  0  0  0  0  0  0  0  0  0  0  0
   15.4369    2.0255   -0.7967 C   0  0  0  0  0  0  0  0  0  0  0  0
   15.2982    1.3070    0.0023 H   0  0  0  0  0  0  0  0  0  0  0  0
   15.3723    3.4015   -0.5513 C   0  0  0  0  0  0  0  0  0  0  0  0
   15.1681    3.7875    0.4403 H   0  0  0  0  0  0  0  0  0  0  0  0
  1  2  1  0
  2  3  2  0
  3  4  1  0
  4  5  1  0
  4  6  2  0
  6  7  1  0
  7  8  2  0
  8  9  1  0
  8 10  1  0
 10 11  1  0
 10 12  2  0
 12 13  1  0
 12 14  1  0
 15 14  1  6
 15 16  1  0
 16 17  2  0
 17 18  1  0
 17 19  1  0
 19 20  1  0
 19 21  2  0
 21 22  1  0
 21 23  1  0
 23 24  1  0
 23 25  2  0
 25 26  1  0
 15 27  1  0
 27 28  2  0
 27 29  1  0
 29 30  1  0
 29 31  1  0
 31 32  1  0
 32 33  1  0
 32 34  1  0
 31 35  2  0
 35 36  1  0
 14 37  2  0
 37 38  1  0
  6 39  1  0
 39 40  1  0
 39 41  2  0
 41 42  1  0
 41  2  1  0
 37  7  1  0
 35 15  1  0
 25 16  1  0
M  CHG  1  35   1
M  END
>  <score>  (54) 
5.87303

$$$$

     RDKit          3D

 62 66  0  0  0  0  0  0  0  0999 V2000
   15.5220    5.3163   -1.4226 H   0  0  0  0  0  0  0  0  0  0  0  0
   15.5891    4.2505   -1.6156 C   0  0  0  0  0  0  0  0  0  0  0  0
   15.8412    3.8371   -2.8668 N   0  0  0  0  0  0  0  0  0  0  0  0
   15.9096    2.5136   -3.0976 C   0  0  0  0  0  0  0  0  0  0  0  0
   16.1090    2.1869   -4.1147 H   0  0  0  0  0  0  0  0  0  0  0  0
   15.7201    1.5480   -2.0930 C   0  0  0  0  0  0  0  0  0  0  0  0
   15.7769    0.1115   -2.3927 C   0  0  0  0  0  0  0  0  0  0  0  0
   16.3245   -0.3287   -3.6016 C   0  0  0  0  0  0  0  0  0  0  0  0
   16.6996    0.3981   -4.3164 H   0  0  0  0  0  0  0  0  0  0  0  0
   16.4042   -1.6921   -3.8833 C   0  0  0  0  0  0  0  0  0  0  0  0
   16.8403   -2.0113   -4.8234 H   0  0  0  0  0  0  0  0  0  0  0  0
   15.9228   -2.6295   -2.9614 C   0  0  0  0  0  0  0  0  0  0  0  0
   15.9823   -3.6861   -3.1981 H   0  0  0  0  0  0  0  0  0  0  0  0
   15.3607   -2.2207   -1.7403 C   0  0  0  0  0  0  0  0  0  0  0  0
   14.7884   -3.2204   -0.7365 C   0  0  2  0  0  0  0  0  0  0  0  0
   15.1712   -4.6678   -1.0306 C   0  0  0  0  0  0  0  0  0  0  0  0
   16.3994   -5.1898   -0.5839 C   0  0  0  0  0  0  0  0  0  0  0  0
   17.0953   -4.5522   -0.0447 H   0  0  0  0  0  0  0  0  0  0  0  0
   16.7328   -6.5315   -0.7989 C   0  0  0  0  0  0  0  0  0  0  0  0
   17.6745   -6.9208   -0.4227 H   0  0  0  0  0  0  0  0  0  0  0  0
   15.8484   -7.3693   -1.4844 C   0  0  0  0  0  0  0  0  0  0  0  0
   16.1005   -8.4142   -1.6430 H   0  0  0  0  0  0  0  0  0  0  0  0
   14.6371   -6.8576   -1.9613 C   0  0  0  0  0  0  0  0  0  0  0  0
   13.9506   -7.5031   -2.5002 H   0  0  0  0  0  0  0  0  0  0  0  0
   14.3014   -5.5157   -1.7377 C   0  0  0  0  0  0  0  0  0  0  0  0
   13.3542   -5.1333   -2.1059 H   0  0  0  0  0  0  0  0  0  0  0  0
   13.2707   -2.9957   -0.5624 C   0  0  0  0  0  0  0  0  0  0  0  0
   12.4113   -3.0837   -1.4376 O   0  0  0  0  0  0  0  0  0  0  0  0
   12.9884   -2.6033    0.7294 N   0  0  0  0  0  0  0  0  0  0  0  0
   11.7488   -1.9562    1.1479 C   0  0  0  0  0  0  0  0  0  0  0  0
   11.7697   -1.7948    2.2360 H   0  0  0  0  0  0  0  0  0  0  0  0
   10.5268   -2.8414    0.8208 C   0  0  0  0  0  0  0  0  0  0  0  0
   10.8762   -3.8337    0.5101 H   0  0  0  0  0  0  0  0  0  0  0  0
    9.9354   -2.9606    1.7363 H   0  0  0  0  0  0  0  0  0  0  0  0
    9.6127   -2.2655   -0.2732 C   0  0  0  0  0  0  0  0  0  0  0  0
    8.7002   -2.8729   -0.3244 H   0  0  0  0  0  0  0  0  0  0  0  0
   10.1148   -2.3392   -1.2459 H   0  0  0  0  0  0  0  0  0  0  0  0
    9.2916   -0.8664    0.0335 N   0  0  0  0  0  0  0  0  0  0  0  0
    8.0051   -0.3573   -0.0238 C   0  0  0  0  0  0  0  0  0  0  0  0
    7.0554   -1.0339   -0.3939 O   0  0  0  0  0  0  0  0  0  0  0  0
    7.7852    1.0603    0.4586 C   0  0  0  0  0  0  0  0  0  0  0  0
    6.7750    1.4119    0.2450 H   0  0  0  0  0  0  0  0  0  0  0  0
    7.9670    1.0655    1.5352 H   0  0  0  0  0  0  0  0  0  0  0  0
    8.5123    1.7117   -0.0325 H   0  0  0  0  0  0  0  0  0  0  0  0
   10.3670    0.0638    0.3702 C   0  0  0  0  0  0  0  0  0  0  0  0
   10.4301    0.8607   -0.3797 H   0  0  0  0  0  0  0  0  0  0  0  0
   10.1594    0.5379    1.3359 H   0  0  0  0  0  0  0  0  0  0  0  0
   11.7206   -0.6123    0.4147 C   0  0  0  0  0  0  0  0  0  0  0  0
   12.3938    0.0633    0.9240 H   0  0  0  0  0  0  0  0  0  0  0  0
   12.0725   -0.7505   -0.6163 H   0  0  0  0  0  0  0  0  0  0  0  0
   14.2003   -2.5255    1.3767 C   0  0  0  0  0  0  0  0  0  0  0  0
   14.4104   -2.1459    2.6642 N   0  0  0  0  0  0  0  0  0  0  0  0
   15.3264   -2.3630    3.0562 H   0  0  0  0  0  0  0  0  0  0  0  0
   13.5998   -2.1405    3.2795 H   0  0  0  0  0  0  0  0  0  0  0  0
   15.1949   -2.8876    0.6397 N   0  0  0  0  0  4  0  0  0  0  0  0
   16.1549   -2.9678    0.9773 H   0  0  0  0  0  0  0  0  0  0  0  0
   15.2925   -0.8400   -1.4770 C   0  0  0  0  0  0  0  0  0  0  0  0
   14.8534   -0.4978   -0.5438 H   0  0  0  0  0  0  0  0  0  0  0  0
   15.4846    1.9888   -0.7914 C   0  0  0  0  0  0  0  0  0  0  0  0
   15.3790    1.2734    0.0187 H   0  0  0  0  0  0  0  0  0  0  0  0
   15.4118    3.3570   -0.5572 C   0  0  0  0  0  0  0  0  0  0  0  0
   15.2218    3.7274    0.4418 H   0  0  0  0  0  0  0  0  0  0  0  0
  1  2  1  0
  2  3  2  0
  3  4  1  0
  4  5  1  0
  4  6  2  0
  6  7  1  0
  7  8  2  0
  8  9  1  0
  8 10  1  0
 10 11  1  0
 10 12  2  0
 12 13  1  0
 12 14  1  0
 15 14  1  6
 15 16  1  0
 16 17  2  0
 17 18  1  0
 17 19  1  0
 19 20  1  0
 19 21  2  0
 21 22  1  0
 21 23  1  0
 23 24  1  0
 23 25  2  0
 25 26  1  0
 15 27  1  0
 27 28  2  0
 27 29  1  0
 29 30  1  0
 30 31  1  0
 30 32  1  0
 32 33  1  0
 32 34  1  0
 32 35  1  0
 35 36  1  0
 35 37  1  0
 35 38  1  0
 38 39  1  0
 39 40  2  0
 39 41  1  0
 41 42  1  0
 41 43  1  0
 41 44  1  0
 38 45  1  0
 45 46  1  0
 45 47  1  0
 45 48  1  0
 48 49  1  0
 48 50  1  0
 29 51  1  0
 51 52  1  0
 52 53  1  0
 52 54  1  0
 51 55  2  0
 55 56  1  0
 14 57  2  0
 57 58  1  0
  6 59  1  0
 59 60  1  0
 59 61  2  0
 61 62  1  0
 61  2  1  0
 57  7  1  0
 55 15  1  0
 25 16  1  0
 48 30  1  0
M  CHG  1  55   1
M  END
>  <score>  (55) 
5.87171

$$$$

     RDKit          3D

 53 57  0  0  0  0  0  0  0  0999 V2000
   15.5346    5.3295   -1.4175 H   0  0  0  0  0  0  0  0  0  0  0  0
   15.5917    4.2627   -1.6108 C   0  0  0  0  0  0  0  0  0  0  0  0
   15.8426    3.8435   -2.8605 N   0  0  0  0  0  0  0  0  0  0  0  0
   15.9007    2.5179   -3.0892 C   0  0  0  0  0  0  0  0  0  0  0  0
   16.0965    2.1871   -4.1051 H   0  0  0  0  0  0  0  0  0  0  0  0
   15.7066    1.5527   -2.0837 C   0  0  0  0  0  0  0  0  0  0  0  0
   15.7588    0.1092   -2.3780 C   0  0  0  0  0  0  0  0  0  0  0  0
   16.3098   -0.3416   -3.5837 C   0  0  0  0  0  0  0  0  0  0  0  0
   16.7006    0.3779   -4.2980 H   0  0  0  0  0  0  0  0  0  0  0  0
   16.3818   -1.7086   -3.8626 C   0  0  0  0  0  0  0  0  0  0  0  0
   16.8242   -2.0397   -4.7975 H   0  0  0  0  0  0  0  0  0  0  0  0
   15.8904   -2.6394   -2.9389 C   0  0  0  0  0  0  0  0  0  0  0  0
   15.9483   -3.6982   -3.1705 H   0  0  0  0  0  0  0  0  0  0  0  0
   15.3298   -2.2254   -1.7192 C   0  0  0  0  0  0  0  0  0  0  0  0
   14.7831   -3.2380   -0.7130 C   0  0  2  0  0  0  0  0  0  0  0  0
   15.1792   -4.6746   -1.0201 C   0  0  0  0  0  0  0  0  0  0  0  0
   16.4025   -5.1900   -0.5704 C   0  0  0  0  0  0  0  0  0  0  0  0
   17.0843   -4.5476   -0.0212 H   0  0  0  0  0  0  0  0  0  0  0  0
   16.7402   -6.5285   -0.7916 C   0  0  0  0  0  0  0  0  0  0  0  0
   17.6840   -6.9138   -0.4164 H   0  0  0  0  0  0  0  0  0  0  0  0
   15.8571   -7.3680   -1.4810 C   0  0  0  0  0  0  0  0  0  0  0  0
   16.1116   -8.4112   -1.6444 H   0  0  0  0  0  0  0  0  0  0  0  0
   14.6439   -6.8623   -1.9602 C   0  0  0  0  0  0  0  0  0  0  0  0
   13.9540   -7.5079   -2.4983 H   0  0  0  0  0  0  0  0  0  0  0  0
   14.3107   -5.5222   -1.7336 C   0  0  0  0  0  0  0  0  0  0  0  0
   13.3591   -5.1444   -2.0953 H   0  0  0  0  0  0  0  0  0  0  0  0
   13.2550   -3.1369   -0.5524 C   0  0  0  0  0  0  0  0  0  0  0  0
   12.4381   -3.2193   -1.4709 O   0  0  0  0  0  0  0  0  0  0  0  0
   12.9366   -2.9781    0.7938 N   0  0  0  0  0  0  0  0  0  0  0  0
   11.6162   -2.7814    1.3509 N   0  0  0  0  0  0  0  0  0  0  0  0
   11.0373   -3.5616    1.6913 H   0  0  0  0  0  0  0  0  0  0  0  0
   11.0043   -1.5389    1.2445 C   0  0  0  0  0  0  0  0  0  0  0  0
   11.6763   -0.4389    0.6759 C   0  0  0  0  0  0  0  0  0  0  0  0
   12.6906   -0.5860    0.3084 H   0  0  0  0  0  0  0  0  0  0  0  0
   11.0857    0.7593    0.5007 N   0  0  0  0  0  0  0  0  0  0  0  0
    9.8218    0.9024    0.9157 C   0  0  0  0  0  0  0  0  0  0  0  0
    9.3772    1.8846    0.7770 H   0  0  0  0  0  0  0  0  0  0  0  0
    9.0848   -0.1419    1.5004 C   0  0  0  0  0  0  0  0  0  0  0  0
    8.0633    0.0145    1.8102 H   0  0  0  0  0  0  0  0  0  0  0  0
    9.6859   -1.3909    1.6695 C   0  0  0  0  0  0  0  0  0  0  0  0
    9.1618   -2.2341    2.1144 H   0  0  0  0  0  0  0  0  0  0  0  0
   14.1512   -2.7661    1.4456 C   0  0  0  0  0  0  0  0  0  0  0  0
   14.3819   -2.4100    2.7460 N   0  0  0  0  0  0  0  0  0  0  0  0
   15.3471   -2.2901    3.0580 H   0  0  0  0  0  0  0  0  0  0  0  0
   13.6004   -2.2053    3.3664 H   0  0  0  0  0  0  0  0  0  0  0  0
   15.1739   -2.9069    0.6686 N   0  0  0  0  0  4  0  0  0  0  0  0
   16.1429   -2.8253    0.9805 H   0  0  0  0  0  0  0  0  0  0  0  0
   15.2666   -0.8415   -1.4616 C   0  0  0  0  0  0  0  0  0  0  0  0
   14.8261   -0.4902   -0.5342 H   0  0  0  0  0  0  0  0  0  0  0  0
   15.4718    2.0018   -0.7849 C   0  0  0  0  0  0  0  0  0  0  0  0
   15.3589    1.2863    0.0230 H   0  0  0  0  0  0  0  0  0  0  0  0
   15.4060    3.3719   -0.5520 C   0  0  0  0  0  0  0  0  0  0  0  0
   15.2132    3.7483    0.4443 H   0  0  0  0  0  0  0  0  0  0  0  0
  1  2  1  0
  2  3  2  0
  3  4  1  0
  4  5  1  0
  4  6  2  0
  6  7  1  0
  7  8  2  0
  8  9  1  0
  8 10  1  0
 10 11  1  0
 10 12  2  0
 12 13  1  0
 12 14  1  0
 15 14  1  6
 15 16  1  0
 16 17  2  0
 17 18  1  0
 17 19  1  0
 19 20  1  0
 19 21  2  0
 21 22  1  0
 21 23  1  0
 23 24  1  0
 23 25  2  0
 25 26  1  0
 15 27  1  0
 27 28  2  0
 27 29  1  0
 29 30  1  0
 30 31  1  0
 30 32  1  0
 32 33  2  0
 33 34  1  0
 33 35  1  0
 35 36  2  0
 36 37  1  0
 36 38  1  0
 38 39  1  0
 38 40  2  0
 40 41  1  0
 29 42  1  0
 42 43  1  0
 43 44  1  0
 43 45  1  0
 42 46  2  0
 46 47  1  0
 14 48  2  0
 48 49  1  0
  6 50  1  0
 50 51  1  0
 50 52  2  0
 52 53  1  0
 52  2  1  0
 48  7  1  0
 46 15  1  0
 25 16  1  0
 40 32  1  0
M  CHG  1  46   1
M  END
>  <score>  (56) 
5.87024

$$$$

     RDKit          3D

 56 59  0  0  0  0  0  0  0  0999 V2000
   15.5080    5.2983   -1.4382 H   0  0  0  0  0  0  0  0  0  0  0  0
   15.5887    4.2317   -1.6224 C   0  0  0  0  0  0  0  0  0  0  0  0
   15.8550    3.8158   -2.8686 N   0  0  0  0  0  0  0  0  0  0  0  0
   15.9239    2.4931   -3.0985 C   0  0  0  0  0  0  0  0  0  0  0  0
   16.1262    2.1772   -4.1193 H   0  0  0  0  0  0  0  0  0  0  0  0
   15.7206    1.5312   -2.0892 C   0  0  0  0  0  0  0  0  0  0  0  0
   15.7488    0.0986   -2.3767 C   0  0  0  0  0  0  0  0  0  0  0  0
   16.3011   -0.3420   -3.5816 C   0  0  0  0  0  0  0  0  0  0  0  0
   16.6879    0.3759   -4.3009 H   0  0  0  0  0  0  0  0  0  0  0  0
   16.3762   -1.7004   -3.8540 C   0  0  0  0  0  0  0  0  0  0  0  0
   16.8186   -2.0196   -4.7892 H   0  0  0  0  0  0  0  0  0  0  0  0
   15.8853   -2.6304   -2.9326 C   0  0  0  0  0  0  0  0  0  0  0  0
   15.9494   -3.6843   -3.1707 H   0  0  0  0  0  0  0  0  0  0  0  0
   15.3202   -2.2255   -1.7107 C   0  0  0  0  0  0  0  0  0  0  0  0
   14.7844   -3.2435   -0.7025 C   0  0  2  0  0  0  0  0  0  0  0  0
   15.1914   -4.6723   -1.0186 C   0  0  0  0  0  0  0  0  0  0  0  0
   16.4229   -5.1930   -0.5786 C   0  0  0  0  0  0  0  0  0  0  0  0
   17.1181   -4.5581   -0.0355 H   0  0  0  0  0  0  0  0  0  0  0  0
   16.7480   -6.5335   -0.8028 C   0  0  0  0  0  0  0  0  0  0  0  0
   17.6883   -6.9209   -0.4243 H   0  0  0  0  0  0  0  0  0  0  0  0
   15.8569   -7.3651   -1.4880 C   0  0  0  0  0  0  0  0  0  0  0  0
   16.1079   -8.4089   -1.6537 H   0  0  0  0  0  0  0  0  0  0  0  0
   14.6477   -6.8446   -1.9613 C   0  0  0  0  0  0  0  0  0  0  0  0
   13.9572   -7.4775   -2.5066 H   0  0  0  0  0  0  0  0  0  0  0  0
   14.3179   -5.5073   -1.7312 C   0  0  0  0  0  0  0  0  0  0  0  0
   13.3679   -5.1205   -2.0926 H   0  0  0  0  0  0  0  0  0  0  0  0
   13.2622   -3.0975   -0.4944 C   0  0  0  0  0  0  0  0  0  0  0  0
   12.3706   -3.3060   -1.3120 O   0  0  0  0  0  0  0  0  0  0  0  0
   13.0283   -2.6869    0.7892 N   0  0  0  0  0  0  0  0  0  0  0  0
   11.7307   -2.4505    1.3278 C   0  0  0  0  0  0  0  0  0  0  0  0
   11.0614   -2.0525    0.5513 H   0  0  0  0  0  0  0  0  0  0  0  0
   11.7783   -1.7372    2.1592 H   0  0  0  0  0  0  0  0  0  0  0  0
   11.3250   -3.7817    1.7413 N   0  0  0  0  0  0  0  0  0  0  0  0
   12.0087   -4.1639    2.3936 H   0  0  0  0  0  0  0  0  0  0  0  0
    9.9736   -3.9047    2.2980 C   0  0  0  0  0  0  0  0  0  0  0  0
    9.2555   -3.3985    1.6436 H   0  0  0  0  0  0  0  0  0  0  0  0
    9.9321   -3.2898    3.6934 C   0  0  0  0  0  0  0  0  0  0  0  0
   10.2274   -2.2362    3.6583 H   0  0  0  0  0  0  0  0  0  0  0  0
   10.6256   -3.8198    4.3546 H   0  0  0  0  0  0  0  0  0  0  0  0
    8.9173   -3.3697    4.1063 H   0  0  0  0  0  0  0  0  0  0  0  0
    9.6037   -5.3781    2.3948 C   0  0  0  0  0  0  0  0  0  0  0  0
    9.6759   -5.8578    1.4151 H   0  0  0  0  0  0  0  0  0  0  0  0
    8.5747   -5.4809    2.7550 H   0  0  0  0  0  0  0  0  0  0  0  0
   10.2738   -5.8921    3.0906 H   0  0  0  0  0  0  0  0  0  0  0  0
   14.2085   -2.6878    1.4726 C   0  0  0  0  0  0  0  0  0  0  0  0
   14.3829   -2.4477    2.8071 N   0  0  0  0  0  0  0  0  0  0  0  0
   13.5893   -2.0916    3.3382 H   0  0  0  0  0  0  0  0  0  0  0  0
   15.3317   -2.2483    3.1365 H   0  0  0  0  0  0  0  0  0  0  0  0
   15.1976   -2.9307    0.6801 N   0  0  0  0  0  4  0  0  0  0  0  0
   16.1645   -3.0026    0.9910 H   0  0  0  0  0  0  0  0  0  0  0  0
   15.2524   -0.8434   -1.4523 C   0  0  0  0  0  0  0  0  0  0  0  0
   14.8190   -0.4953   -0.5173 H   0  0  0  0  0  0  0  0  0  0  0  0
   15.5012    1.9753   -0.7854 C   0  0  0  0  0  0  0  0  0  0  0  0
   15.3943    1.2711    0.0350 H   0  0  0  0  0  0  0  0  0  0  0  0
   15.4251    3.3413   -0.5579 C   0  0  0  0  0  0  0  0  0  0  0  0
   15.2384    3.7085    0.4430 H   0  0  0  0  0  0  0  0  0  0  0  0
  1  2  1  0
  2  3  2  0
  3  4  1  0
  4  5  1  0
  4  6  2  0
  6  7  1  0
  7  8  2  0
  8  9  1  0
  8 10  1  0
 10 11  1  0
 10 12  2  0
 12 13  1  0
 12 14  1  0
 15 14  1  6
 15 16  1  0
 16 17  2  0
 17 18  1  0
 17 19  1  0
 19 20  1  0
 19 21  2  0
 21 22  1  0
 21 23  1  0
 23 24  1  0
 23 25  2  0
 25 26  1  0
 15 27  1  0
 27 28  2  0
 27 29  1  0
 29 30  1  0
 30 31  1  0
 30 32  1  0
 30 33  1  0
 33 34  1  0
 33 35  1  0
 35 36  1  0
 35 37  1  0
 37 38  1  0
 37 39  1  0
 37 40  1  0
 35 41  1  0
 41 42  1  0
 41 43  1  0
 41 44  1  0
 29 45  1  0
 45 46  1  0
 46 47  1  0
 46 48  1  0
 45 49  2  0
 49 50  1  0
 14 51  2  0
 51 52  1  0
  6 53  1  0
 53 54  1  0
 53 55  2  0
 55 56  1  0
 55  2  1  0
 51  7  1  0
 49 15  1  0
 25 16  1  0
M  CHG  1  49   1
M  END
>  <score>  (57) 
5.8642

$$$$

     RDKit          3D

 55 59  0  0  0  0  0  0  0  0999 V2000
   15.5339    5.3244   -1.4118 H   0  0  0  0  0  0  0  0  0  0  0  0
   15.5852    4.2601   -1.6139 C   0  0  0  0  0  0  0  0  0  0  0  0
   15.8394    3.8518   -2.8658 N   0  0  0  0  0  0  0  0  0  0  0  0
   15.8952    2.5281   -3.1006 C   0  0  0  0  0  0  0  0  0  0  0  0
   16.0939    2.1969   -4.1157 H   0  0  0  0  0  0  0  0  0  0  0  0
   15.7077    1.5599   -2.0986 C   0  0  0  0  0  0  0  0  0  0  0  0
   15.7762    0.1218   -2.3988 C   0  0  0  0  0  0  0  0  0  0  0  0
   16.3265   -0.3137   -3.6076 C   0  0  0  0  0  0  0  0  0  0  0  0
   16.7035    0.4236   -4.3099 H   0  0  0  0  0  0  0  0  0  0  0  0
   16.4028   -1.6776   -3.9037 C   0  0  0  0  0  0  0  0  0  0  0  0
   16.8607   -2.0002   -4.8343 H   0  0  0  0  0  0  0  0  0  0  0  0
   15.9248   -2.6209   -2.9842 C   0  0  0  0  0  0  0  0  0  0  0  0
   15.9977   -3.6789   -3.2150 H   0  0  0  0  0  0  0  0  0  0  0  0
   15.3763   -2.2198   -1.7553 C   0  0  0  0  0  0  0  0  0  0  0  0
   14.8273   -3.2308   -0.7492 C   0  0  2  0  0  0  0  0  0  0  0  0
   15.1997   -4.6833   -1.0504 C   0  0  0  0  0  0  0  0  0  0  0  0
   16.4176   -5.2133   -0.5945 C   0  0  0  0  0  0  0  0  0  0  0  0
   17.1022   -4.5692   -0.0518 H   0  0  0  0  0  0  0  0  0  0  0  0
   16.7429   -6.5589   -0.7979 C   0  0  0  0  0  0  0  0  0  0  0  0
   17.6809   -6.9507   -0.4132 H   0  0  0  0  0  0  0  0  0  0  0  0
   15.8560   -7.3948   -1.4835 C   0  0  0  0  0  0  0  0  0  0  0  0
   16.0992   -8.4441   -1.6260 H   0  0  0  0  0  0  0  0  0  0  0  0
   14.6476   -6.8812   -1.9664 C   0  0  0  0  0  0  0  0  0  0  0  0
   13.9531   -7.5375   -2.4843 H   0  0  0  0  0  0  0  0  0  0  0  0
   14.3209   -5.5351   -1.7479 C   0  0  0  0  0  0  0  0  0  0  0  0
   13.3663   -5.1585   -2.1044 H   0  0  0  0  0  0  0  0  0  0  0  0
   13.2999   -3.0611   -0.5688 C   0  0  0  0  0  0  0  0  0  0  0  0
   12.4105   -3.2330   -1.4035 O   0  0  0  0  0  0  0  0  0  0  0  0
   13.0369   -2.6956    0.7374 N   0  0  0  0  0  0  0  0  0  0  0  0
   11.7287   -2.8468    1.3649 C   0  0  0  0  0  0  0  0  0  0  0  0
   11.6437   -2.2451    2.2836 H   0  0  0  0  0  0  0  0  0  0  0  0
   10.9395   -2.5256    0.6731 H   0  0  0  0  0  0  0  0  0  0  0  0
   11.5046   -4.2494    1.6479 N   0  0  0  0  0  0  0  0  0  0  0  0
   11.2119   -5.1843    0.7063 N   0  0  0  0  0  0  0  0  0  0  0  0
   11.3108   -6.2958    1.3895 C   0  0  0  0  0  0  0  0  0  0  0  0
   11.1081   -7.4825    0.7529 O   0  0  0  0  0  0  0  0  0  0  0  0
   11.0135   -8.6191    1.6157 C   0  0  0  0  0  0  0  0  0  0  0  0
   11.9126   -8.7297    2.2341 H   0  0  0  0  0  0  0  0  0  0  0  0
   10.1412   -8.5403    2.2726 H   0  0  0  0  0  0  0  0  0  0  0  0
   10.8897   -9.5144    0.9993 H   0  0  0  0  0  0  0  0  0  0  0  0
   11.5873   -6.1585    2.7173 O   0  0  0  0  0  0  0  0  0  0  0  0
   11.7565   -4.8530    2.8610 C   0  0  0  0  0  0  0  0  0  0  0  0
   12.0492   -4.2744    3.8950 O   0  0  0  0  0  0  0  0  0  0  0  0
   14.2429   -2.6658    1.4031 C   0  0  0  0  0  0  0  0  0  0  0  0
   14.3971   -2.4471    2.7402 N   0  0  0  0  0  0  0  0  0  0  0  0
   15.3431   -2.2932    3.0942 H   0  0  0  0  0  0  0  0  0  0  0  0
   13.6007   -2.1062    3.2774 H   0  0  0  0  0  0  0  0  0  0  0  0
   15.2536   -2.8876    0.6256 N   0  0  0  0  0  4  0  0  0  0  0  0
   16.2169   -2.9850    0.9608 H   0  0  0  0  0  0  0  0  0  0  0  0
   15.2985   -0.8382   -1.4885 C   0  0  0  0  0  0  0  0  0  0  0  0
   14.8582   -0.4969   -0.5568 H   0  0  0  0  0  0  0  0  0  0  0  0
   15.4673    1.9966   -0.7985 C   0  0  0  0  0  0  0  0  0  0  0  0
   15.3620    1.2677   -0.0006 H   0  0  0  0  0  0  0  0  0  0  0  0
   15.3932    3.3652   -0.5600 C   0  0  0  0  0  0  0  0  0  0  0  0
   15.2052    3.7443    0.4362 H   0  0  0  0  0  0  0  0  0  0  0  0
  1  2  1  0
  2  3  2  0
  3  4  1  0
  4  5  1  0
  4  6  2  0
  6  7  1  0
  7  8  2  0
  8  9  1  0
  8 10  1  0
 10 11  1  0
 10 12  2  0
 12 13  1  0
 12 14  1  0
 15 14  1  6
 15 16  1  0
 16 17  2  0
 17 18  1  0
 17 19  1  0
 19 20  1  0
 19 21  2  0
 21 22  1  0
 21 23  1  0
 23 24  1  0
 23 25  2  0
 25 26  1  0
 15 27  1  0
 27 28  2  0
 27 29  1  0
 29 30  1  0
 30 31  1  0
 30 32  1  0
 30 33  1  0
 33 34  1  0
 34 35  2  0
 35 36  1  0
 36 37  1  0
 37 38  1  0
 37 39  1  0
 37 40  1  0
 35 41  1  0
 41 42  1  0
 42 43  2  0
 29 44  1  0
 44 45  1  0
 45 46  1  0
 45 47  1  0
 44 48  2  0
 48 49  1  0
 14 50  2  0
 50 51  1  0
  6 52  1  0
 52 53  1  0
 52 54  2  0
 54 55  1  0
 54  2  1  0
 50  7  1  0
 48 15  1  0
 25 16  1  0
 42 33  1  0
M  CHG  1  48   1
M  END
>  <score>  (58) 
5.85956

$$$$

     RDKit          3D

 54 58  0  0  0  0  0  0  0  0999 V2000
   15.5292    5.3272   -1.4163 H   0  0  0  0  0  0  0  0  0  0  0  0
   15.5902    4.2602   -1.6098 C   0  0  0  0  0  0  0  0  0  0  0  0
   15.8400    3.8414   -2.8595 N   0  0  0  0  0  0  0  0  0  0  0  0
   15.9037    2.5165   -3.0887 C   0  0  0  0  0  0  0  0  0  0  0  0
   16.1013    2.1875   -4.1048 H   0  0  0  0  0  0  0  0  0  0  0  0
   15.7141    1.5505   -2.0837 C   0  0  0  0  0  0  0  0  0  0  0  0
   15.7760    0.1082   -2.3810 C   0  0  0  0  0  0  0  0  0  0  0  0
   16.3175   -0.3357   -3.5928 C   0  0  0  0  0  0  0  0  0  0  0  0
   16.6985    0.3848   -4.3084 H   0  0  0  0  0  0  0  0  0  0  0  0
   16.3968   -1.6997   -3.8825 C   0  0  0  0  0  0  0  0  0  0  0  0
   16.8287   -2.0252   -4.8239 H   0  0  0  0  0  0  0  0  0  0  0  0
   15.9276   -2.6407   -2.9597 C   0  0  0  0  0  0  0  0  0  0  0  0
   15.9814   -3.6988   -3.2009 H   0  0  0  0  0  0  0  0  0  0  0  0
   15.3788   -2.2337   -1.7310 C   0  0  0  0  0  0  0  0  0  0  0  0
   14.8212   -3.2490   -0.7354 C   0  0  2  0  0  0  0  0  0  0  0  0
   15.2207   -4.6872   -1.0465 C   0  0  0  0  0  0  0  0  0  0  0  0
   16.4405   -5.2145   -0.5919 C   0  0  0  0  0  0  0  0  0  0  0  0
   17.1261   -4.5762   -0.0415 H   0  0  0  0  0  0  0  0  0  0  0  0
   16.7656   -6.5598   -0.8033 C   0  0  0  0  0  0  0  0  0  0  0  0
   17.7039   -6.9509   -0.4165 H   0  0  0  0  0  0  0  0  0  0  0  0
   15.8743   -7.3935   -1.4906 C   0  0  0  0  0  0  0  0  0  0  0  0
   16.1151   -8.4416   -1.6413 H   0  0  0  0  0  0  0  0  0  0  0  0
   14.6655   -6.8773   -1.9711 C   0  0  0  0  0  0  0  0  0  0  0  0
   13.9634   -7.5169   -2.4996 H   0  0  0  0  0  0  0  0  0  0  0  0
   14.3476   -5.5325   -1.7547 C   0  0  0  0  0  0  0  0  0  0  0  0
   13.3998   -5.1456   -2.1152 H   0  0  0  0  0  0  0  0  0  0  0  0
   13.2911   -3.1346   -0.5958 C   0  0  0  0  0  0  0  0  0  0  0  0
   12.4865   -3.2189   -1.5290 O   0  0  0  0  0  0  0  0  0  0  0  0
   12.9569   -2.9866    0.7446 N   0  0  0  0  0  0  0  0  0  0  0  0
   11.6483   -2.6175    1.2294 N   0  0  0  0  0  0  0  0  0  0  0  0
   10.9799   -3.3306    1.5479 H   0  0  0  0  0  0  0  0  0  0  0  0
   11.1491   -1.3589    0.9364 C   0  0  0  0  0  0  0  0  0  0  0  0
    9.8196   -1.0334    1.2178 C   0  0  0  0  0  0  0  0  0  0  0  0
    9.1807   -1.7911    1.6601 H   0  0  0  0  0  0  0  0  0  0  0  0
    9.3679    0.2826    1.0305 C   0  0  0  0  0  0  0  0  0  0  0  0
    8.3530    0.5580    1.2856 H   0  0  0  0  0  0  0  0  0  0  0  0
   10.2466    1.2668    0.5675 C   0  0  0  0  0  0  0  0  0  0  0  0
    9.8650    2.5597    0.4641 F   0  0  0  0  0  0  0  0  0  0  0  0
   11.5615    0.9235    0.2787 C   0  0  0  0  0  0  0  0  0  0  0  0
   12.2543    1.6997   -0.0112 H   0  0  0  0  0  0  0  0  0  0  0  0
   12.0088   -0.3821    0.4353 C   0  0  0  0  0  0  0  0  0  0  0  0
   13.0446   -0.6306    0.2197 H   0  0  0  0  0  0  0  0  0  0  0  0
   14.1645   -2.7789    1.4134 C   0  0  0  0  0  0  0  0  0  0  0  0
   14.3772   -2.3969    2.7100 N   0  0  0  0  0  0  0  0  0  0  0  0
   15.3354   -2.2933    3.0427 H   0  0  0  0  0  0  0  0  0  0  0  0
   13.5901   -2.2067    3.3270 H   0  0  0  0  0  0  0  0  0  0  0  0
   15.1984   -2.9268    0.6536 N   0  0  0  0  0  4  0  0  0  0  0  0
   16.1653   -2.8193    0.9725 H   0  0  0  0  0  0  0  0  0  0  0  0
   15.3065   -0.8514   -1.4648 C   0  0  0  0  0  0  0  0  0  0  0  0
   14.8658   -0.5083   -0.5348 H   0  0  0  0  0  0  0  0  0  0  0  0
   15.4796    1.9977   -0.7843 C   0  0  0  0  0  0  0  0  0  0  0  0
   15.3708    1.2826    0.0247 H   0  0  0  0  0  0  0  0  0  0  0  0
   15.4096    3.3678   -0.5514 C   0  0  0  0  0  0  0  0  0  0  0  0
   15.2184    3.7445    0.4449 H   0  0  0  0  0  0  0  0  0  0  0  0
  1  2  1  0
  2  3  2  0
  3  4  1  0
  4  5  1  0
  4  6  2  0
  6  7  1  0
  7  8  2  0
  8  9  1  0
  8 10  1  0
 10 11  1  0
 10 12  2  0
 12 13  1  0
 12 14  1  0
 15 14  1  6
 15 16  1  0
 16 17  2  0
 17 18  1  0
 17 19  1  0
 19 20  1  0
 19 21  2  0
 21 22  1  0
 21 23  1  0
 23 24  1  0
 23 25  2  0
 25 26  1  0
 15 27  1  0
 27 28  2  0
 27 29  1  0
 29 30  1  0
 30 31  1  0
 30 32  1  0
 32 33  2  0
 33 34  1  0
 33 35  1  0
 35 36  1  0
 35 37  2  0
 37 38  1  0
 37 39  1  0
 39 40  1  0
 39 41  2  0
 41 42  1  0
 29 43  1  0
 43 44  1  0
 44 45  1  0
 44 46  1  0
 43 47  2  0
 47 48  1  0
 14 49  2  0
 49 50  1  0
  6 51  1  0
 51 52  1  0
 51 53  2  0
 53 54  1  0
 53  2  1  0
 49  7  1  0
 47 15  1  0
 25 16  1  0
 41 32  1  0
M  CHG  1  47   1
M  END
>  <score>  (59) 
5.85941

$$$$

     RDKit          3D

 65 70  0  0  0  0  0  0  0  0999 V2000
    5.1624   -1.8820   -0.7121 H   0  0  0  0  0  0  0  0  0  0  0  0
    6.0587   -1.3678   -1.0515 C   0  0  0  0  0  0  0  0  0  0  0  0
    7.2467   -1.7587   -0.5736 N   0  0  0  0  0  0  0  0  0  0  0  0
    8.3486   -1.1088   -0.9829 C   0  0  0  0  0  0  0  0  0  0  0  0
    9.6002   -1.5123   -0.4876 N   0  0  0  0  0  0  0  0  0  0  0  0
    9.8357   -2.8647    0.0843 C   0  0  0  0  0  0  0  0  0  0  0  0
   10.3590   -3.4751   -0.6612 H   0  0  0  0  0  0  0  0  0  0  0  0
    8.8884   -3.3593    0.3263 H   0  0  0  0  0  0  0  0  0  0  0  0
   10.7096   -2.7902    1.3537 C   0  0  0  0  0  0  0  0  0  0  0  0
   10.1311   -2.3162    2.1495 H   0  0  0  0  0  0  0  0  0  0  0  0
   10.9846   -3.7934    1.6899 H   0  0  0  0  0  0  0  0  0  0  0  0
   11.9278   -1.9858    1.1259 N   0  0  0  0  0  0  0  0  0  0  0  0
   13.1338   -2.6213    0.6714 N   0  0  0  0  0  0  0  0  0  0  0  0
   13.4238   -3.0107   -0.6273 C   0  0  0  0  0  0  0  0  0  0  0  0
   12.5872   -3.1223   -1.5246 O   0  0  0  0  0  0  0  0  0  0  0  0
   14.9367   -3.2489   -0.7704 C   0  0  1  0  0  0  0  0  0  0  0  0
   15.2769   -4.6957   -1.1040 C   0  0  0  0  0  0  0  0  0  0  0  0
   16.4923   -5.2398   -0.6683 C   0  0  0  0  0  0  0  0  0  0  0  0
   17.2000   -4.6053   -0.1399 H   0  0  0  0  0  0  0  0  0  0  0  0
   16.7851   -6.5902   -0.8684 C   0  0  0  0  0  0  0  0  0  0  0  0
   17.7131   -6.9962   -0.4803 H   0  0  0  0  0  0  0  0  0  0  0  0
   15.8770   -7.4167   -1.5387 C   0  0  0  0  0  0  0  0  0  0  0  0
   16.0920   -8.4735   -1.6702 H   0  0  0  0  0  0  0  0  0  0  0  0
   14.6763   -6.8783   -2.0149 C   0  0  0  0  0  0  0  0  0  0  0  0
   13.9603   -7.5138   -2.5279 H   0  0  0  0  0  0  0  0  0  0  0  0
   14.3802   -5.5250   -1.8056 C   0  0  0  0  0  0  0  0  0  0  0  0
   13.4393   -5.1210   -2.1682 H   0  0  0  0  0  0  0  0  0  0  0  0
   15.4921   -2.2433   -1.7733 C   0  0  0  0  0  0  0  0  0  0  0  0
   16.0082   -2.6400   -3.0190 C   0  0  0  0  0  0  0  0  0  0  0  0
   16.0624   -3.6937   -3.2749 H   0  0  0  0  0  0  0  0  0  0  0  0
   16.4427   -1.6857   -3.9454 C   0  0  0  0  0  0  0  0  0  0  0  0
   16.8327   -1.9952   -4.9101 H   0  0  0  0  0  0  0  0  0  0  0  0
   16.3623   -0.3246   -3.6420 C   0  0  0  0  0  0  0  0  0  0  0  0
   16.7010    0.4092   -4.3661 H   0  0  0  0  0  0  0  0  0  0  0  0
   15.8538    0.1061   -2.4090 C   0  0  0  0  0  0  0  0  0  0  0  0
   15.7731    1.5463   -2.0960 C   0  0  0  0  0  0  0  0  0  0  0  0
   15.9371    2.5222   -3.0970 C   0  0  0  0  0  0  0  0  0  0  0  0
   16.1331    2.2004   -4.1158 H   0  0  0  0  0  0  0  0  0  0  0  0
   15.8524    3.8454   -2.8613 N   0  0  0  0  0  0  0  0  0  0  0  0
   15.6072    4.2530   -1.6086 C   0  0  0  0  0  0  0  0  0  0  0  0
   15.5307    5.3179   -1.4111 H   0  0  0  0  0  0  0  0  0  0  0  0
   15.4479    3.3545   -0.5527 C   0  0  0  0  0  0  0  0  0  0  0  0
   15.2616    3.7330    0.4436 H   0  0  0  0  0  0  0  0  0  0  0  0
   15.5352    1.9844   -0.7908 C   0  0  0  0  0  0  0  0  0  0  0  0
   15.4369    1.2666    0.0193 H   0  0  0  0  0  0  0  0  0  0  0  0
   15.4158   -0.8659   -1.4926 C   0  0  0  0  0  0  0  0  0  0  0  0
   14.9931   -0.5435   -0.5453 H   0  0  0  0  0  0  0  0  0  0  0  0
   15.3459   -2.9423    0.6220 N   0  0  0  0  0  4  0  0  0  0  0  0
   16.2635   -3.1889    1.0046 H   0  0  0  0  0  0  0  0  0  0  0  0
   14.3343   -2.6313    1.3676 C   0  0  0  0  0  0  0  0  0  0  0  0
   14.5114   -2.4121    2.7086 N   0  0  0  0  0  0  0  0  0  0  0  0
   13.7349   -2.0501    3.2566 H   0  0  0  0  0  0  0  0  0  0  0  0
   15.4653   -2.2903    3.0467 H   0  0  0  0  0  0  0  0  0  0  0  0
   11.6623   -0.6488    0.5597 C   0  0  0  0  0  0  0  0  0  0  0  0
   12.6029   -0.1335    0.3602 H   0  0  0  0  0  0  0  0  0  0  0  0
   11.1007   -0.0617    1.2820 H   0  0  0  0  0  0  0  0  0  0  0  0
   10.8351   -0.7273   -0.7291 C   0  0  0  0  0  0  0  0  0  0  0  0
   11.4258   -1.2052   -1.5193 H   0  0  0  0  0  0  0  0  0  0  0  0
   10.6000    0.2942   -1.0485 H   0  0  0  0  0  0  0  0  0  0  0  0
    8.2656   -0.0408   -1.8921 C   0  0  0  0  0  0  0  0  0  0  0  0
    9.1790    0.4512   -2.1940 H   0  0  0  0  0  0  0  0  0  0  0  0
    7.0394    0.3691   -2.4102 C   0  0  0  0  0  0  0  0  0  0  0  0
    6.9606    1.1849   -3.1326 H   0  0  0  0  0  0  0  0  0  0  0  0
    5.9185   -0.3203   -1.9666 C   0  0  0  0  0  0  0  0  0  0  0  0
    4.9339   -0.0555   -2.3228 H   0  0  0  0  0  0  0  0  0  0  0  0
  1  2  1  0
  2  3  2  0
  3  4  1  0
  4  5  1  0
  5  6  1  0
  6  7  1  0
  6  8  1  0
  6  9  1  0
  9 10  1  0
  9 11  1  0
  9 12  1  0
 12 13  1  0
 13 14  1  0
 14 15  2  0
 14 16  1  0
 16 17  1  6
 17 18  2  0
 18 19  1  0
 18 20  1  0
 20 21  1  0
 20 22  2  0
 22 23  1  0
 22 24  1  0
 24 25  1  0
 24 26  2  0
 26 27  1  0
 16 28  1  0
 28 29  2  0
 29 30  1  0
 29 31  1  0
 31 32  1  0
 31 33  2  0
 33 34  1  0
 33 35  1  0
 35 36  1  0
 36 37  2  0
 37 38  1  0
 37 39  1  0
 39 40  2  0
 40 41  1  0
 40 42  1  0
 42 43  1  0
 42 44  2  0
 44 45  1  0
 35 46  2  0
 46 47  1  0
 16 48  1  0
 48 49  1  0
 48 50  2  0
 50 51  1  0
 51 52  1  0
 51 53  1  0
 12 54  1  0
 54 55  1  0
 54 56  1  0
 54 57  1  0
 57 58  1  0
 57 59  1  0
  4 60  2  0
 60 61  1  0
 60 62  1  0
 62 63  1  0
 62 64  2  0
 64 65  1  0
 64  2  1  0
 57  5  1  0
 50 13  1  0
 26 17  1  0
 46 28  1  0
 44 36  1  0
M  CHG  1  48   1
M  END
>  <score>  (60) 
5.85794

$$$$

     RDKit          3D

 52 56  0  0  0  0  0  0  0  0999 V2000
   15.5730    5.3734   -1.3883 H   0  0  0  0  0  0  0  0  0  0  0  0
   15.5850    4.3051   -1.5929 C   0  0  0  0  0  0  0  0  0  0  0  0
   15.8221    3.8845   -2.8440 N   0  0  0  0  0  0  0  0  0  0  0  0
   15.8597    2.5573   -3.0855 C   0  0  0  0  0  0  0  0  0  0  0  0
   16.0350    2.2396   -4.1084 H   0  0  0  0  0  0  0  0  0  0  0  0
   15.6819    1.5741   -2.0930 C   0  0  0  0  0  0  0  0  0  0  0  0
   15.7748    0.1189   -2.4108 C   0  0  0  0  0  0  0  0  0  0  0  0
   16.3515   -0.3244   -3.6142 C   0  0  0  0  0  0  0  0  0  0  0  0
   16.7341    0.3929   -4.3337 H   0  0  0  0  0  0  0  0  0  0  0  0
   16.4314   -1.6911   -3.9139 C   0  0  0  0  0  0  0  0  0  0  0  0
   16.8683   -2.0087   -4.8568 H   0  0  0  0  0  0  0  0  0  0  0  0
   15.9462   -2.6462   -3.0114 C   0  0  0  0  0  0  0  0  0  0  0  0
   16.0081   -3.7010   -3.2672 H   0  0  0  0  0  0  0  0  0  0  0  0
   15.3854   -2.2466   -1.7879 C   0  0  0  0  0  0  0  0  0  0  0  0
   14.8126   -3.2501   -0.7861 C   0  0  2  0  0  0  0  0  0  0  0  0
   15.1670   -4.7211   -1.0716 C   0  0  0  0  0  0  0  0  0  0  0  0
   16.3858   -5.2433   -0.6084 C   0  0  0  0  0  0  0  0  0  0  0  0
   17.0691   -4.5946   -0.0692 H   0  0  0  0  0  0  0  0  0  0  0  0
   16.7268   -6.5867   -0.7990 C   0  0  0  0  0  0  0  0  0  0  0  0
   17.6752   -6.9553   -0.4194 H   0  0  0  0  0  0  0  0  0  0  0  0
   15.8538   -7.4456   -1.4698 C   0  0  0  0  0  0  0  0  0  0  0  0
   16.1256   -8.4896   -1.6110 H   0  0  0  0  0  0  0  0  0  0  0  0
   14.6426   -6.9467   -1.9599 C   0  0  0  0  0  0  0  0  0  0  0  0
   13.9725   -7.6200   -2.4881 H   0  0  0  0  0  0  0  0  0  0  0  0
   14.3000   -5.5955   -1.7671 C   0  0  0  0  0  0  0  0  0  0  0  0
   13.3513   -5.2450   -2.1650 H   0  0  0  0  0  0  0  0  0  0  0  0
   13.3009   -3.0137   -0.6107 C   0  0  0  0  0  0  0  0  0  0  0  0
   12.4288   -3.0905   -1.4736 O   0  0  0  0  0  0  0  0  0  0  0  0
   13.0240   -2.6385    0.6922 N   0  0  0  0  0  0  0  0  0  0  0  0
   11.6985   -2.6882    1.3261 C   0  0  0  0  0  0  0  0  0  0  0  0
   10.9177   -2.3957    0.6146 H   0  0  0  0  0  0  0  0  0  0  0  0
   11.6491   -1.9748    2.1568 H   0  0  0  0  0  0  0  0  0  0  0  0
   11.4082   -4.0795    1.8407 C   0  0  0  0  0  0  0  0  0  0  0  0
   10.9570   -5.1295    1.0377 N   0  0  0  0  0  0  0  0  0  0  0  0
   10.8981   -6.1953    1.7962 C   0  0  0  0  0  0  0  0  0  0  0  0
   10.6068   -7.1912    1.4548 H   0  0  0  0  0  0  0  0  0  0  0  0
   11.2519   -5.8433    3.0854 N   0  0  0  0  0  0  0  0  0  0  0  0
   11.2917   -6.4965    3.8599 H   0  0  0  0  0  0  0  0  0  0  0  0
   11.5762   -4.4988    3.1325 C   0  0  0  0  0  0  0  0  0  0  0  0
   11.9295   -3.9088    3.9825 H   0  0  0  0  0  0  0  0  0  0  0  0
   14.2283   -2.6187    1.3630 C   0  0  0  0  0  0  0  0  0  0  0  0
   14.3959   -2.3555    2.6937 N   0  0  0  0  0  0  0  0  0  0  0  0
   15.3332   -2.3651    3.0951 H   0  0  0  0  0  0  0  0  0  0  0  0
   13.5882   -2.1100    3.2634 H   0  0  0  0  0  0  0  0  0  0  0  0
   15.2235   -2.8959    0.5881 N   0  0  0  0  0  4  0  0  0  0  0  0
   16.1934   -2.9016    0.8981 H   0  0  0  0  0  0  0  0  0  0  0  0
   15.3014   -0.8624   -1.5168 C   0  0  0  0  0  0  0  0  0  0  0  0
   14.8650   -0.5411   -0.5774 H   0  0  0  0  0  0  0  0  0  0  0  0
   15.4247    2.0322   -0.7941 C   0  0  0  0  0  0  0  0  0  0  0  0
   15.2833    1.3293    0.0168 H   0  0  0  0  0  0  0  0  0  0  0  0
   15.3660    3.4067   -0.5494 C   0  0  0  0  0  0  0  0  0  0  0  0
   15.1665    3.7876    0.4452 H   0  0  0  0  0  0  0  0  0  0  0  0
  1  2  1  0
  2  3  2  0
  3  4  1  0
  4  5  1  0
  4  6  2  0
  6  7  1  0
  7  8  2  0
  8  9  1  0
  8 10  1  0
 10 11  1  0
 10 12  2  0
 12 13  1  0
 12 14  1  0
 15 14  1  6
 15 16  1  0
 16 17  2  0
 17 18  1  0
 17 19  1  0
 19 20  1  0
 19 21  2  0
 21 22  1  0
 21 23  1  0
 23 24  1  0
 23 25  2  0
 25 26  1  0
 15 27  1  0
 27 28  2  0
 27 29  1  0
 29 30  1  0
 30 31  1  0
 30 32  1  0
 30 33  1  0
 33 34  1  0
 34 35  2  0
 35 36  1  0
 35 37  1  0
 37 38  1  0
 37 39  1  0
 39 40  1  0
 29 41  1  0
 41 42  1  0
 42 43  1  0
 42 44  1  0
 41 45  2  0
 45 46  1  0
 14 47  2  0
 47 48  1  0
  6 49  1  0
 49 50  1  0
 49 51  2  0
 51 52  1  0
 51  2  1  0
 47  7  1  0
 45 15  1  0
 25 16  1  0
 39 33  2  0
M  CHG  1  45   1
M  END
>  <score>  (61) 
5.85782

$$$$

     RDKit          3D

 54 58  0  0  0  0  0  0  0  0999 V2000
    7.9219   -0.5332    1.1968 H   0  0  0  0  0  0  0  0  0  0  0  0
    8.7205   -0.5251    0.6525 O   0  0  0  0  0  0  0  0  0  0  0  0
    9.5839   -1.4052    1.2106 C   0  0  0  0  0  0  0  0  0  0  0  0
    9.1697   -2.1194    2.3229 C   0  0  0  0  0  0  0  0  0  0  0  0
    8.1832   -1.9733    2.7412 H   0  0  0  0  0  0  0  0  0  0  0  0
   10.0395   -3.0178    2.9082 C   0  0  0  0  0  0  0  0  0  0  0  0
    9.6331   -3.7414    3.9786 O   0  0  0  0  0  0  0  0  0  0  0  0
   10.3873   -4.2784    4.2597 H   0  0  0  0  0  0  0  0  0  0  0  0
   11.3233   -3.1985    2.4005 C   0  0  0  0  0  0  0  0  0  0  0  0
   11.9707   -3.9101    2.8934 H   0  0  0  0  0  0  0  0  0  0  0  0
   11.7362   -2.4953    1.2690 C   0  0  0  0  0  0  0  0  0  0  0  0
   12.9960   -2.7119    0.7224 N   0  0  0  0  0  0  0  0  0  0  0  0
   13.2620   -3.0220   -0.5925 C   0  0  0  0  0  0  0  0  0  0  0  0
   12.3902   -3.1232   -1.4595 O   0  0  0  0  0  0  0  0  0  0  0  0
   14.7871   -3.2307   -0.7557 C   0  0  1  0  0  0  0  0  0  0  0  0
   15.1626   -4.6876   -1.0509 C   0  0  0  0  0  0  0  0  0  0  0  0
   16.3872   -5.2095   -0.5956 C   0  0  0  0  0  0  0  0  0  0  0  0
   17.0721   -4.5636   -0.0555 H   0  0  0  0  0  0  0  0  0  0  0  0
   16.7279   -6.5531   -0.7971 C   0  0  0  0  0  0  0  0  0  0  0  0
   17.6707   -6.9378   -0.4176 H   0  0  0  0  0  0  0  0  0  0  0  0
   15.8511   -7.3995   -1.4800 C   0  0  0  0  0  0  0  0  0  0  0  0
   16.1060   -8.4468   -1.6206 H   0  0  0  0  0  0  0  0  0  0  0  0
   14.6405   -6.8962   -1.9665 C   0  0  0  0  0  0  0  0  0  0  0  0
   13.9602   -7.5615   -2.4904 H   0  0  0  0  0  0  0  0  0  0  0  0
   14.2976   -5.5505   -1.7536 C   0  0  0  0  0  0  0  0  0  0  0  0
   13.3466   -5.1830   -2.1264 H   0  0  0  0  0  0  0  0  0  0  0  0
   15.3648   -2.2242   -1.7530 C   0  0  0  0  0  0  0  0  0  0  0  0
   15.9223   -2.6278   -2.9791 C   0  0  0  0  0  0  0  0  0  0  0  0
   15.9904   -3.6847   -3.2171 H   0  0  0  0  0  0  0  0  0  0  0  0
   16.4073   -1.6846   -3.8964 C   0  0  0  0  0  0  0  0  0  0  0  0
   16.8604   -2.0083   -4.8286 H   0  0  0  0  0  0  0  0  0  0  0  0
   16.3315   -0.3182   -3.6030 C   0  0  0  0  0  0  0  0  0  0  0  0
   16.7095    0.4140   -4.3102 H   0  0  0  0  0  0  0  0  0  0  0  0
   15.7772    0.1219   -2.3961 C   0  0  0  0  0  0  0  0  0  0  0  0
   15.7023    1.5654   -2.0956 C   0  0  0  0  0  0  0  0  0  0  0  0
   15.8861    2.5363   -3.0971 C   0  0  0  0  0  0  0  0  0  0  0  0
   16.0793    2.2048   -4.1131 H   0  0  0  0  0  0  0  0  0  0  0  0
   15.8335    3.8613   -2.8612 N   0  0  0  0  0  0  0  0  0  0  0  0
   15.5855    4.2726   -1.6086 C   0  0  0  0  0  0  0  0  0  0  0  0
   15.5443    5.3374   -1.4043 H   0  0  0  0  0  0  0  0  0  0  0  0
   15.3854    3.3769   -0.5575 C   0  0  0  0  0  0  0  0  0  0  0  0
   15.1934    3.7561    0.4374 H   0  0  0  0  0  0  0  0  0  0  0  0
   15.4554    2.0068   -0.7969 C   0  0  0  0  0  0  0  0  0  0  0  0
   15.3429    1.2804    0.0008 H   0  0  0  0  0  0  0  0  0  0  0  0
   15.2971   -0.8401   -1.4868 C   0  0  0  0  0  0  0  0  0  0  0  0
   14.8573   -0.4964   -0.5567 H   0  0  0  0  0  0  0  0  0  0  0  0
   15.1965   -2.9052    0.6299 N   0  0  0  0  0  4  0  0  0  0  0  0
   16.1631   -2.9531    0.9588 H   0  0  0  0  0  0  0  0  0  0  0  0
   14.1881   -2.6691    1.4045 C   0  0  0  0  0  0  0  0  0  0  0  0
   14.3815   -2.3947    2.7301 N   0  0  0  0  0  0  0  0  0  0  0  0
   15.3389   -2.3144    3.0744 H   0  0  0  0  0  0  0  0  0  0  0  0
   13.6070   -2.0386    3.2927 H   0  0  0  0  0  0  0  0  0  0  0  0
   10.8526   -1.5971    0.6748 C   0  0  0  0  0  0  0  0  0  0  0  0
   11.1571   -1.0311   -0.1938 H   0  0  0  0  0  0  0  0  0  0  0  0
  1  2  1  0
  2  3  1  0
  3  4  2  0
  4  5  1  0
  4  6  1  0
  6  7  1  0
  7  8  1  0
  6  9  2  0
  9 10  1  0
  9 11  1  0
 11 12  1  0
 12 13  1  0
 13 14  2  0
 13 15  1  0
 15 16  1  6
 16 17  2  0
 17 18  1  0
 17 19  1  0
 19 20  1  0
 19 21  2  0
 21 22  1  0
 21 23  1  0
 23 24  1  0
 23 25  2  0
 25 26  1  0
 15 27  1  0
 27 28  2  0
 28 29  1  0
 28 30  1  0
 30 31  1  0
 30 32  2  0
 32 33  1  0
 32 34  1  0
 34 35  1  0
 35 36  2  0
 36 37  1  0
 36 38  1  0
 38 39  2  0
 39 40  1  0
 39 41  1  0
 41 42  1  0
 41 43  2  0
 43 44  1  0
 34 45  2  0
 45 46  1  0
 15 47  1  0
 47 48  1  0
 47 49  2  0
 49 50  1  0
 50 51  1  0
 50 52  1  0
 11 53  2  0
 53 54  1  0
 53  3  1  0
 49 12  1  0
 25 16  1  0
 45 27  1  0
 43 35  1  0
M  CHG  1  47   1
M  END
>  <score>  (62) 
5.85638

$$$$

     RDKit          3D

 59 63  0  0  0  0  0  0  0  0999 V2000
   15.5560    5.3545   -1.3941 H   0  0  0  0  0  0  0  0  0  0  0  0
   15.5874    4.2877   -1.6034 C   0  0  0  0  0  0  0  0  0  0  0  0
   15.8232    3.8709   -2.8574 N   0  0  0  0  0  0  0  0  0  0  0  0
   15.8769    2.5443   -3.0923 C   0  0  0  0  0  0  0  0  0  0  0  0
   16.0644    2.2095   -4.1067 H   0  0  0  0  0  0  0  0  0  0  0  0
   15.6958    1.5695   -2.0966 C   0  0  0  0  0  0  0  0  0  0  0  0
   15.7757    0.1224   -2.4036 C   0  0  0  0  0  0  0  0  0  0  0  0
   16.3338   -0.3205   -3.6086 C   0  0  0  0  0  0  0  0  0  0  0  0
   16.7146    0.4174   -4.3064 H   0  0  0  0  0  0  0  0  0  0  0  0
   16.4211   -1.6875   -3.8995 C   0  0  0  0  0  0  0  0  0  0  0  0
   16.8629   -2.0071   -4.8367 H   0  0  0  0  0  0  0  0  0  0  0  0
   15.9324   -2.6364   -2.9920 C   0  0  0  0  0  0  0  0  0  0  0  0
   15.9939   -3.6942   -3.2326 H   0  0  0  0  0  0  0  0  0  0  0  0
   15.3576   -2.2287   -1.7744 C   0  0  0  0  0  0  0  0  0  0  0  0
   14.7714   -3.2327   -0.7729 C   0  0  2  0  0  0  0  0  0  0  0  0
   15.1535   -4.6973   -1.0627 C   0  0  0  0  0  0  0  0  0  0  0  0
   16.3787   -5.2176   -0.5990 C   0  0  0  0  0  0  0  0  0  0  0  0
   17.0640   -4.5697   -0.0601 H   0  0  0  0  0  0  0  0  0  0  0  0
   16.7268   -6.5607   -0.8007 C   0  0  0  0  0  0  0  0  0  0  0  0
   17.6668   -6.9461   -0.4182 H   0  0  0  0  0  0  0  0  0  0  0  0
   15.8549   -7.4154   -1.4776 C   0  0  0  0  0  0  0  0  0  0  0  0
   16.1098   -8.4634   -1.6141 H   0  0  0  0  0  0  0  0  0  0  0  0
   14.6423   -6.9181   -1.9626 C   0  0  0  0  0  0  0  0  0  0  0  0
   13.9670   -7.5855   -2.4891 H   0  0  0  0  0  0  0  0  0  0  0  0
   14.2947   -5.5707   -1.7604 C   0  0  0  0  0  0  0  0  0  0  0  0
   13.3457   -5.2036   -2.1379 H   0  0  0  0  0  0  0  0  0  0  0  0
   13.2470   -3.0066   -0.5652 C   0  0  0  0  0  0  0  0  0  0  0  0
   12.3220   -3.0866   -1.3677 O   0  0  0  0  0  0  0  0  0  0  0  0
   13.0124   -2.7766    0.7542 N   0  0  0  0  0  0  0  0  0  0  0  0
   11.7994   -2.4873    1.2984 C   0  0  0  0  0  0  0  0  0  0  0  0
   11.1059   -1.6932    0.6926 O   0  0  0  0  0  0  0  0  0  0  0  0
   11.3280   -3.2251    2.3766 N   0  0  0  0  0  0  0  0  0  0  0  0
   11.8148   -4.5934    2.5599 C   0  0  0  0  0  0  0  0  0  0  0  0
   12.8547   -4.5832    2.9161 H   0  0  0  0  0  0  0  0  0  0  0  0
   11.7837   -5.1155    1.5938 H   0  0  0  0  0  0  0  0  0  0  0  0
   10.9460   -5.3791    3.5519 C   0  0  0  0  0  0  0  0  0  0  0  0
   11.1988   -6.4417    3.4747 H   0  0  0  0  0  0  0  0  0  0  0  0
   11.1584   -5.0278    4.5712 H   0  0  0  0  0  0  0  0  0  0  0  0
    9.4487   -5.2076    3.2636 C   0  0  0  0  0  0  0  0  0  0  0  0
    9.2164   -5.6462    2.2852 H   0  0  0  0  0  0  0  0  0  0  0  0
    8.8642   -5.7490    4.0188 H   0  0  0  0  0  0  0  0  0  0  0  0
    9.0365   -3.7274    3.2547 C   0  0  0  0  0  0  0  0  0  0  0  0
    8.4522   -3.5180    4.1599 H   0  0  0  0  0  0  0  0  0  0  0  0
    8.3940   -3.5476    2.3844 H   0  0  0  0  0  0  0  0  0  0  0  0
   10.2296   -2.7564    3.2326 C   0  0  0  0  0  0  0  0  0  0  0  0
    9.8738   -1.7701    2.9153 H   0  0  0  0  0  0  0  0  0  0  0  0
   10.6107   -2.6723    4.2592 H   0  0  0  0  0  0  0  0  0  0  0  0
   14.1896   -2.6869    1.3998 C   0  0  0  0  0  0  0  0  0  0  0  0
   14.3488   -2.3772    2.7141 N   0  0  0  0  0  0  0  0  0  0  0  0
   15.2965   -2.3285    3.0878 H   0  0  0  0  0  0  0  0  0  0  0  0
   13.5508   -2.0749    3.2698 H   0  0  0  0  0  0  0  0  0  0  0  0
   15.1859   -2.9120    0.6163 N   0  0  0  0  0  4  0  0  0  0  0  0
   16.1598   -2.9226    0.9374 H   0  0  0  0  0  0  0  0  0  0  0  0
   15.2977   -0.8445   -1.5002 C   0  0  0  0  0  0  0  0  0  0  0  0
   14.8578   -0.5057   -0.5674 H   0  0  0  0  0  0  0  0  0  0  0  0
   15.4424    2.0147   -0.7989 C   0  0  0  0  0  0  0  0  0  0  0  0
   15.3255    1.2838   -0.0062 H   0  0  0  0  0  0  0  0  0  0  0  0
   15.3810    3.3892   -0.5547 C   0  0  0  0  0  0  0  0  0  0  0  0
   15.1783    3.7741    0.4375 H   0  0  0  0  0  0  0  0  0  0  0  0
  1  2  1  0
  2  3  2  0
  3  4  1  0
  4  5  1  0
  4  6  2  0
  6  7  1  0
  7  8  2  0
  8  9  1  0
  8 10  1  0
 10 11  1  0
 10 12  2  0
 12 13  1  0
 12 14  1  0
 15 14  1  6
 15 16  1  0
 16 17  2  0
 17 18  1  0
 17 19  1  0
 19 20  1  0
 19 21  2  0
 21 22  1  0
 21 23  1  0
 23 24  1  0
 23 25  2  0
 25 26  1  0
 15 27  1  0
 27 28  2  0
 27 29  1  0
 29 30  1  0
 30 31  2  0
 30 32  1  0
 32 33  1  0
 33 34  1  0
 33 35  1  0
 33 36  1  0
 36 37  1  0
 36 38  1  0
 36 39  1  0
 39 40  1  0
 39 41  1  0
 39 42  1  0
 42 43  1  0
 42 44  1  0
 42 45  1  0
 45 46  1  0
 45 47  1  0
 29 48  1  0
 48 49  1  0
 49 50  1  0
 49 51  1  0
 48 52  2  0
 52 53  1  0
 14 54  2  0
 54 55  1  0
  6 56  1  0
 56 57  1  0
 56 58  2  0
 58 59  1  0
 58  2  1  0
 54  7  1  0
 52 15  1  0
 25 16  1  0
 45 32  1  0
M  CHG  1  52   1
M  END
>  <score>  (63) 
5.85568

$$$$

     RDKit          3D

 49 52  0  0  0  0  0  0  0  0999 V2000
   15.5703    5.3722   -1.3881 H   0  0  0  0  0  0  0  0  0  0  0  0
   15.5847    4.3034   -1.5950 C   0  0  0  0  0  0  0  0  0  0  0  0
   15.8202    3.8815   -2.8471 N   0  0  0  0  0  0  0  0  0  0  0  0
   15.8632    2.5541   -3.0869 C   0  0  0  0  0  0  0  0  0  0  0  0
   16.0423    2.2305   -4.1065 H   0  0  0  0  0  0  0  0  0  0  0  0
   15.6845    1.5716   -2.0952 C   0  0  0  0  0  0  0  0  0  0  0  0
   15.7734    0.1187   -2.4103 C   0  0  0  0  0  0  0  0  0  0  0  0
   16.3473   -0.3224   -3.6128 C   0  0  0  0  0  0  0  0  0  0  0  0
   16.7283    0.4028   -4.3249 H   0  0  0  0  0  0  0  0  0  0  0  0
   16.4321   -1.6904   -3.9095 C   0  0  0  0  0  0  0  0  0  0  0  0
   16.8659   -2.0081   -4.8536 H   0  0  0  0  0  0  0  0  0  0  0  0
   15.9446   -2.6456   -3.0055 C   0  0  0  0  0  0  0  0  0  0  0  0
   16.0054   -3.7013   -3.2606 H   0  0  0  0  0  0  0  0  0  0  0  0
   15.3751   -2.2453   -1.7832 C   0  0  0  0  0  0  0  0  0  0  0  0
   14.8030   -3.2536   -0.7817 C   0  0  2  0  0  0  0  0  0  0  0  0
   15.1679   -4.7175   -1.0706 C   0  0  0  0  0  0  0  0  0  0  0  0
   16.3881   -5.2386   -0.6079 C   0  0  0  0  0  0  0  0  0  0  0  0
   17.0679   -4.5890   -0.0657 H   0  0  0  0  0  0  0  0  0  0  0  0
   16.7291   -6.5821   -0.8020 C   0  0  0  0  0  0  0  0  0  0  0  0
   17.6732   -6.9563   -0.4177 H   0  0  0  0  0  0  0  0  0  0  0  0
   15.8542   -7.4412   -1.4715 C   0  0  0  0  0  0  0  0  0  0  0  0
   16.1220   -8.4866   -1.6115 H   0  0  0  0  0  0  0  0  0  0  0  0
   14.6431   -6.9415   -1.9613 C   0  0  0  0  0  0  0  0  0  0  0  0
   13.9722   -7.6142   -2.4883 H   0  0  0  0  0  0  0  0  0  0  0  0
   14.3023   -5.5908   -1.7676 C   0  0  0  0  0  0  0  0  0  0  0  0
   13.3529   -5.2356   -2.1582 H   0  0  0  0  0  0  0  0  0  0  0  0
   13.2864   -3.0441   -0.5896 C   0  0  0  0  0  0  0  0  0  0  0  0
   12.4127   -3.0834   -1.4502 O   0  0  0  0  0  0  0  0  0  0  0  0
   13.0151   -2.6967    0.7106 N   0  0  0  0  0  0  0  0  0  0  0  0
   11.6900   -2.4259    1.2404 C   0  0  0  0  0  0  0  0  0  0  0  0
   11.0912   -1.8000    0.5572 H   0  0  0  0  0  0  0  0  0  0  0  0
   11.7471   -1.9099    2.2066 H   0  0  0  0  0  0  0  0  0  0  0  0
   11.0689   -3.7014    1.3906 O   0  0  0  0  0  0  0  0  0  0  0  0
   11.4593   -4.3904    2.5917 C   0  0  0  0  0  0  0  0  0  0  0  0
   11.2600   -3.7837    3.4822 H   0  0  0  0  0  0  0  0  0  0  0  0
   12.5298   -4.6142    2.5701 H   0  0  0  0  0  0  0  0  0  0  0  0
   10.9067   -5.3348    2.6907 H   0  0  0  0  0  0  0  0  0  0  0  0
   14.2093   -2.6364    1.3723 C   0  0  0  0  0  0  0  0  0  0  0  0
   14.3884   -2.3388    2.6899 N   0  0  0  0  0  0  0  0  0  0  0  0
   13.5769   -2.1699    3.2800 H   0  0  0  0  0  0  0  0  0  0  0  0
   15.3320   -2.3419    3.0794 H   0  0  0  0  0  0  0  0  0  0  0  0
   15.2063   -2.8975    0.5959 N   0  0  0  0  0  4  0  0  0  0  0  0
   16.1748   -2.9044    0.9081 H   0  0  0  0  0  0  0  0  0  0  0  0
   15.2994   -0.8596   -1.5143 C   0  0  0  0  0  0  0  0  0  0  0  0
   14.8669   -0.5323   -0.5763 H   0  0  0  0  0  0  0  0  0  0  0  0
   15.4308    2.0269   -0.7964 C   0  0  0  0  0  0  0  0  0  0  0  0
   15.2937    1.3149    0.0083 H   0  0  0  0  0  0  0  0  0  0  0  0
   15.3704    3.4029   -0.5501 C   0  0  0  0  0  0  0  0  0  0  0  0
   15.1676    3.7880    0.4433 H   0  0  0  0  0  0  0  0  0  0  0  0
  1  2  1  0
  2  3  2  0
  3  4  1  0
  4  5  1  0
  4  6  2  0
  6  7  1  0
  7  8  2  0
  8  9  1  0
  8 10  1  0
 10 11  1  0
 10 12  2  0
 12 13  1  0
 12 14  1  0
 15 14  1  6
 15 16  1  0
 16 17  2  0
 17 18  1  0
 17 19  1  0
 19 20  1  0
 19 21  2  0
 21 22  1  0
 21 23  1  0
 23 24  1  0
 23 25  2  0
 25 26  1  0
 15 27  1  0
 27 28  2  0
 27 29  1  0
 29 30  1  0
 30 31  1  0
 30 32  1  0
 30 33  1  0
 33 34  1  0
 34 35  1  0
 34 36  1  0
 34 37  1  0
 29 38  1  0
 38 39  1  0
 39 40  1  0
 39 41  1  0
 38 42  2  0
 42 43  1  0
 14 44  2  0
 44 45  1  0
  6 46  1  0
 46 47  1  0
 46 48  2  0
 48 49  1  0
 48  2  1  0
 44  7  1  0
 42 15  1  0
 25 16  1  0
M  CHG  1  42   1
M  END
>  <score>  (64) 
5.85531

$$$$

     RDKit          3D

 46 49  0  0  0  0  0  0  0  0999 V2000
   12.1750   -0.1929   -0.3663 H   0  0  0  0  0  0  0  0  0  0  0  0
   11.8377   -0.3120    0.9309 S   0  0  0  0  0  0  0  0  0  0  0  0
   11.7540   -2.1274    1.1853 C   0  0  0  0  0  0  0  0  0  0  0  0
   11.5965   -2.3723    2.2472 H   0  0  0  0  0  0  0  0  0  0  0  0
   10.8989   -2.5382    0.6285 H   0  0  0  0  0  0  0  0  0  0  0  0
   13.0141   -2.6821    0.7096 N   0  0  0  0  0  0  0  0  0  0  0  0
   13.2970   -3.0173   -0.5963 C   0  0  0  0  0  0  0  0  0  0  0  0
   12.4248   -3.0671   -1.4640 O   0  0  0  0  0  0  0  0  0  0  0  0
   14.8131   -3.2399   -0.7733 C   0  0  1  0  0  0  0  0  0  0  0  0
   15.1801   -4.7009   -1.0703 C   0  0  0  0  0  0  0  0  0  0  0  0
   16.3980   -5.2244   -0.6051 C   0  0  0  0  0  0  0  0  0  0  0  0
   17.0746   -4.5747   -0.0573 H   0  0  0  0  0  0  0  0  0  0  0  0
   16.7373   -6.5690   -0.8038 C   0  0  0  0  0  0  0  0  0  0  0  0
   17.6729   -6.9576   -0.4126 H   0  0  0  0  0  0  0  0  0  0  0  0
   15.8586   -7.4187   -1.4815 C   0  0  0  0  0  0  0  0  0  0  0  0
   16.1062   -8.4683   -1.6151 H   0  0  0  0  0  0  0  0  0  0  0  0
   14.6469   -6.9170   -1.9666 C   0  0  0  0  0  0  0  0  0  0  0  0
   13.9631   -7.5818   -2.4878 H   0  0  0  0  0  0  0  0  0  0  0  0
   14.3103   -5.5670   -1.7648 C   0  0  0  0  0  0  0  0  0  0  0  0
   13.3578   -5.1948   -2.1283 H   0  0  0  0  0  0  0  0  0  0  0  0
   15.3787   -2.2309   -1.7750 C   0  0  0  0  0  0  0  0  0  0  0  0
   15.9418   -2.6363   -2.9958 C   0  0  0  0  0  0  0  0  0  0  0  0
   15.9993   -3.6952   -3.2326 H   0  0  0  0  0  0  0  0  0  0  0  0
   16.4217   -1.6845   -3.9046 C   0  0  0  0  0  0  0  0  0  0  0  0
   16.8640   -2.0015   -4.8428 H   0  0  0  0  0  0  0  0  0  0  0  0
   16.3296   -0.3178   -3.6106 C   0  0  0  0  0  0  0  0  0  0  0  0
   16.7093    0.4288   -4.2997 H   0  0  0  0  0  0  0  0  0  0  0  0
   15.7729    0.1213   -2.4052 C   0  0  0  0  0  0  0  0  0  0  0  0
   15.6953    1.5673   -2.0983 C   0  0  0  0  0  0  0  0  0  0  0  0
   15.8790    2.5411   -3.0937 C   0  0  0  0  0  0  0  0  0  0  0  0
   16.0723    2.2008   -4.1054 H   0  0  0  0  0  0  0  0  0  0  0  0
   15.8225    3.8677   -2.8597 N   0  0  0  0  0  0  0  0  0  0  0  0
   15.5866    4.2843   -1.6054 C   0  0  0  0  0  0  0  0  0  0  0  0
   15.5530    5.3509   -1.3947 H   0  0  0  0  0  0  0  0  0  0  0  0
   15.3838    3.3849   -0.5562 C   0  0  0  0  0  0  0  0  0  0  0  0
   15.1809    3.7716    0.4352 H   0  0  0  0  0  0  0  0  0  0  0  0
   15.4470    2.0099   -0.8003 C   0  0  0  0  0  0  0  0  0  0  0  0
   15.3367    1.2711   -0.0131 H   0  0  0  0  0  0  0  0  0  0  0  0
   15.3046   -0.8474   -1.5006 C   0  0  0  0  0  0  0  0  0  0  0  0
   14.8656   -0.5091   -0.5668 H   0  0  0  0  0  0  0  0  0  0  0  0
   15.2303   -2.9058    0.6078 N   0  0  0  0  0  4  0  0  0  0  0  0
   16.1983   -2.9523    0.9403 H   0  0  0  0  0  0  0  0  0  0  0  0
   14.2254   -2.6059    1.3625 C   0  0  0  0  0  0  0  0  0  0  0  0
   14.4037   -2.2656    2.6696 N   0  0  0  0  0  0  0  0  0  0  0  0
   13.5891   -2.1202    3.2643 H   0  0  0  0  0  0  0  0  0  0  0  0
   15.3356   -2.3390    3.0747 H   0  0  0  0  0  0  0  0  0  0  0  0
  1  2  1  0
  2  3  1  0
  3  4  1  0
  3  5  1  0
  3  6  1  0
  6  7  1  0
  7  8  2  0
  7  9  1  0
  9 10  1  6
 10 11  2  0
 11 12  1  0
 11 13  1  0
 13 14  1  0
 13 15  2  0
 15 16  1  0
 15 17  1  0
 17 18  1  0
 17 19  2  0
 19 20  1  0
  9 21  1  0
 21 22  2  0
 22 23  1  0
 22 24  1  0
 24 25  1  0
 24 26  2  0
 26 27  1  0
 26 28  1  0
 28 29  1  0
 29 30  2  0
 30 31  1  0
 30 32  1  0
 32 33  2  0
 33 34  1  0
 33 35  1  0
 35 36  1  0
 35 37  2  0
 37 38  1  0
 28 39  2  0
 39 40  1  0
  9 41  1  0
 41 42  1  0
 41 43  2  0
 43 44  1  0
 44 45  1  0
 44 46  1  0
 43  6  1  0
 19 10  1  0
 39 21  1  0
 37 29  1  0
M  CHG  1  41   1
M  END
>  <score>  (65) 
5.85053

$$$$

     RDKit          3D

 55 58  0  0  0  0  0  0  0  0999 V2000
   15.5502    5.3458   -1.3976 H   0  0  0  0  0  0  0  0  0  0  0  0
   15.5868    4.2803   -1.6063 C   0  0  0  0  0  0  0  0  0  0  0  0
   15.8254    3.8662   -2.8601 N   0  0  0  0  0  0  0  0  0  0  0  0
   15.8807    2.5402   -3.0952 C   0  0  0  0  0  0  0  0  0  0  0  0
   16.0752    2.1988   -4.1075 H   0  0  0  0  0  0  0  0  0  0  0  0
   15.6983    1.5683   -2.0973 C   0  0  0  0  0  0  0  0  0  0  0  0
   15.7749    0.1233   -2.4059 C   0  0  0  0  0  0  0  0  0  0  0  0
   16.3316   -0.3154   -3.6120 C   0  0  0  0  0  0  0  0  0  0  0  0
   16.7096    0.4300   -4.3040 H   0  0  0  0  0  0  0  0  0  0  0  0
   16.4177   -1.6819   -3.9089 C   0  0  0  0  0  0  0  0  0  0  0  0
   16.8646   -2.0032   -4.8437 H   0  0  0  0  0  0  0  0  0  0  0  0
   15.9384   -2.6315   -2.9981 C   0  0  0  0  0  0  0  0  0  0  0  0
   16.0001   -3.6901   -3.2341 H   0  0  0  0  0  0  0  0  0  0  0  0
   15.3811   -2.2282   -1.7750 C   0  0  0  0  0  0  0  0  0  0  0  0
   14.8252   -3.2384   -0.7724 C   0  0  2  0  0  0  0  0  0  0  0  0
   15.1899   -4.6978   -1.0695 C   0  0  0  0  0  0  0  0  0  0  0  0
   16.4056   -5.2235   -0.6049 C   0  0  0  0  0  0  0  0  0  0  0  0
   17.0813   -4.5744   -0.0564 H   0  0  0  0  0  0  0  0  0  0  0  0
   16.7391   -6.5696   -0.8007 C   0  0  0  0  0  0  0  0  0  0  0  0
   17.6758   -6.9591   -0.4119 H   0  0  0  0  0  0  0  0  0  0  0  0
   15.8589   -7.4159   -1.4816 C   0  0  0  0  0  0  0  0  0  0  0  0
   16.1047   -8.4658   -1.6165 H   0  0  0  0  0  0  0  0  0  0  0  0
   14.6482   -6.9120   -1.9672 C   0  0  0  0  0  0  0  0  0  0  0  0
   13.9609   -7.5755   -2.4863 H   0  0  0  0  0  0  0  0  0  0  0  0
   14.3162   -5.5619   -1.7631 C   0  0  0  0  0  0  0  0  0  0  0  0
   13.3630   -5.1888   -2.1251 H   0  0  0  0  0  0  0  0  0  0  0  0
   13.3040   -3.0430   -0.6002 C   0  0  0  0  0  0  0  0  0  0  0  0
   12.4400   -3.1609   -1.4673 O   0  0  0  0  0  0  0  0  0  0  0  0
   13.0250   -2.6554    0.6980 N   0  0  0  0  0  0  0  0  0  0  0  0
   11.6897   -2.5731    1.3161 C   0  0  0  0  0  0  0  0  0  0  0  0
   10.9368   -2.2702    0.5769 H   0  0  0  0  0  0  0  0  0  0  0  0
   11.6833   -1.8151    2.1094 H   0  0  0  0  0  0  0  0  0  0  0  0
   11.2719   -3.9214    1.9089 C   0  0  0  0  0  0  0  0  0  0  0  0
   11.3141   -4.6868    1.1231 H   0  0  0  0  0  0  0  0  0  0  0  0
   11.9882   -4.2046    2.6887 H   0  0  0  0  0  0  0  0  0  0  0  0
    9.9261   -3.8502    2.4760 N   0  0  0  0  0  0  0  0  0  0  0  0
    9.8164   -3.8207    3.4882 H   0  0  0  0  0  0  0  0  0  0  0  0
    8.7762   -3.8118    1.7148 C   0  0  0  0  0  0  0  0  0  0  0  0
    8.8226   -3.8179    0.4928 O   0  0  0  0  0  0  0  0  0  0  0  0
    7.4385   -3.7292    2.4162 C   0  0  0  0  0  0  0  0  0  0  0  0
    6.6698   -3.4720    1.6885 H   0  0  0  0  0  0  0  0  0  0  0  0
    7.1864   -4.6837    2.8823 H   0  0  0  0  0  0  0  0  0  0  0  0
    7.4678   -2.9647    3.1934 H   0  0  0  0  0  0  0  0  0  0  0  0
   14.2359   -2.6216    1.3628 C   0  0  0  0  0  0  0  0  0  0  0  0
   14.4051   -2.3550    2.6870 N   0  0  0  0  0  0  0  0  0  0  0  0
   13.5973   -2.1343    3.2658 H   0  0  0  0  0  0  0  0  0  0  0  0
   15.3463   -2.3362    3.0764 H   0  0  0  0  0  0  0  0  0  0  0  0
   15.2468   -2.8898    0.6023 N   0  0  0  0  0  4  0  0  0  0  0  0
   16.2113   -2.9630    0.9381 H   0  0  0  0  0  0  0  0  0  0  0  0
   15.3044   -0.8446   -1.5021 C   0  0  0  0  0  0  0  0  0  0  0  0
   14.8670   -0.5033   -0.5690 H   0  0  0  0  0  0  0  0  0  0  0  0
   15.4506    2.0098   -0.7989 C   0  0  0  0  0  0  0  0  0  0  0  0
   15.3412    1.2716   -0.0110 H   0  0  0  0  0  0  0  0  0  0  0  0
   15.3850    3.3826   -0.5574 C   0  0  0  0  0  0  0  0  0  0  0  0
   15.1854    3.7669    0.4342 H   0  0  0  0  0  0  0  0  0  0  0  0
  1  2  1  0
  2  3  2  0
  3  4  1  0
  4  5  1  0
  4  6  2  0
  6  7  1  0
  7  8  2  0
  8  9  1  0
  8 10  1  0
 10 11  1  0
 10 12  2  0
 12 13  1  0
 12 14  1  0
 15 14  1  6
 15 16  1  0
 16 17  2  0
 17 18  1  0
 17 19  1  0
 19 20  1  0
 19 21  2  0
 21 22  1  0
 21 23  1  0
 23 24  1  0
 23 25  2  0
 25 26  1  0
 15 27  1  0
 27 28  2  0
 27 29  1  0
 29 30  1  0
 30 31  1  0
 30 32  1  0
 30 33  1  0
 33 34  1  0
 33 35  1  0
 33 36  1  0
 36 37  1  0
 36 38  1  0
 38 39  2  0
 38 40  1  0
 40 41  1  0
 40 42  1  0
 40 43  1  0
 29 44  1  0
 44 45  1  0
 45 46  1  0
 45 47  1  0
 44 48  2  0
 48 49  1  0
 14 50  2  0
 50 51  1  0
  6 52  1  0
 52 53  1  0
 52 54  2  0
 54 55  1  0
 54  2  1  0
 50  7  1  0
 48 15  1  0
 25 16  1  0
M  CHG  1  48   1
M  END
>  <score>  (66) 
5.84992

$$$$

     RDKit          3D

 42 45  0  0  0  0  0  0  0  0999 V2000
   15.5700    5.3723   -1.3879 H   0  0  0  0  0  0  0  0  0  0  0  0
   15.5831    4.3034   -1.5947 C   0  0  0  0  0  0  0  0  0  0  0  0
   15.8197    3.8810   -2.8461 N   0  0  0  0  0  0  0  0  0  0  0  0
   15.8628    2.5535   -3.0879 C   0  0  0  0  0  0  0  0  0  0  0  0
   16.0457    2.2256   -4.1063 H   0  0  0  0  0  0  0  0  0  0  0  0
   15.6859    1.5718   -2.0953 C   0  0  0  0  0  0  0  0  0  0  0  0
   15.7705    0.1182   -2.4108 C   0  0  0  0  0  0  0  0  0  0  0  0
   16.3500   -0.3222   -3.6106 C   0  0  0  0  0  0  0  0  0  0  0  0
   16.7245    0.4086   -4.3216 H   0  0  0  0  0  0  0  0  0  0  0  0
   16.4324   -1.6902   -3.9097 C   0  0  0  0  0  0  0  0  0  0  0  0
   16.8654   -2.0071   -4.8529 H   0  0  0  0  0  0  0  0  0  0  0  0
   15.9466   -2.6460   -3.0083 C   0  0  0  0  0  0  0  0  0  0  0  0
   16.0054   -3.7018   -3.2581 H   0  0  0  0  0  0  0  0  0  0  0  0
   15.3828   -2.2460   -1.7857 C   0  0  0  0  0  0  0  0  0  0  0  0
   14.8177   -3.2547   -0.7870 C   0  0  2  0  0  0  0  0  0  0  0  0
   15.1751   -4.7184   -1.0765 C   0  0  0  0  0  0  0  0  0  0  0  0
   16.3933   -5.2398   -0.6114 C   0  0  0  0  0  0  0  0  0  0  0  0
   17.0668   -4.5876   -0.0638 H   0  0  0  0  0  0  0  0  0  0  0  0
   16.7290   -6.5834   -0.8023 C   0  0  0  0  0  0  0  0  0  0  0  0
   17.6722   -6.9555   -0.4167 H   0  0  0  0  0  0  0  0  0  0  0  0
   15.8536   -7.4406   -1.4728 C   0  0  0  0  0  0  0  0  0  0  0  0
   16.1213   -8.4860   -1.6111 H   0  0  0  0  0  0  0  0  0  0  0  0
   14.6428   -6.9396   -1.9620 C   0  0  0  0  0  0  0  0  0  0  0  0
   13.9724   -7.6127   -2.4880 H   0  0  0  0  0  0  0  0  0  0  0  0
   14.3031   -5.5896   -1.7679 C   0  0  0  0  0  0  0  0  0  0  0  0
   13.3526   -5.2339   -2.1575 H   0  0  0  0  0  0  0  0  0  0  0  0
   13.3009   -3.0308   -0.6073 C   0  0  0  0  0  0  0  0  0  0  0  0
   12.4331   -3.0891   -1.4754 O   0  0  0  0  0  0  0  0  0  0  0  0
   13.0307   -2.6799    0.6976 N   0  0  0  0  0  0  0  0  0  0  0  0
   11.7505   -2.3286    1.2396 F   0  0  0  0  0  0  0  0  0  0  0  0
   14.2335   -2.6301    1.3656 C   0  0  0  0  0  0  0  0  0  0  0  0
   14.3990   -2.3286    2.6935 N   0  0  0  0  0  0  0  0  0  0  0  0
   15.3314   -2.3467    3.1097 H   0  0  0  0  0  0  0  0  0  0  0  0
   13.5826   -2.1317    3.2726 H   0  0  0  0  0  0  0  0  0  0  0  0
   15.2346   -2.9059    0.5895 N   0  0  0  0  0  4  0  0  0  0  0  0
   16.2095   -2.9172    0.8957 H   0  0  0  0  0  0  0  0  0  0  0  0
   15.2952   -0.8604   -1.5165 C   0  0  0  0  0  0  0  0  0  0  0  0
   14.8696   -0.5280   -0.5756 H   0  0  0  0  0  0  0  0  0  0  0  0
   15.4361    2.0262   -0.7963 C   0  0  0  0  0  0  0  0  0  0  0  0
   15.2966    1.3086    0.0034 H   0  0  0  0  0  0  0  0  0  0  0  0
   15.3717    3.4021   -0.5510 C   0  0  0  0  0  0  0  0  0  0  0  0
   15.1679    3.7877    0.4404 H   0  0  0  0  0  0  0  0  0  0  0  0
  1  2  1  0
  2  3  2  0
  3  4  1  0
  4  5  1  0
  4  6  2  0
  6  7  1  0
  7  8  2  0
  8  9  1  0
  8 10  1  0
 10 11  1  0
 10 12  2  0
 12 13  1  0
 12 14  1  0
 15 14  1  6
 15 16  1  0
 16 17  2  0
 17 18  1  0
 17 19  1  0
 19 20  1  0
 19 21  2  0
 21 22  1  0
 21 23  1  0
 23 24  1  0
 23 25  2  0
 25 26  1  0
 15 27  1  0
 27 28  2  0
 27 29  1  0
 29 30  1  0
 29 31  1  0
 31 32  1  0
 32 33  1  0
 32 34  1  0
 31 35  2  0
 35 36  1  0
 14 37  2  0
 37 38  1  0
  6 39  1  0
 39 40  1  0
 39 41  2  0
 41 42  1  0
 41  2  1  0
 37  7  1  0
 35 15  1  0
 25 16  1  0
M  CHG  1  35   1
M  END
>  <score>  (67) 
5.8462

$$$$

     RDKit          3D

 54 58  0  0  0  0  0  0  0  0999 V2000
   15.5476    5.3436   -1.3983 H   0  0  0  0  0  0  0  0  0  0  0  0
   15.5871    4.2779   -1.6082 C   0  0  0  0  0  0  0  0  0  0  0  0
   15.8256    3.8642   -2.8625 N   0  0  0  0  0  0  0  0  0  0  0  0
   15.8845    2.5377   -3.0960 C   0  0  0  0  0  0  0  0  0  0  0  0
   16.0795    2.1943   -4.1073 H   0  0  0  0  0  0  0  0  0  0  0  0
   15.7025    1.5673   -2.0972 C   0  0  0  0  0  0  0  0  0  0  0  0
   15.7746    0.1238   -2.3994 C   0  0  0  0  0  0  0  0  0  0  0  0
   16.3279   -0.3185   -3.6037 C   0  0  0  0  0  0  0  0  0  0  0  0
   16.7058    0.4262   -4.2969 H   0  0  0  0  0  0  0  0  0  0  0  0
   16.4118   -1.6850   -3.8930 C   0  0  0  0  0  0  0  0  0  0  0  0
   16.8602   -2.0078   -4.8263 H   0  0  0  0  0  0  0  0  0  0  0  0
   15.9217   -2.6296   -2.9809 C   0  0  0  0  0  0  0  0  0  0  0  0
   15.9855   -3.6891   -3.2156 H   0  0  0  0  0  0  0  0  0  0  0  0
   15.3498   -2.2210   -1.7633 C   0  0  0  0  0  0  0  0  0  0  0  0
   14.7622   -3.2259   -0.7666 C   0  0  2  0  0  0  0  0  0  0  0  0
   15.1511   -4.6857   -1.0545 C   0  0  0  0  0  0  0  0  0  0  0  0
   16.3780   -5.2045   -0.5951 C   0  0  0  0  0  0  0  0  0  0  0  0
   17.0622   -4.5570   -0.0540 H   0  0  0  0  0  0  0  0  0  0  0  0
   16.7259   -6.5482   -0.8000 C   0  0  0  0  0  0  0  0  0  0  0  0
   17.6641   -6.9391   -0.4175 H   0  0  0  0  0  0  0  0  0  0  0  0
   15.8540   -7.3994   -1.4815 C   0  0  0  0  0  0  0  0  0  0  0  0
   16.1031   -8.4496   -1.6159 H   0  0  0  0  0  0  0  0  0  0  0  0
   14.6421   -6.9006   -1.9647 C   0  0  0  0  0  0  0  0  0  0  0  0
   13.9637   -7.5662   -2.4891 H   0  0  0  0  0  0  0  0  0  0  0  0
   14.2930   -5.5554   -1.7542 C   0  0  0  0  0  0  0  0  0  0  0  0
   13.3430   -5.1831   -2.1233 H   0  0  0  0  0  0  0  0  0  0  0  0
   13.2340   -3.0015   -0.5941 C   0  0  0  0  0  0  0  0  0  0  0  0
   12.3297   -3.1150   -1.4201 O   0  0  0  0  0  0  0  0  0  0  0  0
   12.9925   -2.6995    0.7159 N   0  0  0  0  0  0  0  0  0  0  0  0
   11.7475   -2.5344    1.2322 C   0  0  0  0  0  0  0  0  0  0  0  0
   10.9138   -1.7727    0.5280 N   0  0  0  0  0  0  0  0  0  0  0  0
    9.6773   -1.5789    1.0170 C   0  0  0  0  0  0  0  0  0  0  0  0
    8.9880   -0.9000    0.5166 H   0  0  0  0  0  0  0  0  0  0  0  0
    9.2349   -2.2106    2.1780 C   0  0  0  0  0  0  0  0  0  0  0  0
    8.2474   -2.0154    2.5710 H   0  0  0  0  0  0  0  0  0  0  0  0
   10.0849   -3.0454    2.8769 C   0  0  0  0  0  0  0  0  0  0  0  0
    9.6316   -3.6461    4.1569 C   0  0  0  0  0  0  0  0  0  0  0  0
   10.1870   -4.5621    4.3602 H   0  0  0  0  0  0  0  0  0  0  0  0
    9.8255   -2.9133    4.9422 H   0  0  0  0  0  0  0  0  0  0  0  0
    8.5601   -3.8780    4.1250 H   0  0  0  0  0  0  0  0  0  0  0  0
   11.3826   -3.1822    2.4053 C   0  0  0  0  0  0  0  0  0  0  0  0
   12.1199   -3.7643    2.9381 H   0  0  0  0  0  0  0  0  0  0  0  0
   14.1631   -2.6660    1.4002 C   0  0  0  0  0  0  0  0  0  0  0  0
   14.3442   -2.4045    2.7271 N   0  0  0  0  0  0  0  0  0  0  0  0
   15.3032   -2.3147    3.0577 H   0  0  0  0  0  0  0  0  0  0  0  0
   13.5814   -2.0020    3.2732 H   0  0  0  0  0  0  0  0  0  0  0  0
   15.1667   -2.9084    0.6260 N   0  0  0  0  0  4  0  0  0  0  0  0
   16.1284   -2.9535    0.9660 H   0  0  0  0  0  0  0  0  0  0  0  0
   15.2928   -0.8363   -1.4920 C   0  0  0  0  0  0  0  0  0  0  0  0
   14.8559   -0.4869   -0.5616 H   0  0  0  0  0  0  0  0  0  0  0  0
   15.4538    2.0073   -0.7997 C   0  0  0  0  0  0  0  0  0  0  0  0
   15.3462    1.2650   -0.0145 H   0  0  0  0  0  0  0  0  0  0  0  0
   15.3872    3.3801   -0.5583 C   0  0  0  0  0  0  0  0  0  0  0  0
   15.1863    3.7652    0.4334 H   0  0  0  0  0  0  0  0  0  0  0  0
  1  2  1  0
  2  3  2  0
  3  4  1  0
  4  5  1  0
  4  6  2  0
  6  7  1  0
  7  8  2  0
  8  9  1  0
  8 10  1  0
 10 11  1  0
 10 12  2  0
 12 13  1  0
 12 14  1  0
 15 14  1  6
 15 16  1  0
 16 17  2  0
 17 18  1  0
 17 19  1  0
 19 20  1  0
 19 21  2  0
 21 22  1  0
 21 23  1  0
 23 24  1  0
 23 25  2  0
 25 26  1  0
 15 27  1  0
 27 28  2  0
 27 29  1  0
 29 30  1  0
 30 31  2  0
 31 32  1  0
 32 33  1  0
 32 34  2  0
 34 35  1  0
 34 36  1  0
 36 37  1  0
 37 38  1  0
 37 39  1  0
 37 40  1  0
 36 41  2  0
 41 42  1  0
 29 43  1  0
 43 44  1  0
 44 45  1  0
 44 46  1  0
 43 47  2  0
 47 48  1  0
 14 49  2  0
 49 50  1  0
  6 51  1  0
 51 52  1  0
 51 53  2  0
 53 54  1  0
 53  2  1  0
 49  7  1  0
 47 15  1  0
 25 16  1  0
 41 30  1  0
M  CHG  1  47   1
M  END
>  <score>  (68) 
5.84519

$$$$

     RDKit          3D

 66 69  0  0  0  0  0  0  0  0999 V2000
   15.5280    5.3230   -1.4154 H   0  0  0  0  0  0  0  0  0  0  0  0
   15.5878    4.2576   -1.6154 C   0  0  0  0  0  0  0  0  0  0  0  0
   15.8383    3.8452   -2.8681 N   0  0  0  0  0  0  0  0  0  0  0  0
   15.9050    2.5216   -3.0991 C   0  0  0  0  0  0  0  0  0  0  0  0
   16.1020    2.1928   -4.1140 H   0  0  0  0  0  0  0  0  0  0  0  0
   15.7145    1.5529   -2.0989 C   0  0  0  0  0  0  0  0  0  0  0  0
   15.7778    0.1171   -2.4008 C   0  0  0  0  0  0  0  0  0  0  0  0
   16.3237   -0.3181   -3.6107 C   0  0  0  0  0  0  0  0  0  0  0  0
   16.7023    0.4162   -4.3137 H   0  0  0  0  0  0  0  0  0  0  0  0
   16.4121   -1.6814   -3.8960 C   0  0  0  0  0  0  0  0  0  0  0  0
   16.8493   -1.9989   -4.8353 H   0  0  0  0  0  0  0  0  0  0  0  0
   15.9337   -2.6238   -2.9790 C   0  0  0  0  0  0  0  0  0  0  0  0
   15.9953   -3.6807   -3.2132 H   0  0  0  0  0  0  0  0  0  0  0  0
   15.3704   -2.2185   -1.7580 C   0  0  0  0  0  0  0  0  0  0  0  0
   14.8211   -3.2293   -0.7531 C   0  0  2  0  0  0  0  0  0  0  0  0
   15.2014   -4.6778   -1.0498 C   0  0  0  0  0  0  0  0  0  0  0  0
   16.4204   -5.2059   -0.5913 C   0  0  0  0  0  0  0  0  0  0  0  0
   17.1113   -4.5658   -0.0488 H   0  0  0  0  0  0  0  0  0  0  0  0
   16.7463   -6.5499   -0.8021 C   0  0  0  0  0  0  0  0  0  0  0  0
   17.6802   -6.9452   -0.4150 H   0  0  0  0  0  0  0  0  0  0  0  0
   15.8574   -7.3871   -1.4835 C   0  0  0  0  0  0  0  0  0  0  0  0
   16.0993   -8.4348   -1.6323 H   0  0  0  0  0  0  0  0  0  0  0  0
   14.6488   -6.8722   -1.9625 C   0  0  0  0  0  0  0  0  0  0  0  0
   13.9558   -7.5186   -2.4918 H   0  0  0  0  0  0  0  0  0  0  0  0
   14.3245   -5.5268   -1.7501 C   0  0  0  0  0  0  0  0  0  0  0  0
   13.3744   -5.1433   -2.1093 H   0  0  0  0  0  0  0  0  0  0  0  0
   13.2992   -3.0548   -0.5708 C   0  0  0  0  0  0  0  0  0  0  0  0
   12.4302   -3.2449   -1.4198 O   0  0  0  0  0  0  0  0  0  0  0  0
   13.0262   -2.6686    0.7261 N   0  0  0  0  0  0  0  0  0  0  0  0
   11.6963   -2.5708    1.3377 C   0  0  0  0  0  0  0  0  0  0  0  0
   10.9572   -2.2586    0.5876 H   0  0  0  0  0  0  0  0  0  0  0  0
   11.7071   -1.8051    2.1245 H   0  0  0  0  0  0  0  0  0  0  0  0
   11.2889   -3.9218    1.9370 C   0  0  0  0  0  0  0  0  0  0  0  0
   11.3019   -4.6842    1.1470 H   0  0  0  0  0  0  0  0  0  0  0  0
   12.0224   -4.2117    2.7009 H   0  0  0  0  0  0  0  0  0  0  0  0
    9.8804   -3.8472    2.5660 C   0  0  0  0  0  0  0  0  0  0  0  0
    9.1541   -3.5720    1.7901 H   0  0  0  0  0  0  0  0  0  0  0  0
    9.8640   -3.0737    3.3443 H   0  0  0  0  0  0  0  0  0  0  0  0
    9.4825   -5.2015    3.1755 C   0  0  0  0  0  0  0  0  0  0  0  0
   10.1792   -5.4627    3.9820 H   0  0  0  0  0  0  0  0  0  0  0  0
    9.5698   -5.9686    2.3968 H   0  0  0  0  0  0  0  0  0  0  0  0
    8.0374   -5.2303    3.7043 C   0  0  0  0  0  0  0  0  0  0  0  0
    7.7833   -6.2753    3.9218 H   0  0  0  0  0  0  0  0  0  0  0  0
    7.3574   -4.8768    2.9189 H   0  0  0  0  0  0  0  0  0  0  0  0
    7.7919   -4.4194    4.9880 C   0  0  0  0  0  0  0  0  0  0  0  0
    7.9193   -3.3498    4.7847 H   0  0  0  0  0  0  0  0  0  0  0  0
    8.5047   -4.7167    5.7658 H   0  0  0  0  0  0  0  0  0  0  0  0
    6.3595   -4.7183    5.4638 C   0  0  0  0  0  0  0  0  0  0  0  0
    5.6382   -4.3309    4.7375 H   0  0  0  0  0  0  0  0  0  0  0  0
    6.2561   -5.8090    5.5072 H   0  0  0  0  0  0  0  0  0  0  0  0
    6.0038   -4.1409    6.8371 C   0  0  0  0  0  0  0  0  0  0  0  0
    5.5392   -3.1544    6.7267 H   0  0  0  0  0  0  0  0  0  0  0  0
    6.8850   -4.0799    7.4782 H   0  0  0  0  0  0  0  0  0  0  0  0
    5.2840   -4.7854    7.3489 H   0  0  0  0  0  0  0  0  0  0  0  0
   14.2285   -2.6342    1.3909 C   0  0  0  0  0  0  0  0  0  0  0  0
   14.4062   -2.3906    2.7206 N   0  0  0  0  0  0  0  0  0  0  0  0
   13.6066   -2.1060    3.2858 H   0  0  0  0  0  0  0  0  0  0  0  0
   15.3551   -2.3006    3.0821 H   0  0  0  0  0  0  0  0  0  0  0  0
   15.2379   -2.8899    0.6235 N   0  0  0  0  0  4  0  0  0  0  0  0
   16.1935   -2.9935    0.9672 H   0  0  0  0  0  0  0  0  0  0  0  0
   15.3020   -0.8386   -1.4864 C   0  0  0  0  0  0  0  0  0  0  0  0
   14.8608   -0.4992   -0.5529 H   0  0  0  0  0  0  0  0  0  0  0  0
   15.4751    1.9913   -0.7985 C   0  0  0  0  0  0  0  0  0  0  0  0
   15.3710    1.2692    0.0055 H   0  0  0  0  0  0  0  0  0  0  0  0
   15.4050    3.3613   -0.5586 C   0  0  0  0  0  0  0  0  0  0  0  0
   15.2106    3.7359    0.4392 H   0  0  0  0  0  0  0  0  0  0  0  0
  1  2  1  0
  2  3  2  0
  3  4  1  0
  4  5  1  0
  4  6  2  0
  6  7  1  0
  7  8  2  0
  8  9  1  0
  8 10  1  0
 10 11  1  0
 10 12  2  0
 12 13  1  0
 12 14  1  0
 15 14  1  6
 15 16  1  0
 16 17  2  0
 17 18  1  0
 17 19  1  0
 19 20  1  0
 19 21  2  0
 21 22  1  0
 21 23  1  0
 23 24  1  0
 23 25  2  0
 25 26  1  0
 15 27  1  0
 27 28  2  0
 27 29  1  0
 29 30  1  0
 30 31  1  0
 30 32  1  0
 30 33  1  0
 33 34  1  0
 33 35  1  0
 33 36  1  0
 36 37  1  0
 36 38  1  0
 36 39  1  0
 39 40  1  0
 39 41  1  0
 39 42  1  0
 42 43  1  0
 42 44  1  0
 42 45  1  0
 45 46  1  0
 45 47  1  0
 45 48  1  0
 48 49  1  0
 48 50  1  0
 48 51  1  0
 51 52  1  0
 51 53  1  0
 51 54  1  0
 29 55  1  0
 55 56  1  0
 56 57  1  0
 56 58  1  0
 55 59  2  0
 59 60  1  0
 14 61  2  0
 61 62  1  0
  6 63  1  0
 63 64  1  0
 63 65  2  0
 65 66  1  0
 65  2  1  0
 61  7  1  0
 59 15  1  0
 25 16  1  0
M  CHG  1  59   1
M  END
>  <score>  (69) 
5.84424

$$$$

     RDKit          3D

 52 56  0  0  0  0  0  0  0  0999 V2000
   15.5695    5.3717   -1.3877 H   0  0  0  0  0  0  0  0  0  0  0  0
   15.5847    4.3029   -1.5959 C   0  0  0  0  0  0  0  0  0  0  0  0
   15.8196    3.8806   -2.8486 N   0  0  0  0  0  0  0  0  0  0  0  0
   15.8645    2.5528   -3.0871 C   0  0  0  0  0  0  0  0  0  0  0  0
   16.0445    2.2271   -4.1054 H   0  0  0  0  0  0  0  0  0  0  0  0
   15.6848    1.5702   -2.0958 C   0  0  0  0  0  0  0  0  0  0  0  0
   15.7725    0.1183   -2.4098 C   0  0  0  0  0  0  0  0  0  0  0  0
   16.3451   -0.3219   -3.6123 C   0  0  0  0  0  0  0  0  0  0  0  0
   16.7272    0.4044   -4.3224 H   0  0  0  0  0  0  0  0  0  0  0  0
   16.4314   -1.6902   -3.9076 C   0  0  0  0  0  0  0  0  0  0  0  0
   16.8650   -2.0085   -4.8517 H   0  0  0  0  0  0  0  0  0  0  0  0
   15.9421   -2.6455   -3.0040 C   0  0  0  0  0  0  0  0  0  0  0  0
   16.0046   -3.7009   -3.2594 H   0  0  0  0  0  0  0  0  0  0  0  0
   15.3697   -2.2450   -1.7822 C   0  0  0  0  0  0  0  0  0  0  0  0
   14.8018   -3.2534   -0.7787 C   0  0  2  0  0  0  0  0  0  0  0  0
   15.1657   -4.7172   -1.0686 C   0  0  0  0  0  0  0  0  0  0  0  0
   16.3875   -5.2376   -0.6075 C   0  0  0  0  0  0  0  0  0  0  0  0
   17.0672   -4.5876   -0.0651 H   0  0  0  0  0  0  0  0  0  0  0  0
   16.7300   -6.5808   -0.8032 C   0  0  0  0  0  0  0  0  0  0  0  0
   17.6729   -6.9561   -0.4170 H   0  0  0  0  0  0  0  0  0  0  0  0
   15.8545   -7.4404   -1.4720 C   0  0  0  0  0  0  0  0  0  0  0  0
   16.1210   -8.4860   -1.6116 H   0  0  0  0  0  0  0  0  0  0  0  0
   14.6432   -6.9403   -1.9616 C   0  0  0  0  0  0  0  0  0  0  0  0
   13.9719   -7.6122   -2.4885 H   0  0  0  0  0  0  0  0  0  0  0  0
   14.3019   -5.5900   -1.7672 C   0  0  0  0  0  0  0  0  0  0  0  0
   13.3533   -5.2327   -2.1562 H   0  0  0  0  0  0  0  0  0  0  0  0
   13.2900   -3.0260   -0.5831 C   0  0  0  0  0  0  0  0  0  0  0  0
   12.4236   -3.0661   -1.4554 O   0  0  0  0  0  0  0  0  0  0  0  0
   13.0220   -2.6706    0.7219 N   0  0  0  0  0  0  0  0  0  0  0  0
   11.7775   -2.0867    1.2104 C   0  0  0  0  0  0  0  0  0  0  0  0
   11.8402   -1.8645    2.2786 H   0  0  0  0  0  0  0  0  0  0  0  0
   10.5168   -2.8666    0.8609 C   0  0  0  0  0  0  0  0  0  0  0  0
   10.7016   -3.7782    0.2891 H   0  0  0  0  0  0  0  0  0  0  0  0
    9.8907   -3.1168    1.7219 H   0  0  0  0  0  0  0  0  0  0  0  0
   10.0032   -1.6909    0.0315 C   0  0  0  0  0  0  0  0  0  0  0  0
    9.0636   -1.2554    0.3855 H   0  0  0  0  0  0  0  0  0  0  0  0
    9.9081   -1.9020   -1.0378 H   0  0  0  0  0  0  0  0  0  0  0  0
   11.2556   -0.9004    0.4051 C   0  0  0  0  0  0  0  0  0  0  0  0
   11.8846   -0.6212   -0.4419 H   0  0  0  0  0  0  0  0  0  0  0  0
   11.0599   -0.0013    0.9952 H   0  0  0  0  0  0  0  0  0  0  0  0
   14.2274   -2.6157    1.3695 C   0  0  0  0  0  0  0  0  0  0  0  0
   14.4073   -2.3117    2.6881 N   0  0  0  0  0  0  0  0  0  0  0  0
   15.3528   -2.2986    3.0754 H   0  0  0  0  0  0  0  0  0  0  0  0
   13.5931   -2.2912    3.2991 H   0  0  0  0  0  0  0  0  0  0  0  0
   15.2158   -2.9013    0.5966 N   0  0  0  0  0  4  0  0  0  0  0  0
   16.1867   -2.9149    0.9063 H   0  0  0  0  0  0  0  0  0  0  0  0
   15.2979   -0.8589   -1.5133 C   0  0  0  0  0  0  0  0  0  0  0  0
   14.8675   -0.5286   -0.5758 H   0  0  0  0  0  0  0  0  0  0  0  0
   15.4318    2.0249   -0.7972 C   0  0  0  0  0  0  0  0  0  0  0  0
   15.2967    1.3118    0.0067 H   0  0  0  0  0  0  0  0  0  0  0  0
   15.3714    3.4016   -0.5506 C   0  0  0  0  0  0  0  0  0  0  0  0
   15.1678    3.7873    0.4429 H   0  0  0  0  0  0  0  0  0  0  0  0
  1  2  1  0
  2  3  2  0
  3  4  1  0
  4  5  1  0
  4  6  2  0
  6  7  1  0
  7  8  2  0
  8  9  1  0
  8 10  1  0
 10 11  1  0
 10 12  2  0
 12 13  1  0
 12 14  1  0
 15 14  1  6
 15 16  1  0
 16 17  2  0
 17 18  1  0
 17 19  1  0
 19 20  1  0
 19 21  2  0
 21 22  1  0
 21 23  1  0
 23 24  1  0
 23 25  2  0
 25 26  1  0
 15 27  1  0
 27 28  2  0
 27 29  1  0
 29 30  1  0
 30 31  1  0
 30 32  1  0
 32 33  1  0
 32 34  1  0
 32 35  1  0
 35 36  1  0
 35 37  1  0
 35 38  1  0
 38 39  1  0
 38 40  1  0
 29 41  1  0
 41 42  1  0
 42 43  1  0
 42 44  1  0
 41 45  2  0
 45 46  1  0
 14 47  2  0
 47 48  1  0
  6 49  1  0
 49 50  1  0
 49 51  2  0
 51 52  1  0
 51  2  1  0
 47  7  1  0
 45 15  1  0
 25 16  1  0
 38 30  1  0
M  CHG  1  45   1
M  END
>  <score>  (70) 
5.84392

$$$$

     RDKit          3D

 60 64  0  0  0  0  0  0  0  0999 V2000
   15.5298    5.3273   -1.4118 H   0  0  0  0  0  0  0  0  0  0  0  0
   15.5877    4.2606   -1.6081 C   0  0  0  0  0  0  0  0  0  0  0  0
   15.8353    3.8449   -2.8593 N   0  0  0  0  0  0  0  0  0  0  0  0
   15.9014    2.5202   -3.0908 C   0  0  0  0  0  0  0  0  0  0  0  0
   16.0987    2.1910   -4.1063 H   0  0  0  0  0  0  0  0  0  0  0  0
   15.7179    1.5501   -2.0898 C   0  0  0  0  0  0  0  0  0  0  0  0
   15.7894    0.1087   -2.3958 C   0  0  0  0  0  0  0  0  0  0  0  0
   16.3278   -0.3304   -3.6118 C   0  0  0  0  0  0  0  0  0  0  0  0
   16.6939    0.3985   -4.3281 H   0  0  0  0  0  0  0  0  0  0  0  0
   16.4097   -1.6948   -3.9030 C   0  0  0  0  0  0  0  0  0  0  0  0
   16.8345   -2.0134   -4.8498 H   0  0  0  0  0  0  0  0  0  0  0  0
   15.9511   -2.6396   -2.9770 C   0  0  0  0  0  0  0  0  0  0  0  0
   16.0167   -3.6969   -3.2157 H   0  0  0  0  0  0  0  0  0  0  0  0
   15.4095   -2.2352   -1.7445 C   0  0  0  0  0  0  0  0  0  0  0  0
   14.8799   -3.2456   -0.7281 C   0  0  2  0  0  0  0  0  0  0  0  0
   15.2532   -4.6905   -1.0395 C   0  0  0  0  0  0  0  0  0  0  0  0
   16.4688   -5.2321   -0.5933 C   0  0  0  0  0  0  0  0  0  0  0  0
   17.1682   -4.6018   -0.0514 H   0  0  0  0  0  0  0  0  0  0  0  0
   16.7762   -6.5794   -0.8111 C   0  0  0  0  0  0  0  0  0  0  0  0
   17.7111   -6.9839   -0.4347 H   0  0  0  0  0  0  0  0  0  0  0  0
   15.8749   -7.4030   -1.4938 C   0  0  0  0  0  0  0  0  0  0  0  0
   16.1046   -8.4533   -1.6477 H   0  0  0  0  0  0  0  0  0  0  0  0
   14.6721   -6.8717   -1.9695 C   0  0  0  0  0  0  0  0  0  0  0  0
   13.9674   -7.5064   -2.4989 H   0  0  0  0  0  0  0  0  0  0  0  0
   14.3667   -5.5239   -1.7477 C   0  0  0  0  0  0  0  0  0  0  0  0
   13.4224   -5.1280   -2.1104 H   0  0  0  0  0  0  0  0  0  0  0  0
   13.3576   -3.1080   -0.5436 C   0  0  0  0  0  0  0  0  0  0  0  0
   12.5237   -3.2196   -1.4462 O   0  0  0  0  0  0  0  0  0  0  0  0
   13.0672   -2.8287    0.7904 N   0  0  0  0  0  0  0  0  0  0  0  0
   11.7498   -2.5932    1.3576 N   0  0  0  0  0  0  0  0  0  0  0  0
   11.7801   -2.4192    2.3726 H   0  0  0  0  0  0  0  0  0  0  0  0
   10.9382   -1.5642    0.6865 C   0  0  0  0  0  0  0  0  0  0  0  0
   10.7096   -1.8707   -0.3361 H   0  0  0  0  0  0  0  0  0  0  0  0
    9.9908   -1.4304    1.2139 H   0  0  0  0  0  0  0  0  0  0  0  0
   11.7554   -0.2793    0.6800 C   0  0  0  0  0  0  0  0  0  0  0  0
   12.6121   -0.4268    0.0174 H   0  0  0  0  0  0  0  0  0  0  0  0
   12.1458   -0.1391    1.6879 H   0  0  0  0  0  0  0  0  0  0  0  0
   10.9961    0.9700    0.2938 C   0  0  0  0  0  0  0  0  0  0  0  0
   11.6211    1.9766   -0.4598 C   0  0  0  0  0  0  0  0  0  0  0  0
   12.6380    1.8236   -0.8272 H   0  0  0  0  0  0  0  0  0  0  0  0
   10.9622    3.1947   -0.7001 C   0  0  0  0  0  0  0  0  0  0  0  0
   11.4397    3.9829   -1.2777 H   0  0  0  0  0  0  0  0  0  0  0  0
    9.6934    3.4302   -0.1565 C   0  0  0  0  0  0  0  0  0  0  0  0
    9.2266    4.4083   -0.2630 H   0  0  0  0  0  0  0  0  0  0  0  0
    9.0578    2.4320    0.5844 C   0  0  0  0  0  0  0  0  0  0  0  0
    8.0924    2.6435    1.0441 H   0  0  0  0  0  0  0  0  0  0  0  0
    9.7029    1.2001    0.7889 C   0  0  0  0  0  0  0  0  0  0  0  0
    9.2089    0.4307    1.3769 H   0  0  0  0  0  0  0  0  0  0  0  0
   14.3003   -2.6947    1.4297 C   0  0  0  0  0  0  0  0  0  0  0  0
   14.5368   -2.3709    2.7401 N   0  0  0  0  0  0  0  0  0  0  0  0
   15.4982   -2.2931    3.0639 H   0  0  0  0  0  0  0  0  0  0  0  0
   13.7651   -2.1426    3.3628 H   0  0  0  0  0  0  0  0  0  0  0  0
   15.3050   -2.9020    0.6433 N   0  0  0  0  0  4  0  0  0  0  0  0
   16.2793   -2.9075    0.9523 H   0  0  0  0  0  0  0  0  0  0  0  0
   15.3270   -0.8538   -1.4801 C   0  0  0  0  0  0  0  0  0  0  0  0
   14.8928   -0.5183   -0.5434 H   0  0  0  0  0  0  0  0  0  0  0  0
   15.4764    1.9945   -0.7889 C   0  0  0  0  0  0  0  0  0  0  0  0
   15.3676    1.2766    0.0181 H   0  0  0  0  0  0  0  0  0  0  0  0
   15.4047    3.3656   -0.5517 C   0  0  0  0  0  0  0  0  0  0  0  0
   15.2146    3.7438    0.4452 H   0  0  0  0  0  0  0  0  0  0  0  0
  1  2  1  0
  2  3  2  0
  3  4  1  0
  4  5  1  0
  4  6  2  0
  6  7  1  0
  7  8  2  0
  8  9  1  0
  8 10  1  0
 10 11  1  0
 10 12  2  0
 12 13  1  0
 12 14  1  0
 15 14  1  6
 15 16  1  0
 16 17  2  0
 17 18  1  0
 17 19  1  0
 19 20  1  0
 19 21  2  0
 21 22  1  0
 21 23  1  0
 23 24  1  0
 23 25  2  0
 25 26  1  0
 15 27  1  0
 27 28  2  0
 27 29  1  0
 29 30  1  0
 30 31  1  0
 30 32  1  0
 32 33  1  0
 32 34  1  0
 32 35  1  0
 35 36  1  0
 35 37  1  0
 35 38  1  0
 38 39  2  0
 39 40  1  0
 39 41  1  0
 41 42  1  0
 41 43  2  0
 43 44  1  0
 43 45  1  0
 45 46  1  0
 45 47  2  0
 47 48  1  0
 29 49  1  0
 49 50  1  0
 50 51  1  0
 50 52  1  0
 49 53  2  0
 53 54  1  0
 14 55  2  0
 55 56  1  0
  6 57  1  0
 57 58  1  0
 57 59  2  0
 59 60  1  0
 59  2  1  0
 55  7  1  0
 53 15  1  0
 25 16  1  0
 47 38  1  0
M  CHG  1  53   1
M  END
>  <score>  (71) 
5.84367

$$$$

     RDKit          3D

 64 69  0  0  0  0  0  0  0  0999 V2000
   15.7631    5.4470   -1.4064 H   0  0  0  0  0  0  0  0  0  0  0  0
   15.7646    4.3741   -1.5706 C   0  0  0  0  0  0  0  0  0  0  0  0
   15.8248    3.9124   -2.8265 N   0  0  0  0  0  0  0  0  0  0  0  0
   15.8218    2.5808   -3.0178 C   0  0  0  0  0  0  0  0  0  0  0  0
   15.8639    2.2178   -4.0390 H   0  0  0  0  0  0  0  0  0  0  0  0
   15.7573    1.6450   -1.9703 C   0  0  0  0  0  0  0  0  0  0  0  0
   15.7782    0.1937   -2.2466 C   0  0  0  0  0  0  0  0  0  0  0  0
   16.2544   -0.2721   -3.4796 C   0  0  0  0  0  0  0  0  0  0  0  0
   16.6034    0.4401   -4.2206 H   0  0  0  0  0  0  0  0  0  0  0  0
   16.3089   -1.6410   -3.7534 C   0  0  0  0  0  0  0  0  0  0  0  0
   16.6955   -1.9855   -4.7083 H   0  0  0  0  0  0  0  0  0  0  0  0
   15.8791   -2.5627   -2.7949 C   0  0  0  0  0  0  0  0  0  0  0  0
   15.9294   -3.6235   -3.0203 H   0  0  0  0  0  0  0  0  0  0  0  0
   15.3839   -2.1407   -1.5500 C   0  0  0  0  0  0  0  0  0  0  0  0
   14.8919   -3.1576   -0.5142 C   0  0  2  0  0  0  0  0  0  0  0  0
   15.2702   -4.5942   -0.8634 C   0  0  0  0  0  0  0  0  0  0  0  0
   16.4234   -5.2036   -0.3467 C   0  0  0  0  0  0  0  0  0  0  0  0
   17.0715   -4.6458    0.3200 H   0  0  0  0  0  0  0  0  0  0  0  0
   16.7419   -6.5244   -0.6774 C   0  0  0  0  0  0  0  0  0  0  0  0
   17.6312   -6.9817   -0.2574 H   0  0  0  0  0  0  0  0  0  0  0  0
   15.9156   -7.2502   -1.5394 C   0  0  0  0  0  0  0  0  0  0  0  0
   16.1642   -8.2742   -1.7967 H   0  0  0  0  0  0  0  0  0  0  0  0
   14.7720   -6.6516   -2.0729 C   0  0  0  0  0  0  0  0  0  0  0  0
   14.1258   -7.2065   -2.7446 H   0  0  0  0  0  0  0  0  0  0  0  0
   14.4556   -5.3321   -1.7399 C   0  0  0  0  0  0  0  0  0  0  0  0
   13.5629   -4.8774   -2.1586 H   0  0  0  0  0  0  0  0  0  0  0  0
   13.3733   -3.0298   -0.2824 C   0  0  0  0  0  0  0  0  0  0  0  0
   12.4656   -3.3768   -1.0354 O   0  0  0  0  0  0  0  0  0  0  0  0
   13.1163   -2.5560    0.9793 N   0  0  0  0  0  0  0  0  0  0  0  0
   12.0017   -1.6787    1.2064 C   0  0  0  0  0  0  0  0  0  0  0  0
   11.0461   -2.1736    0.9931 H   0  0  0  0  0  0  0  0  0  0  0  0
   11.9706   -1.3199    2.2433 H   0  0  0  0  0  0  0  0  0  0  0  0
   12.2434   -0.5853    0.2732 N   0  0  0  0  0  0  0  0  0  0  0  0
   13.1696   -0.1847    0.4334 H   0  0  0  0  0  0  0  0  0  0  0  0
   12.0085   -0.8406   -1.1559 C   0  0  1  0  0  0  0  0  0  0  0  0
   12.7196   -1.5023   -1.6623 H   0  0  0  0  0  0  0  0  0  0  0  0
   10.5468   -0.8771   -1.5884 C   0  0  0  0  0  0  0  0  0  0  0  0
    9.7908   -0.6148   -0.8417 H   0  0  0  0  0  0  0  0  0  0  0  0
   10.2233   -1.6047   -2.3374 H   0  0  0  0  0  0  0  0  0  0  0  0
   11.4542    0.2505   -2.0401 C   0  0  1  0  0  0  0  0  0  0  0  0
   11.7802    0.2510   -3.0820 H   0  0  0  0  0  0  0  0  0  0  0  0
   11.1232    1.5921   -1.4837 C   0  0  0  0  0  0  0  0  0  0  0  0
   12.0231    2.2429   -0.6430 C   0  0  0  0  0  0  0  0  0  0  0  0
   12.9260    1.7169   -0.3463 H   0  0  0  0  0  0  0  0  0  0  0  0
   11.7459    3.5457   -0.2193 C   0  0  0  0  0  0  0  0  0  0  0  0
   12.4750    4.1030    0.3620 H   0  0  0  0  0  0  0  0  0  0  0  0
   10.5382    4.1474   -0.5846 C   0  0  0  0  0  0  0  0  0  0  0  0
   10.3208    5.1533   -0.2656 H   0  0  0  0  0  0  0  0  0  0  0  0
    9.6051    3.4712   -1.3709 C   0  0  0  0  0  0  0  0  0  0  0  0
    8.6589    3.9398   -1.6289 H   0  0  0  0  0  0  0  0  0  0  0  0
    9.9025    2.1809   -1.8095 C   0  0  0  0  0  0  0  0  0  0  0  0
    9.1998    1.6293   -2.4263 H   0  0  0  0  0  0  0  0  0  0  0  0
   14.3351   -2.3696    1.5695 C   0  0  0  0  0  0  0  0  0  0  0  0
   14.5015   -1.8535    2.8153 N   0  0  0  0  0  0  0  0  0  0  0  0
   15.4166   -1.9931    3.2416 H   0  0  0  0  0  0  0  0  0  0  0  0
   13.6875   -1.8564    3.4254 H   0  0  0  0  0  0  0  0  0  0  0  0
   15.3247   -2.7610    0.8395 N   0  0  0  0  0  4  0  0  0  0  0  0
   16.3038   -2.7201    1.1314 H   0  0  0  0  0  0  0  0  0  0  0  0
   15.3370   -0.7501   -1.2971 C   0  0  0  0  0  0  0  0  0  0  0  0
   14.9571   -0.3930   -0.3451 H   0  0  0  0  0  0  0  0  0  0  0  0
   15.6902    2.1406   -0.6670 C   0  0  0  0  0  0  0  0  0  0  0  0
   15.6573    1.4686    0.1848 H   0  0  0  0  0  0  0  0  0  0  0  0
   15.6988    3.5190   -0.4720 C   0  0  0  0  0  0  0  0  0  0  0  0
   15.6653    3.9362    0.5250 H   0  0  0  0  0  0  0  0  0  0  0  0
  1  2  1  0
  2  3  2  0
  3  4  1  0
  4  5  1  0
  4  6  2  0
  6  7  1  0
  7  8  2  0
  8  9  1  0
  8 10  1  0
 10 11  1  0
 10 12  2  0
 12 13  1  0
 12 14  1  0
 15 14  1  6
 15 16  1  0
 16 17  2  0
 17 18  1  0
 17 19  1  0
 19 20  1  0
 19 21  2  0
 21 22  1  0
 21 23  1  0
 23 24  1  0
 23 25  2  0
 25 26  1  0
 15 27  1  0
 27 28  2  0
 27 29  1  0
 29 30  1  0
 30 31  1  0
 30 32  1  0
 30 33  1  0
 33 34  1  0
 33 35  1  0
 35 36  1  6
 35 37  1  0
 37 38  1  0
 37 39  1  0
 37 40  1  0
 40 41  1  6
 40 42  1  0
 42 43  2  0
 43 44  1  0
 43 45  1  0
 45 46  1  0
 45 47  2  0
 47 48  1  0
 47 49  1  0
 49 50  1  0
 49 51  2  0
 51 52  1  0
 29 53  1  0
 53 54  1  0
 54 55  1  0
 54 56  1  0
 53 57  2  0
 57 58  1  0
 14 59  2  0
 59 60  1  0
  6 61  1  0
 61 62  1  0
 61 63  2  0
 63 64  1  0
 63  2  1  0
 59  7  1  0
 57 15  1  0
 25 16  1  0
 40 35  1  0
 51 42  1  0
M  CHG  1  57   1
M  END
>  <score>  (72) 
5.84168

$$$$

     RDKit          3D

 47 50  0  0  0  0  0  0  0  0999 V2000
   15.5296    5.3194   -1.4154 H   0  0  0  0  0  0  0  0  0  0  0  0
   15.5844    4.2558   -1.6164 C   0  0  0  0  0  0  0  0  0  0  0  0
   15.8401    3.8486   -2.8685 N   0  0  0  0  0  0  0  0  0  0  0  0
   15.8997    2.5259   -3.1024 C   0  0  0  0  0  0  0  0  0  0  0  0
   16.1004    2.1922   -4.1162 H   0  0  0  0  0  0  0  0  0  0  0  0
   15.7136    1.5603   -2.0988 C   0  0  0  0  0  0  0  0  0  0  0  0
   15.7839    0.1259   -2.3976 C   0  0  0  0  0  0  0  0  0  0  0  0
   16.3285   -0.3127   -3.6070 C   0  0  0  0  0  0  0  0  0  0  0  0
   16.7016    0.4222   -4.3133 H   0  0  0  0  0  0  0  0  0  0  0  0
   16.4043   -1.6780   -3.8985 C   0  0  0  0  0  0  0  0  0  0  0  0
   16.8568   -2.0050   -4.8308 H   0  0  0  0  0  0  0  0  0  0  0  0
   15.9243   -2.6163   -2.9741 C   0  0  0  0  0  0  0  0  0  0  0  0
   15.9888   -3.6750   -3.2033 H   0  0  0  0  0  0  0  0  0  0  0  0
   15.3745   -2.2081   -1.7477 C   0  0  0  0  0  0  0  0  0  0  0  0
   14.7956   -3.2019   -0.7448 C   0  0  2  0  0  0  0  0  0  0  0  0
   15.1653   -4.6611   -1.0351 C   0  0  0  0  0  0  0  0  0  0  0  0
   16.3899   -5.1908   -0.5863 C   0  0  0  0  0  0  0  0  0  0  0  0
   17.0808   -4.5498   -0.0477 H   0  0  0  0  0  0  0  0  0  0  0  0
   16.7248   -6.5354   -0.7946 C   0  0  0  0  0  0  0  0  0  0  0  0
   17.6668   -6.9257   -0.4175 H   0  0  0  0  0  0  0  0  0  0  0  0
   15.8438   -7.3744   -1.4810 C   0  0  0  0  0  0  0  0  0  0  0  0
   16.0968   -8.4213   -1.6295 H   0  0  0  0  0  0  0  0  0  0  0  0
   14.6352   -6.8620   -1.9632 C   0  0  0  0  0  0  0  0  0  0  0  0
   13.9535   -7.5233   -2.4906 H   0  0  0  0  0  0  0  0  0  0  0  0
   14.2971   -5.5167   -1.7407 C   0  0  0  0  0  0  0  0  0  0  0  0
   13.3450   -5.1454   -2.1066 H   0  0  0  0  0  0  0  0  0  0  0  0
   13.2755   -2.9521   -0.5811 C   0  0  0  0  0  0  0  0  0  0  0  0
   12.3772   -3.0349   -1.4220 O   0  0  0  0  0  0  0  0  0  0  0  0
   13.0346   -2.6083    0.7207 N   0  0  0  0  0  0  0  0  0  0  0  0
   11.7788   -2.1561    1.2168 C   0  0  0  0  0  0  0  0  0  0  0  0
   11.6262   -2.3667    2.2858 H   0  0  0  0  0  0  0  0  0  0  0  0
   10.9259   -2.5626    0.6528 H   0  0  0  0  0  0  0  0  0  0  0  0
   12.0140   -0.7647    0.9290 N   0  0  0  0  0  0  0  0  0  0  0  0
   12.7744   -0.4135    1.5140 H   0  0  0  0  0  0  0  0  0  0  0  0
   12.2462   -0.6522   -0.0550 H   0  0  0  0  0  0  0  0  0  0  0  0
   14.2299   -2.5009    1.3773 C   0  0  0  0  0  0  0  0  0  0  0  0
   14.3986   -2.1217    2.6722 N   0  0  0  0  0  0  0  0  0  0  0  0
   15.3032   -2.3314    3.0908 H   0  0  0  0  0  0  0  0  0  0  0  0
   13.5775   -2.1279    3.2734 H   0  0  0  0  0  0  0  0  0  0  0  0
   15.2215   -2.8553    0.6298 N   0  0  0  0  0  4  0  0  0  0  0  0
   16.1704   -2.9980    0.9799 H   0  0  0  0  0  0  0  0  0  0  0  0
   15.3071   -0.8275   -1.4838 C   0  0  0  0  0  0  0  0  0  0  0  0
   14.8660   -0.4832   -0.5543 H   0  0  0  0  0  0  0  0  0  0  0  0
   15.4748    1.9948   -0.7981 C   0  0  0  0  0  0  0  0  0  0  0  0
   15.3745    1.2669    0.0015 H   0  0  0  0  0  0  0  0  0  0  0  0
   15.3967    3.3621   -0.5607 C   0  0  0  0  0  0  0  0  0  0  0  0
   15.2097    3.7397    0.4362 H   0  0  0  0  0  0  0  0  0  0  0  0
  1  2  1  0
  2  3  2  0
  3  4  1  0
  4  5  1  0
  4  6  2  0
  6  7  1  0
  7  8  2  0
  8  9  1  0
  8 10  1  0
 10 11  1  0
 10 12  2  0
 12 13  1  0
 12 14  1  0
 15 14  1  6
 15 16  1  0
 16 17  2  0
 17 18  1  0
 17 19  1  0
 19 20  1  0
 19 21  2  0
 21 22  1  0
 21 23  1  0
 23 24  1  0
 23 25  2  0
 25 26  1  0
 15 27  1  0
 27 28  2  0
 27 29  1  0
 29 30  1  0
 30 31  1  0
 30 32  1  0
 30 33  1  0
 33 34  1  0
 33 35  1  0
 29 36  1  0
 36 37  1  0
 37 38  1  0
 37 39  1  0
 36 40  2  0
 40 41  1  0
 14 42  2  0
 42 43  1  0
  6 44  1  0
 44 45  1  0
 44 46  2  0
 46 47  1  0
 46  2  1  0
 42  7  1  0
 40 15  1  0
 25 16  1  0
M  CHG  1  40   1
M  END
>  <score>  (73) 
5.84066

$$$$

     RDKit          3D

 50 53  0  0  0  0  0  0  0  0999 V2000
   15.5665    5.3699   -1.3874 H   0  0  0  0  0  0  0  0  0  0  0  0
   15.5840    4.3004   -1.5978 C   0  0  0  0  0  0  0  0  0  0  0  0
   15.8189    3.8791   -2.8512 N   0  0  0  0  0  0  0  0  0  0  0  0
   15.8670    2.5506   -3.0887 C   0  0  0  0  0  0  0  0  0  0  0  0
   16.0519    2.2162   -4.1038 H   0  0  0  0  0  0  0  0  0  0  0  0
   15.6883    1.5704   -2.0977 C   0  0  0  0  0  0  0  0  0  0  0  0
   15.7711    0.1206   -2.4113 C   0  0  0  0  0  0  0  0  0  0  0  0
   16.3442   -0.3198   -3.6111 C   0  0  0  0  0  0  0  0  0  0  0  0
   16.7208    0.4156   -4.3145 H   0  0  0  0  0  0  0  0  0  0  0  0
   16.4328   -1.6872   -3.9086 C   0  0  0  0  0  0  0  0  0  0  0  0
   16.8637   -2.0070   -4.8516 H   0  0  0  0  0  0  0  0  0  0  0  0
   15.9483   -2.6426   -3.0065 C   0  0  0  0  0  0  0  0  0  0  0  0
   16.0027   -3.7014   -3.2531 H   0  0  0  0  0  0  0  0  0  0  0  0
   15.3847   -2.2397   -1.7865 C   0  0  0  0  0  0  0  0  0  0  0  0
   14.8222   -3.2457   -0.7874 C   0  0  2  0  0  0  0  0  0  0  0  0
   15.1790   -4.7124   -1.0769 C   0  0  0  0  0  0  0  0  0  0  0  0
   16.3955   -5.2363   -0.6102 C   0  0  0  0  0  0  0  0  0  0  0  0
   17.0680   -4.5830   -0.0618 H   0  0  0  0  0  0  0  0  0  0  0  0
   16.7317   -6.5804   -0.8043 C   0  0  0  0  0  0  0  0  0  0  0  0
   17.6717   -6.9576   -0.4152 H   0  0  0  0  0  0  0  0  0  0  0  0
   15.8541   -7.4360   -1.4742 C   0  0  0  0  0  0  0  0  0  0  0  0
   16.1174   -8.4828   -1.6123 H   0  0  0  0  0  0  0  0  0  0  0  0
   14.6435   -6.9348   -1.9617 C   0  0  0  0  0  0  0  0  0  0  0  0
   13.9706   -7.6059   -2.4878 H   0  0  0  0  0  0  0  0  0  0  0  0
   14.3063   -5.5836   -1.7673 C   0  0  0  0  0  0  0  0  0  0  0  0
   13.3550   -5.2228   -2.1484 H   0  0  0  0  0  0  0  0  0  0  0  0
   13.3053   -3.0163   -0.6163 C   0  0  0  0  0  0  0  0  0  0  0  0
   12.4856   -3.1371   -1.5333 O   0  0  0  0  0  0  0  0  0  0  0  0
   13.0241   -2.6237    0.6933 N   0  0  0  0  0  0  0  0  0  0  0  0
   11.7198   -2.6289    1.3378 N   0  0  0  0  0  0  0  0  0  0  0  0
   11.5977   -1.8931    2.0482 H   0  0  0  0  0  0  0  0  0  0  0  0
   11.4136   -3.9400    1.9094 C   0  0  0  0  0  0  0  0  0  0  0  0
   12.0860   -4.1490    2.7486 H   0  0  0  0  0  0  0  0  0  0  0  0
   11.5732   -4.7112    1.1523 H   0  0  0  0  0  0  0  0  0  0  0  0
    9.9694   -3.9627    2.3659 C   0  0  0  0  0  0  0  0  0  0  0  0
    9.7316   -4.9455    2.7862 H   0  0  0  0  0  0  0  0  0  0  0  0
    9.8032   -3.1939    3.1270 H   0  0  0  0  0  0  0  0  0  0  0  0
    9.3058   -3.7701    1.5165 H   0  0  0  0  0  0  0  0  0  0  0  0
   14.2532   -2.6087    1.3524 C   0  0  0  0  0  0  0  0  0  0  0  0
   14.4340   -2.3482    2.6882 N   0  0  0  0  0  0  0  0  0  0  0  0
   15.3690   -2.3523    3.0969 H   0  0  0  0  0  0  0  0  0  0  0  0
   13.6201   -2.1306    3.2579 H   0  0  0  0  0  0  0  0  0  0  0  0
   15.2512   -2.8899    0.5822 N   0  0  0  0  0  4  0  0  0  0  0  0
   16.2216   -2.9289    0.8992 H   0  0  0  0  0  0  0  0  0  0  0  0
   15.3000   -0.8548   -1.5148 C   0  0  0  0  0  0  0  0  0  0  0  0
   14.8703   -0.5217   -0.5765 H   0  0  0  0  0  0  0  0  0  0  0  0
   15.4403    2.0219   -0.7994 C   0  0  0  0  0  0  0  0  0  0  0  0
   15.3079    1.2987   -0.0033 H   0  0  0  0  0  0  0  0  0  0  0  0
   15.3761    3.3980   -0.5528 C   0  0  0  0  0  0  0  0  0  0  0  0
   15.1693    3.7840    0.4398 H   0  0  0  0  0  0  0  0  0  0  0  0
  1  2  1  0
  2  3  2  0
  3  4  1  0
  4  5  1  0
  4  6  2  0
  6  7  1  0
  7  8  2  0
  8  9  1  0
  8 10  1  0
 10 11  1  0
 10 12  2  0
 12 13  1  0
 12 14  1  0
 15 14  1  6
 15 16  1  0
 16 17  2  0
 17 18  1  0
 17 19  1  0
 19 20  1  0
 19 21  2  0
 21 22  1  0
 21 23  1  0
 23 24  1  0
 23 25  2  0
 25 26  1  0
 15 27  1  0
 27 28  2  0
 27 29  1  0
 29 30  1  0
 30 31  1  0
 30 32  1  0
 32 33  1  0
 32 34  1  0
 32 35  1  0
 35 36  1  0
 35 37  1  0
 35 38  1  0
 29 39  1  0
 39 40  1  0
 40 41  1  0
 40 42  1  0
 39 43  2  0
 43 44  1  0
 14 45  2  0
 45 46  1  0
  6 47  1  0
 47 48  1  0
 47 49  2  0
 49 50  1  0
 49  2  1  0
 45  7  1  0
 43 15  1  0
 25 16  1  0
M  CHG  1  43   1
M  END
>  <score>  (74) 
5.84059

$$$$

     RDKit          3D

 53 57  0  0  0  0  0  0  0  0999 V2000
   15.5644    5.2960   -1.4142 H   0  0  0  0  0  0  0  0  0  0  0  0
   15.6208    4.2271   -1.5954 C   0  0  0  0  0  0  0  0  0  0  0  0
   15.8532    3.7930   -2.8430 N   0  0  0  0  0  0  0  0  0  0  0  0
   15.9070    2.4644   -3.0552 C   0  0  0  0  0  0  0  0  0  0  0  0
   16.0898    2.1234   -4.0697 H   0  0  0  0  0  0  0  0  0  0  0  0
   15.7332    1.5062   -2.0374 C   0  0  0  0  0  0  0  0  0  0  0  0
   15.7957    0.0551   -2.3296 C   0  0  0  0  0  0  0  0  0  0  0  0
   16.2920   -0.3961   -3.5634 C   0  0  0  0  0  0  0  0  0  0  0  0
   16.6409    0.3199   -4.3004 H   0  0  0  0  0  0  0  0  0  0  0  0
   16.3549   -1.7610   -3.8558 C   0  0  0  0  0  0  0  0  0  0  0  0
   16.7394   -2.0984   -4.8131 H   0  0  0  0  0  0  0  0  0  0  0  0
   15.9251   -2.6942   -2.9140 C   0  0  0  0  0  0  0  0  0  0  0  0
   15.9635   -3.7530   -3.1494 H   0  0  0  0  0  0  0  0  0  0  0  0
   15.4466   -2.2918   -1.6615 C   0  0  0  0  0  0  0  0  0  0  0  0
   14.9679   -3.3465   -0.6703 C   0  0  2  0  0  0  0  0  0  0  0  0
   15.3640   -4.7672   -1.0329 C   0  0  0  0  0  0  0  0  0  0  0  0
   16.5736   -5.3112   -0.5863 C   0  0  0  0  0  0  0  0  0  0  0  0
   17.2505   -4.6911   -0.0059 H   0  0  0  0  0  0  0  0  0  0  0  0
   16.8904   -6.6470   -0.8443 C   0  0  0  0  0  0  0  0  0  0  0  0
   17.8273   -7.0497   -0.4745 H   0  0  0  0  0  0  0  0  0  0  0  0
   15.9953   -7.4567   -1.5532 C   0  0  0  0  0  0  0  0  0  0  0  0
   16.2257   -8.5024   -1.7331 H   0  0  0  0  0  0  0  0  0  0  0  0
   14.7994   -6.9136   -2.0328 C   0  0  0  0  0  0  0  0  0  0  0  0
   14.0986   -7.5279   -2.5883 H   0  0  0  0  0  0  0  0  0  0  0  0
   14.4896   -5.5765   -1.7789 C   0  0  0  0  0  0  0  0  0  0  0  0
   13.5461   -5.1704   -2.1328 H   0  0  0  0  0  0  0  0  0  0  0  0
   13.4500   -3.2962   -0.4844 C   0  0  0  0  0  0  0  0  0  0  0  0
   12.6235   -3.3558   -1.4000 O   0  0  0  0  0  0  0  0  0  0  0  0
   13.1571   -3.2109    0.8677 N   0  0  0  0  0  0  0  0  0  0  0  0
   11.8646   -2.7963    1.3562 N   0  0  0  0  0  0  0  0  0  0  0  0
   11.2720   -3.4289    1.8994 H   0  0  0  0  0  0  0  0  0  0  0  0
   11.3401   -1.5782    0.9683 C   0  0  0  0  0  0  0  0  0  0  0  0
   12.1578   -0.5700    0.4852 C   0  0  0  0  0  0  0  0  0  0  0  0
   13.2226   -0.7568    0.3917 H   0  0  0  0  0  0  0  0  0  0  0  0
   11.6120    0.6757    0.1904 C   0  0  0  0  0  0  0  0  0  0  0  0
   12.2829    1.4619   -0.1462 H   0  0  0  0  0  0  0  0  0  0  0  0
   10.3042    0.9487    0.3733 N   0  0  0  0  0  0  0  0  0  0  0  0
    9.5174   -0.0322    0.8562 C   0  0  0  0  0  0  0  0  0  0  0  0
    8.4700    0.1788    1.0656 H   0  0  0  0  0  0  0  0  0  0  0  0
    9.9932   -1.3174    1.1319 C   0  0  0  0  0  0  0  0  0  0  0  0
    9.3464   -2.0938    1.5238 H   0  0  0  0  0  0  0  0  0  0  0  0
   14.3699   -2.9942    1.5154 C   0  0  0  0  0  0  0  0  0  0  0  0
   14.5640   -2.7304    2.8444 N   0  0  0  0  0  0  0  0  0  0  0  0
   15.4751   -2.3596    3.1082 H   0  0  0  0  0  0  0  0  0  0  0  0
   13.7482   -2.4399    3.3802 H   0  0  0  0  0  0  0  0  0  0  0  0
   15.3804   -3.0583    0.7135 N   0  0  0  0  0  4  0  0  0  0  0  0
   16.3527   -2.9656    1.0100 H   0  0  0  0  0  0  0  0  0  0  0  0
   15.3714   -0.9065   -1.3884 C   0  0  0  0  0  0  0  0  0  0  0  0
   14.9783   -0.5591   -0.4376 H   0  0  0  0  0  0  0  0  0  0  0  0
   15.5144    1.9742   -0.7385 C   0  0  0  0  0  0  0  0  0  0  0  0
   15.4192    1.2747    0.0860 H   0  0  0  0  0  0  0  0  0  0  0  0
   15.4470    3.3498   -0.5233 C   0  0  0  0  0  0  0  0  0  0  0  0
   15.2642    3.7455    0.4685 H   0  0  0  0  0  0  0  0  0  0  0  0
  1  2  1  0
  2  3  2  0
  3  4  1  0
  4  5  1  0
  4  6  2  0
  6  7  1  0
  7  8  2  0
  8  9  1  0
  8 10  1  0
 10 11  1  0
 10 12  2  0
 12 13  1  0
 12 14  1  0
 15 14  1  6
 15 16  1  0
 16 17  2  0
 17 18  1  0
 17 19  1  0
 19 20  1  0
 19 21  2  0
 21 22  1  0
 21 23  1  0
 23 24  1  0
 23 25  2  0
 25 26  1  0
 15 27  1  0
 27 28  2  0
 27 29  1  0
 29 30  1  0
 30 31  1  0
 30 32  1  0
 32 33  2  0
 33 34  1  0
 33 35  1  0
 35 36  1  0
 35 37  2  0
 37 38  1  0
 38 39  1  0
 38 40  2  0
 40 41  1  0
 29 42  1  0
 42 43  1  0
 43 44  1  0
 43 45  1  0
 42 46  2  0
 46 47  1  0
 14 48  2  0
 48 49  1  0
  6 50  1  0
 50 51  1  0
 50 52  2  0
 52 53  1  0
 52  2  1  0
 48  7  1  0
 46 15  1  0
 25 16  1  0
 40 32  1  0
M  CHG  1  46   1
M  END
>  <score>  (75) 
5.83953

$$$$

     RDKit          3D

 54 58  0  0  0  0  0  0  0  0999 V2000
   15.5325    5.3386   -1.4131 H   0  0  0  0  0  0  0  0  0  0  0  0
   15.5925    4.2716   -1.6084 C   0  0  0  0  0  0  0  0  0  0  0  0
   15.8367    3.8557   -2.8603 N   0  0  0  0  0  0  0  0  0  0  0  0
   15.9032    2.5309   -3.0912 C   0  0  0  0  0  0  0  0  0  0  0  0
   16.0992    2.1961   -4.1051 H   0  0  0  0  0  0  0  0  0  0  0  0
   15.7252    1.5620   -2.0903 C   0  0  0  0  0  0  0  0  0  0  0  0
   15.7993    0.1218   -2.4004 C   0  0  0  0  0  0  0  0  0  0  0  0
   16.3439   -0.3259   -3.6108 C   0  0  0  0  0  0  0  0  0  0  0  0
   16.7113    0.3988   -4.3283 H   0  0  0  0  0  0  0  0  0  0  0  0
   16.4208   -1.6922   -3.9037 C   0  0  0  0  0  0  0  0  0  0  0  0
   16.8430   -2.0155   -4.8493 H   0  0  0  0  0  0  0  0  0  0  0  0
   15.9551   -2.6348   -2.9818 C   0  0  0  0  0  0  0  0  0  0  0  0
   16.0045   -3.6946   -3.2189 H   0  0  0  0  0  0  0  0  0  0  0  0
   15.4181   -2.2163   -1.7546 C   0  0  0  0  0  0  0  0  0  0  0  0
   14.8476   -3.2007   -0.7479 C   0  0  2  0  0  0  0  0  0  0  0  0
   15.1848   -4.6639   -1.0469 C   0  0  0  0  0  0  0  0  0  0  0  0
   16.4046   -5.1991   -0.6006 C   0  0  0  0  0  0  0  0  0  0  0  0
   17.0999   -4.5593   -0.0653 H   0  0  0  0  0  0  0  0  0  0  0  0
   16.7300   -6.5422   -0.8112 C   0  0  0  0  0  0  0  0  0  0  0  0
   17.6706   -6.9291   -0.4315 H   0  0  0  0  0  0  0  0  0  0  0  0
   15.8431   -7.3788   -1.4933 C   0  0  0  0  0  0  0  0  0  0  0  0
   16.0922   -8.4265   -1.6447 H   0  0  0  0  0  0  0  0  0  0  0  0
   14.6325   -6.8605   -1.9669 C   0  0  0  0  0  0  0  0  0  0  0  0
   13.9429   -7.5110   -2.4972 H   0  0  0  0  0  0  0  0  0  0  0  0
   14.3042   -5.5125   -1.7467 C   0  0  0  0  0  0  0  0  0  0  0  0
   13.3584   -5.1331   -2.1220 H   0  0  0  0  0  0  0  0  0  0  0  0
   13.3428   -2.9134   -0.5759 C   0  0  0  0  0  0  0  0  0  0  0  0
   12.4397   -3.0708   -1.3902 O   0  0  0  0  0  0  0  0  0  0  0  0
   13.1025   -2.5890    0.7294 N   0  0  0  0  0  0  0  0  0  0  0  0
   11.8784   -2.2822    1.2530 C   0  0  0  0  0  0  0  0  0  0  0  0
   11.0700   -1.7882    0.4769 O   0  0  0  0  0  0  0  0  0  0  0  0
   11.3937   -2.9648    2.4562 C   0  0  0  0  0  0  0  0  0  0  0  0
   10.1982   -2.5638    3.0914 C   0  0  0  0  0  0  0  0  0  0  0  0
    9.7080   -1.6279    2.8467 H   0  0  0  0  0  0  0  0  0  0  0  0
    9.5539   -3.4200    3.9836 C   0  0  0  0  0  0  0  0  0  0  0  0
    8.6178   -3.1156    4.4410 H   0  0  0  0  0  0  0  0  0  0  0  0
   10.0681   -4.6897    4.2376 C   0  0  0  0  0  0  0  0  0  0  0  0
    9.3584   -5.5719    4.9817 F   0  0  0  0  0  0  0  0  0  0  0  0
   11.2965   -5.0492    3.6775 C   0  0  0  0  0  0  0  0  0  0  0  0
   11.6655   -6.0523    3.8258 H   0  0  0  0  0  0  0  0  0  0  0  0
   11.9840   -4.1818    2.8325 C   0  0  0  0  0  0  0  0  0  0  0  0
   12.9073   -4.5450    2.3831 H   0  0  0  0  0  0  0  0  0  0  0  0
   14.2643   -2.6605    1.4175 C   0  0  0  0  0  0  0  0  0  0  0  0
   14.3633   -2.4610    2.7562 N   0  0  0  0  0  0  0  0  0  0  0  0
   13.5572   -2.0662    3.2363 H   0  0  0  0  0  0  0  0  0  0  0  0
   15.2965   -2.2701    3.1212 H   0  0  0  0  0  0  0  0  0  0  0  0
   15.2654   -2.8956    0.6398 N   0  0  0  0  0  4  0  0  0  0  0  0
   16.2219   -3.0191    0.9773 H   0  0  0  0  0  0  0  0  0  0  0  0
   15.3317   -0.8370   -1.4904 C   0  0  0  0  0  0  0  0  0  0  0  0
   14.8893   -0.5034   -0.5567 H   0  0  0  0  0  0  0  0  0  0  0  0
   15.4829    2.0056   -0.7889 C   0  0  0  0  0  0  0  0  0  0  0  0
   15.3667    1.2891    0.0183 H   0  0  0  0  0  0  0  0  0  0  0  0
   15.4103    3.3764   -0.5521 C   0  0  0  0  0  0  0  0  0  0  0  0
   15.2135    3.7520    0.4442 H   0  0  0  0  0  0  0  0  0  0  0  0
  1  2  1  0
  2  3  2  0
  3  4  1  0
  4  5  1  0
  4  6  2  0
  6  7  1  0
  7  8  2  0
  8  9  1  0
  8 10  1  0
 10 11  1  0
 10 12  2  0
 12 13  1  0
 12 14  1  0
 15 14  1  6
 15 16  1  0
 16 17  2  0
 17 18  1  0
 17 19  1  0
 19 20  1  0
 19 21  2  0
 21 22  1  0
 21 23  1  0
 23 24  1  0
 23 25  2  0
 25 26  1  0
 15 27  1  0
 27 28  2  0
 27 29  1  0
 29 30  1  0
 30 31  2  0
 30 32  1  0
 32 33  2  0
 33 34  1  0
 33 35  1  0
 35 36  1  0
 35 37  2  0
 37 38  1  0
 37 39  1  0
 39 40  1  0
 39 41  2  0
 41 42  1  0
 29 43  1  0
 43 44  1  0
 44 45  1  0
 44 46  1  0
 43 47  2  0
 47 48  1  0
 14 49  2  0
 49 50  1  0
  6 51  1  0
 51 52  1  0
 51 53  2  0
 53 54  1  0
 53  2  1  0
 49  7  1  0
 47 15  1  0
 25 16  1  0
 41 32  1  0
M  CHG  1  47   1
M  END
>  <score>  (76) 
5.83187

$$$$

     RDKit          3D

 58 62  0  0  0  0  0  0  0  0999 V2000
   15.5270    5.3280   -1.4165 H   0  0  0  0  0  0  0  0  0  0  0  0
   15.5883    4.2620   -1.6136 C   0  0  0  0  0  0  0  0  0  0  0  0
   15.8397    3.8491   -2.8652 N   0  0  0  0  0  0  0  0  0  0  0  0
   15.9067    2.5252   -3.0978 C   0  0  0  0  0  0  0  0  0  0  0  0
   16.1038    2.1959   -4.1140 H   0  0  0  0  0  0  0  0  0  0  0  0
   15.7211    1.5578   -2.0950 C   0  0  0  0  0  0  0  0  0  0  0  0
   15.7840    0.1208   -2.3954 C   0  0  0  0  0  0  0  0  0  0  0  0
   16.3321   -0.3204   -3.6040 C   0  0  0  0  0  0  0  0  0  0  0  0
   16.7063    0.4073   -4.3179 H   0  0  0  0  0  0  0  0  0  0  0  0
   16.4090   -1.6847   -3.8872 C   0  0  0  0  0  0  0  0  0  0  0  0
   16.8432   -2.0089   -4.8264 H   0  0  0  0  0  0  0  0  0  0  0  0
   15.9269   -2.6220   -2.9665 C   0  0  0  0  0  0  0  0  0  0  0  0
   15.9836   -3.6794   -3.2033 H   0  0  0  0  0  0  0  0  0  0  0  0
   15.3722   -2.2118   -1.7426 C   0  0  0  0  0  0  0  0  0  0  0  0
   14.8115   -3.2137   -0.7361 C   0  0  2  0  0  0  0  0  0  0  0  0
   15.1711   -4.6655   -1.0483 C   0  0  0  0  0  0  0  0  0  0  0  0
   16.3942   -5.1896   -0.5975 C   0  0  0  0  0  0  0  0  0  0  0  0
   17.0807   -4.5453   -0.0556 H   0  0  0  0  0  0  0  0  0  0  0  0
   16.7254   -6.5308   -0.8046 C   0  0  0  0  0  0  0  0  0  0  0  0
   17.6654   -6.9153   -0.4195 H   0  0  0  0  0  0  0  0  0  0  0  0
   15.8413   -7.3705   -1.4871 C   0  0  0  0  0  0  0  0  0  0  0  0
   16.0936   -8.4163   -1.6363 H   0  0  0  0  0  0  0  0  0  0  0  0
   14.6285   -6.8613   -1.9659 C   0  0  0  0  0  0  0  0  0  0  0  0
   13.9415   -7.5138   -2.4966 H   0  0  0  0  0  0  0  0  0  0  0  0
   14.2944   -5.5163   -1.7481 C   0  0  0  0  0  0  0  0  0  0  0  0
   13.3430   -5.1378   -2.1121 H   0  0  0  0  0  0  0  0  0  0  0  0
   13.3001   -2.9912   -0.5356 C   0  0  0  0  0  0  0  0  0  0  0  0
   12.4053   -3.0637   -1.3689 O   0  0  0  0  0  0  0  0  0  0  0  0
   13.0525   -2.7691    0.7915 N   0  0  0  0  0  0  0  0  0  0  0  0
   11.8319   -2.4108    1.2932 C   0  0  0  0  0  0  0  0  0  0  0  0
   11.0621   -1.8982    0.4929 O   0  0  0  0  0  0  0  0  0  0  0  0
   11.2748   -3.0323    2.5014 C   0  0  0  0  0  0  0  0  0  0  0  0
   11.7613   -4.2789    2.9155 C   0  0  0  0  0  0  0  0  0  0  0  0
   12.6857   -4.6910    2.5174 H   0  0  0  0  0  0  0  0  0  0  0  0
   10.9924   -5.0641    3.7737 C   0  0  0  0  0  0  0  0  0  0  0  0
   11.2894   -6.0685    4.0302 H   0  0  0  0  0  0  0  0  0  0  0  0
    9.8023   -4.6034    4.3150 C   0  0  0  0  0  0  0  0  0  0  0  0
    9.0796   -5.4856    5.0826 O   0  0  0  0  0  0  0  0  0  0  0  0
    7.9658   -4.9507    5.8030 C   0  0  0  0  0  0  0  0  0  0  0  0
    8.1309   -3.8966    6.0271 H   0  0  0  0  0  0  0  0  0  0  0  0
    7.0406   -5.0596    5.2316 H   0  0  0  0  0  0  0  0  0  0  0  0
    7.8459   -5.4900    6.7459 H   0  0  0  0  0  0  0  0  0  0  0  0
    9.4204   -3.2819    4.0606 C   0  0  0  0  0  0  0  0  0  0  0  0
    8.5444   -2.8688    4.5407 H   0  0  0  0  0  0  0  0  0  0  0  0
   10.1375   -2.5103    3.1447 C   0  0  0  0  0  0  0  0  0  0  0  0
    9.7682   -1.5213    2.9032 H   0  0  0  0  0  0  0  0  0  0  0  0
   14.2357   -2.7400    1.4550 C   0  0  0  0  0  0  0  0  0  0  0  0
   14.3620   -2.4860    2.7833 N   0  0  0  0  0  0  0  0  0  0  0  0
   13.5555   -2.0796    3.2535 H   0  0  0  0  0  0  0  0  0  0  0  0
   15.2945   -2.2419    3.1195 H   0  0  0  0  0  0  0  0  0  0  0  0
   15.2331   -2.9201    0.6518 N   0  0  0  0  0  4  0  0  0  0  0  0
   16.2059   -2.9855    0.9581 H   0  0  0  0  0  0  0  0  0  0  0  0
   15.3033   -0.8312   -1.4792 C   0  0  0  0  0  0  0  0  0  0  0  0
   14.8656   -0.4855   -0.5472 H   0  0  0  0  0  0  0  0  0  0  0  0
   15.4804    1.9977   -0.7943 C   0  0  0  0  0  0  0  0  0  0  0  0
   15.3701    1.2783    0.0115 H   0  0  0  0  0  0  0  0  0  0  0  0
   15.4062    3.3665   -0.5576 C   0  0  0  0  0  0  0  0  0  0  0  0
   15.2112    3.7393    0.4398 H   0  0  0  0  0  0  0  0  0  0  0  0
  1  2  1  0
  2  3  2  0
  3  4  1  0
  4  5  1  0
  4  6  2  0
  6  7  1  0
  7  8  2  0
  8  9  1  0
  8 10  1  0
 10 11  1  0
 10 12  2  0
 12 13  1  0
 12 14  1  0
 15 14  1  6
 15 16  1  0
 16 17  2  0
 17 18  1  0
 17 19  1  0
 19 20  1  0
 19 21  2  0
 21 22  1  0
 21 23  1  0
 23 24  1  0
 23 25  2  0
 25 26  1  0
 15 27  1  0
 27 28  2  0
 27 29  1  0
 29 30  1  0
 30 31  2  0
 30 32  1  0
 32 33  2  0
 33 34  1  0
 33 35  1  0
 35 36  1  0
 35 37  2  0
 37 38  1  0
 38 39  1  0
 39 40  1  0
 39 41  1  0
 39 42  1  0
 37 43  1  0
 43 44  1  0
 43 45  2  0
 45 46  1  0
 29 47  1  0
 47 48  1  0
 48 49  1  0
 48 50  1  0
 47 51  2  0
 51 52  1  0
 14 53  2  0
 53 54  1  0
  6 55  1  0
 55 56  1  0
 55 57  2  0
 57 58  1  0
 57  2  1  0
 53  7  1  0
 51 15  1  0
 25 16  1  0
 45 32  1  0
M  CHG  1  51   1
M  END
>  <score>  (77) 
5.83046

$$$$

     RDKit          3D

 57 62  0  0  0  0  0  0  0  0999 V2000
   15.5229    5.3254   -1.4283 H   0  0  0  0  0  0  0  0  0  0  0  0
   15.6000    4.2579   -1.6121 C   0  0  0  0  0  0  0  0  0  0  0  0
   15.8516    3.8346   -2.8604 N   0  0  0  0  0  0  0  0  0  0  0  0
   15.9234    2.5083   -3.0805 C   0  0  0  0  0  0  0  0  0  0  0  0
   16.1218    2.1621   -4.0896 H   0  0  0  0  0  0  0  0  0  0  0  0
   15.7426    1.5465   -2.0740 C   0  0  0  0  0  0  0  0  0  0  0  0
   15.7957    0.1054   -2.3808 C   0  0  0  0  0  0  0  0  0  0  0  0
   16.3244   -0.3557   -3.5953 C   0  0  0  0  0  0  0  0  0  0  0  0
   16.7029    0.3587   -4.3191 H   0  0  0  0  0  0  0  0  0  0  0  0
   16.3775   -1.7256   -3.8765 C   0  0  0  0  0  0  0  0  0  0  0  0
   16.7938   -2.0689   -4.8194 H   0  0  0  0  0  0  0  0  0  0  0  0
   15.9061   -2.6496   -2.9371 C   0  0  0  0  0  0  0  0  0  0  0  0
   15.9477   -3.7123   -3.1590 H   0  0  0  0  0  0  0  0  0  0  0  0
   15.3867   -2.2174   -1.7053 C   0  0  0  0  0  0  0  0  0  0  0  0
   14.8550   -3.1918   -0.6673 C   0  0  2  0  0  0  0  0  0  0  0  0
   15.1875   -4.6368   -0.9894 C   0  0  0  0  0  0  0  0  0  0  0  0
   16.4095   -5.1686   -0.5640 C   0  0  0  0  0  0  0  0  0  0  0  0
   17.0987   -4.5273   -0.0227 H   0  0  0  0  0  0  0  0  0  0  0  0
   16.7320   -6.5031   -0.8049 C   0  0  0  0  0  0  0  0  0  0  0  0
   17.6800   -6.8883   -0.4417 H   0  0  0  0  0  0  0  0  0  0  0  0
   15.8360   -7.3229   -1.4985 C   0  0  0  0  0  0  0  0  0  0  0  0
   16.0921   -8.3604   -1.6844 H   0  0  0  0  0  0  0  0  0  0  0  0
   14.6226   -6.7996   -1.9619 C   0  0  0  0  0  0  0  0  0  0  0  0
   13.9314   -7.4359   -2.5085 H   0  0  0  0  0  0  0  0  0  0  0  0
   14.3010   -5.4596   -1.7118 C   0  0  0  0  0  0  0  0  0  0  0  0
   13.3512   -5.0714   -2.0701 H   0  0  0  0  0  0  0  0  0  0  0  0
   13.3506   -2.9662   -0.4730 C   0  0  0  0  0  0  0  0  0  0  0  0
   12.4408   -3.2219   -1.2635 O   0  0  0  0  0  0  0  0  0  0  0  0
   13.1439   -2.4928    0.7839 N   0  0  0  0  0  0  0  0  0  0  0  0
   11.9114   -2.4771    1.3438 C   0  0  0  0  0  0  0  0  0  0  0  0
   11.7510   -3.1809    2.4530 N   0  0  0  0  0  0  0  0  0  0  0  0
   10.5070   -3.2995    2.9402 C   0  0  0  0  0  0  0  0  0  0  0  0
   10.2962   -4.1248    4.0478 C   0  0  0  0  0  0  0  0  0  0  0  0
   11.1490   -4.6142    4.5032 H   0  0  0  0  0  0  0  0  0  0  0  0
    9.0085   -4.3454    4.5524 C   0  0  0  0  0  0  0  0  0  0  0  0
    8.8399   -5.0169    5.3916 H   0  0  0  0  0  0  0  0  0  0  0  0
    7.9181   -3.7220    3.9501 C   0  0  0  0  0  0  0  0  0  0  0  0
    6.9260   -3.8870    4.3552 H   0  0  0  0  0  0  0  0  0  0  0  0
    8.1027   -2.9003    2.8371 C   0  0  0  0  0  0  0  0  0  0  0  0
    7.2482   -2.4713    2.3356 H   0  0  0  0  0  0  0  0  0  0  0  0
    9.3875   -2.6836    2.3297 C   0  0  0  0  0  0  0  0  0  0  0  0
    9.5874   -1.9055    1.1906 C   0  0  0  0  0  0  0  0  0  0  0  0
    8.7678   -1.4055    0.6853 H   0  0  0  0  0  0  0  0  0  0  0  0
   10.8777   -1.8293    0.6851 C   0  0  0  0  0  0  0  0  0  0  0  0
   11.1125   -1.3091   -0.2341 H   0  0  0  0  0  0  0  0  0  0  0  0
   14.3102   -2.6145    1.4766 C   0  0  0  0  0  0  0  0  0  0  0  0
   14.3948   -2.4943    2.8262 N   0  0  0  0  0  0  0  0  0  0  0  0
   15.3016   -2.2307    3.2074 H   0  0  0  0  0  0  0  0  0  0  0  0
   13.5467   -2.1694    3.2922 H   0  0  0  0  0  0  0  0  0  0  0  0
   15.3139   -2.8611    0.7038 N   0  0  0  0  0  4  0  0  0  0  0  0
   16.2390   -3.1219    1.0569 H   0  0  0  0  0  0  0  0  0  0  0  0
   15.3160   -0.8367   -1.4595 C   0  0  0  0  0  0  0  0  0  0  0  0
   14.8728   -0.4832   -0.5342 H   0  0  0  0  0  0  0  0  0  0  0  0
   15.5189    1.9992   -0.7715 C   0  0  0  0  0  0  0  0  0  0  0  0
   15.4113    1.2896    0.0437 H   0  0  0  0  0  0  0  0  0  0  0  0
   15.4404    3.3712   -0.5437 C   0  0  0  0  0  0  0  0  0  0  0  0
   15.2536    3.7525    0.4533 H   0  0  0  0  0  0  0  0  0  0  0  0
  1  2  1  0
  2  3  2  0
  3  4  1  0
  4  5  1  0
  4  6  2  0
  6  7  1  0
  7  8  2  0
  8  9  1  0
  8 10  1  0
 10 11  1  0
 10 12  2  0
 12 13  1  0
 12 14  1  0
 15 14  1  6
 15 16  1  0
 16 17  2  0
 17 18  1  0
 17 19  1  0
 19 20  1  0
 19 21  2  0
 21 22  1  0
 21 23  1  0
 23 24  1  0
 23 25  2  0
 25 26  1  0
 15 27  1  0
 27 28  2  0
 27 29  1  0
 29 30  1  0
 30 31  2  0
 31 32  1  0
 32 33  2  0
 33 34  1  0
 33 35  1  0
 35 36  1  0
 35 37  2  0
 37 38  1  0
 37 39  1  0
 39 40  1  0
 39 41  2  0
 41 42  1  0
 42 43  1  0
 42 44  2  0
 44 45  1  0
 29 46  1  0
 46 47  1  0
 47 48  1  0
 47 49  1  0
 46 50  2  0
 50 51  1  0
 14 52  2  0
 52 53  1  0
  6 54  1  0
 54 55  1  0
 54 56  2  0
 56 57  1  0
 56  2  1  0
 52  7  1  0
 50 15  1  0
 25 16  1  0
 44 30  1  0
 41 32  1  0
M  CHG  1  50   1
M  END
>  <score>  (78) 
5.83021

$$$$

     RDKit          3D

 53 57  0  0  0  0  0  0  0  0999 V2000
   15.5536    5.3503   -1.3959 H   0  0  0  0  0  0  0  0  0  0  0  0
   15.5881    4.2841   -1.6049 C   0  0  0  0  0  0  0  0  0  0  0  0
   15.8243    3.8692   -2.8588 N   0  0  0  0  0  0  0  0  0  0  0  0
   15.8786    2.5433   -3.0934 C   0  0  0  0  0  0  0  0  0  0  0  0
   16.0672    2.2073   -4.1076 H   0  0  0  0  0  0  0  0  0  0  0  0
   15.6963    1.5706   -2.0962 C   0  0  0  0  0  0  0  0  0  0  0  0
   15.7797    0.1254   -2.4048 C   0  0  0  0  0  0  0  0  0  0  0  0
   16.3325   -0.3173   -3.6117 C   0  0  0  0  0  0  0  0  0  0  0  0
   16.7150    0.4200   -4.3085 H   0  0  0  0  0  0  0  0  0  0  0  0
   16.4214   -1.6834   -3.9064 C   0  0  0  0  0  0  0  0  0  0  0  0
   16.8640   -2.0065   -4.8415 H   0  0  0  0  0  0  0  0  0  0  0  0
   15.9410   -2.6319   -2.9968 C   0  0  0  0  0  0  0  0  0  0  0  0
   15.9967   -3.6913   -3.2359 H   0  0  0  0  0  0  0  0  0  0  0  0
   15.3802   -2.2251   -1.7760 C   0  0  0  0  0  0  0  0  0  0  0  0
   14.8006   -3.2320   -0.7812 C   0  0  2  0  0  0  0  0  0  0  0  0
   15.1636   -4.6969   -1.0731 C   0  0  0  0  0  0  0  0  0  0  0  0
   16.3838   -5.2195   -0.6032 C   0  0  0  0  0  0  0  0  0  0  0  0
   17.0677   -4.5715   -0.0621 H   0  0  0  0  0  0  0  0  0  0  0  0
   16.7287   -6.5631   -0.7996 C   0  0  0  0  0  0  0  0  0  0  0  0
   17.6692   -6.9479   -0.4162 H   0  0  0  0  0  0  0  0  0  0  0  0
   15.8554   -7.4142   -1.4783 C   0  0  0  0  0  0  0  0  0  0  0  0
   16.1082   -8.4624   -1.6149 H   0  0  0  0  0  0  0  0  0  0  0  0
   14.6426   -6.9168   -1.9631 C   0  0  0  0  0  0  0  0  0  0  0  0
   13.9641   -7.5822   -2.4886 H   0  0  0  0  0  0  0  0  0  0  0  0
   14.2982   -5.5680   -1.7641 C   0  0  0  0  0  0  0  0  0  0  0  0
   13.3476   -5.1989   -2.1364 H   0  0  0  0  0  0  0  0  0  0  0  0
   13.2836   -2.9770   -0.6049 C   0  0  0  0  0  0  0  0  0  0  0  0
   12.3715   -3.0605   -1.4214 O   0  0  0  0  0  0  0  0  0  0  0  0
   13.0417   -2.6922    0.7066 N   0  0  0  0  0  0  0  0  0  0  0  0
   11.8289   -2.3283    1.2196 C   0  0  0  0  0  0  0  0  0  0  0  0
   11.0883   -1.7119    0.4627 O   0  0  0  0  0  0  0  0  0  0  0  0
   11.2954   -3.0575    2.4158 C   0  0  0  0  0  0  0  0  0  0  0  0
   10.1900   -2.6123    3.1755 C   0  0  0  0  0  0  0  0  0  0  0  0
    9.6950   -1.6702    2.9705 H   0  0  0  0  0  0  0  0  0  0  0  0
    9.6927   -3.3796    4.2398 C   0  0  0  0  0  0  0  0  0  0  0  0
    8.8826   -2.9821    4.8490 H   0  0  0  0  0  0  0  0  0  0  0  0
   10.2003   -4.5788    4.5632 N   0  0  0  0  0  0  0  0  0  0  0  0
   11.2696   -5.0162    3.8895 C   0  0  0  0  0  0  0  0  0  0  0  0
   11.7335   -5.9445    4.1924 H   0  0  0  0  0  0  0  0  0  0  0  0
   11.8255   -4.3040    2.8236 C   0  0  0  0  0  0  0  0  0  0  0  0
   12.6627   -4.7750    2.3177 H   0  0  0  0  0  0  0  0  0  0  0  0
   14.2158   -2.6839    1.3852 C   0  0  0  0  0  0  0  0  0  0  0  0
   14.3581   -2.3894    2.7032 N   0  0  0  0  0  0  0  0  0  0  0  0
   15.3011   -2.3375    3.0900 H   0  0  0  0  0  0  0  0  0  0  0  0
   13.5606   -2.0595    3.2416 H   0  0  0  0  0  0  0  0  0  0  0  0
   15.2148   -2.9355    0.6123 N   0  0  0  0  0  4  0  0  0  0  0  0
   16.1880   -2.9447    0.9364 H   0  0  0  0  0  0  0  0  0  0  0  0
   15.3106   -0.8416   -1.4986 C   0  0  0  0  0  0  0  0  0  0  0  0
   14.8625   -0.5042   -0.5689 H   0  0  0  0  0  0  0  0  0  0  0  0
   15.4424    2.0138   -0.7983 C   0  0  0  0  0  0  0  0  0  0  0  0
   15.3306    1.2824   -0.0043 H   0  0  0  0  0  0  0  0  0  0  0  0
   15.3817    3.3870   -0.5554 C   0  0  0  0  0  0  0  0  0  0  0  0
   15.1813    3.7710    0.4374 H   0  0  0  0  0  0  0  0  0  0  0  0
  1  2  1  0
  2  3  2  0
  3  4  1  0
  4  5  1  0
  4  6  2  0
  6  7  1  0
  7  8  2  0
  8  9  1  0
  8 10  1  0
 10 11  1  0
 10 12  2  0
 12 13  1  0
 12 14  1  0
 15 14  1  6
 15 16  1  0
 16 17  2  0
 17 18  1  0
 17 19  1  0
 19 20  1  0
 19 21  2  0
 21 22  1  0
 21 23  1  0
 23 24  1  0
 23 25  2  0
 25 26  1  0
 15 27  1  0
 27 28  2  0
 27 29  1  0
 29 30  1  0
 30 31  2  0
 30 32  1  0
 32 33  2  0
 33 34  1  0
 33 35  1  0
 35 36  1  0
 35 37  2  0
 37 38  1  0
 38 39  1  0
 38 40  2  0
 40 41  1  0
 29 42  1  0
 42 43  1  0
 43 44  1  0
 43 45  1  0
 42 46  2  0
 46 47  1  0
 14 48  2  0
 48 49  1  0
  6 50  1  0
 50 51  1  0
 50 52  2  0
 52 53  1  0
 52  2  1  0
 48  7  1  0
 46 15  1  0
 25 16  1  0
 40 32  1  0
M  CHG  1  46   1
M  END
>  <score>  (79) 
5.82957

$$$$

     RDKit          3D

 56 59  0  0  0  0  0  0  0  0999 V2000
   15.5648    5.3685   -1.3881 H   0  0  0  0  0  0  0  0  0  0  0  0
   15.5846    4.2988   -1.5989 C   0  0  0  0  0  0  0  0  0  0  0  0
   15.8185    3.8777   -2.8527 N   0  0  0  0  0  0  0  0  0  0  0  0
   15.8691    2.5491   -3.0894 C   0  0  0  0  0  0  0  0  0  0  0  0
   16.0549    2.2142   -4.1037 H   0  0  0  0  0  0  0  0  0  0  0  0
   15.6895    1.5694   -2.0982 C   0  0  0  0  0  0  0  0  0  0  0  0
   15.7708    0.1203   -2.4108 C   0  0  0  0  0  0  0  0  0  0  0  0
   16.3410   -0.3198   -3.6116 C   0  0  0  0  0  0  0  0  0  0  0  0
   16.7190    0.4188   -4.3113 H   0  0  0  0  0  0  0  0  0  0  0  0
   16.4321   -1.6871   -3.9075 C   0  0  0  0  0  0  0  0  0  0  0  0
   16.8642   -2.0047   -4.8510 H   0  0  0  0  0  0  0  0  0  0  0  0
   15.9463   -2.6422   -3.0045 C   0  0  0  0  0  0  0  0  0  0  0  0
   16.0018   -3.7015   -3.2491 H   0  0  0  0  0  0  0  0  0  0  0  0
   15.3789   -2.2387   -1.7862 C   0  0  0  0  0  0  0  0  0  0  0  0
   14.8209   -3.2465   -0.7844 C   0  0  2  0  0  0  0  0  0  0  0  0
   15.1796   -4.7113   -1.0753 C   0  0  0  0  0  0  0  0  0  0  0  0
   16.3958   -5.2339   -0.6087 C   0  0  0  0  0  0  0  0  0  0  0  0
   17.0688   -4.5809   -0.0604 H   0  0  0  0  0  0  0  0  0  0  0  0
   16.7331   -6.5779   -0.8051 C   0  0  0  0  0  0  0  0  0  0  0  0
   17.6713   -6.9576   -0.4144 H   0  0  0  0  0  0  0  0  0  0  0  0
   15.8551   -7.4333   -1.4750 C   0  0  0  0  0  0  0  0  0  0  0  0
   16.1155   -8.4810   -1.6124 H   0  0  0  0  0  0  0  0  0  0  0  0
   14.6443   -6.9324   -1.9620 C   0  0  0  0  0  0  0  0  0  0  0  0
   13.9696   -7.6022   -2.4876 H   0  0  0  0  0  0  0  0  0  0  0  0
   14.3074   -5.5811   -1.7671 C   0  0  0  0  0  0  0  0  0  0  0  0
   13.3557   -5.2185   -2.1447 H   0  0  0  0  0  0  0  0  0  0  0  0
   13.3084   -3.0253   -0.5991 C   0  0  0  0  0  0  0  0  0  0  0  0
   12.4415   -3.1235   -1.4656 O   0  0  0  0  0  0  0  0  0  0  0  0
   13.0260   -2.6387    0.6960 N   0  0  0  0  0  0  0  0  0  0  0  0
   11.6898   -2.5712    1.3151 C   0  0  0  0  0  0  0  0  0  0  0  0
   11.6696   -1.8141    2.1046 H   0  0  0  0  0  0  0  0  0  0  0  0
   10.9303   -2.2825    0.5757 H   0  0  0  0  0  0  0  0  0  0  0  0
   11.3069   -3.9268    1.9097 C   0  0  0  0  0  0  0  0  0  0  0  0
   11.3820   -4.6802    1.1172 H   0  0  0  0  0  0  0  0  0  0  0  0
   12.0332   -4.1839    2.6907 H   0  0  0  0  0  0  0  0  0  0  0  0
    9.9368   -3.9272    2.4695 N   0  0  0  0  0  0  0  0  0  0  0  0
    9.8424   -3.2859    3.7958 C   0  0  0  0  0  0  0  0  0  0  0  0
   10.4223   -3.8635    4.5252 H   0  0  0  0  0  0  0  0  0  0  0  0
    8.7979   -3.2570    4.1319 H   0  0  0  0  0  0  0  0  0  0  0  0
   10.2415   -2.2645    3.7675 H   0  0  0  0  0  0  0  0  0  0  0  0
    9.3197   -5.2672    2.4446 C   0  0  0  0  0  0  0  0  0  0  0  0
    9.8965   -5.9663    3.0635 H   0  0  0  0  0  0  0  0  0  0  0  0
    9.2962   -5.6556    1.4184 H   0  0  0  0  0  0  0  0  0  0  0  0
    8.2948   -5.2253    2.8332 H   0  0  0  0  0  0  0  0  0  0  0  0
   14.2355   -2.6176    1.3599 C   0  0  0  0  0  0  0  0  0  0  0  0
   14.4025   -2.3533    2.6884 N   0  0  0  0  0  0  0  0  0  0  0  0
   15.3426   -2.3447    3.0866 H   0  0  0  0  0  0  0  0  0  0  0  0
   13.5882   -2.1419    3.2603 H   0  0  0  0  0  0  0  0  0  0  0  0
   15.2326   -2.8935    0.5915 N   0  0  0  0  0  4  0  0  0  0  0  0
   16.1999   -2.9291    0.9167 H   0  0  0  0  0  0  0  0  0  0  0  0
   15.2991   -0.8540   -1.5131 C   0  0  0  0  0  0  0  0  0  0  0  0
   14.8692   -0.5210   -0.5749 H   0  0  0  0  0  0  0  0  0  0  0  0
   15.4409    2.0195   -0.7999 C   0  0  0  0  0  0  0  0  0  0  0  0
   15.3118    1.2920   -0.0062 H   0  0  0  0  0  0  0  0  0  0  0  0
   15.3778    3.3963   -0.5526 C   0  0  0  0  0  0  0  0  0  0  0  0
   15.1704    3.7848    0.4392 H   0  0  0  0  0  0  0  0  0  0  0  0
  1  2  1  0
  2  3  2  0
  3  4  1  0
  4  5  1  0
  4  6  2  0
  6  7  1  0
  7  8  2  0
  8  9  1  0
  8 10  1  0
 10 11  1  0
 10 12  2  0
 12 13  1  0
 12 14  1  0
 15 14  1  6
 15 16  1  0
 16 17  2  0
 17 18  1  0
 17 19  1  0
 19 20  1  0
 19 21  2  0
 21 22  1  0
 21 23  1  0
 23 24  1  0
 23 25  2  0
 25 26  1  0
 15 27  1  0
 27 28  2  0
 27 29  1  0
 29 30  1  0
 30 31  1  0
 30 32  1  0
 30 33  1  0
 33 34  1  0
 33 35  1  0
 33 36  1  0
 36 37  1  0
 37 38  1  0
 37 39  1  0
 37 40  1  0
 36 41  1  0
 41 42  1  0
 41 43  1  0
 41 44  1  0
 29 45  1  0
 45 46  1  0
 46 47  1  0
 46 48  1  0
 45 49  2  0
 49 50  1  0
 14 51  2  0
 51 52  1  0
  6 53  1  0
 53 54  1  0
 53 55  2  0
 55 56  1  0
 55  2  1  0
 51  7  1  0
 49 15  1  0
 25 16  1  0
M  CHG  1  49   1
M  END
>  <score>  (80) 
5.82677

$$$$

     RDKit          3D

 57 62  0  0  0  0  0  0  0  0999 V2000
   15.5696    5.3722   -1.3874 H   0  0  0  0  0  0  0  0  0  0  0  0
   15.5834    4.3032   -1.5954 C   0  0  0  0  0  0  0  0  0  0  0  0
   15.8191    3.8805   -2.8475 N   0  0  0  0  0  0  0  0  0  0  0  0
   15.8638    2.5526   -3.0876 C   0  0  0  0  0  0  0  0  0  0  0  0
   16.0465    2.2237   -4.1054 H   0  0  0  0  0  0  0  0  0  0  0  0
   15.6855    1.5707   -2.0958 C   0  0  0  0  0  0  0  0  0  0  0  0
   15.7707    0.1184   -2.4105 C   0  0  0  0  0  0  0  0  0  0  0  0
   16.3476   -0.3216   -3.6108 C   0  0  0  0  0  0  0  0  0  0  0  0
   16.7250    0.4072   -4.3213 H   0  0  0  0  0  0  0  0  0  0  0  0
   16.4315   -1.6897   -3.9079 C   0  0  0  0  0  0  0  0  0  0  0  0
   16.8644   -2.0081   -4.8517 H   0  0  0  0  0  0  0  0  0  0  0  0
   15.9439   -2.6449   -3.0050 C   0  0  0  0  0  0  0  0  0  0  0  0
   16.0040   -3.7008   -3.2577 H   0  0  0  0  0  0  0  0  0  0  0  0
   15.3787   -2.2441   -1.7821 C   0  0  0  0  0  0  0  0  0  0  0  0
   14.8062   -3.2498   -0.7840 C   0  0  2  0  0  0  0  0  0  0  0  0
   15.1688   -4.7154   -1.0722 C   0  0  0  0  0  0  0  0  0  0  0  0
   16.3901   -5.2372   -0.6104 C   0  0  0  0  0  0  0  0  0  0  0  0
   17.0656   -4.5863   -0.0635 H   0  0  0  0  0  0  0  0  0  0  0  0
   16.7293   -6.5814   -0.8034 C   0  0  0  0  0  0  0  0  0  0  0  0
   17.6719   -6.9560   -0.4166 H   0  0  0  0  0  0  0  0  0  0  0  0
   15.8538   -7.4398   -1.4729 C   0  0  0  0  0  0  0  0  0  0  0  0
   16.1206   -8.4856   -1.6114 H   0  0  0  0  0  0  0  0  0  0  0  0
   14.6430   -6.9384   -1.9619 C   0  0  0  0  0  0  0  0  0  0  0  0
   13.9721   -7.6114   -2.4878 H   0  0  0  0  0  0  0  0  0  0  0  0
   14.3023   -5.5879   -1.7667 C   0  0  0  0  0  0  0  0  0  0  0  0
   13.3526   -5.2312   -2.1545 H   0  0  0  0  0  0  0  0  0  0  0  0
   13.2948   -2.9946   -0.6160 C   0  0  0  0  0  0  0  0  0  0  0  0
   12.4431   -3.0817   -1.5004 O   0  0  0  0  0  0  0  0  0  0  0  0
   13.0133   -2.6262    0.6890 N   0  0  0  0  0  0  0  0  0  0  0  0
   11.7500   -2.2788    1.2255 C   0  0  0  0  0  0  0  0  0  0  0  0
   11.1113   -1.1487    0.6930 C   0  0  0  0  0  0  0  0  0  0  0  0
   11.6156   -0.5665   -0.0752 H   0  0  0  0  0  0  0  0  0  0  0  0
    9.8638   -0.7336    1.1691 C   0  0  0  0  0  0  0  0  0  0  0  0
    9.4105    0.1743    0.7813 H   0  0  0  0  0  0  0  0  0  0  0  0
    9.2348   -1.4427    2.1980 C   0  0  0  0  0  0  0  0  0  0  0  0
    8.2895   -1.0873    2.5987 H   0  0  0  0  0  0  0  0  0  0  0  0
    9.8538   -2.5716    2.7531 C   0  0  0  0  0  0  0  0  0  0  0  0
    9.2219   -3.2875    3.7724 C   0  0  0  0  0  0  0  0  0  0  0  0
    8.2547   -2.9845    4.1726 H   0  0  0  0  0  0  0  0  0  0  0  0
    9.8659   -4.4253    4.2476 C   0  0  0  0  0  0  0  0  0  0  0  0
    9.4249   -5.0329    5.0240 H   0  0  0  0  0  0  0  0  0  0  0  0
   11.1061   -4.7996    3.7300 C   0  0  0  0  0  0  0  0  0  0  0  0
   11.5908   -5.6871    4.1145 H   0  0  0  0  0  0  0  0  0  0  0  0
   11.7211   -4.1118    2.7649 N   0  0  0  0  0  0  0  0  0  0  0  0
   11.1211   -3.0057    2.2732 C   0  0  0  0  0  0  0  0  0  0  0  0
   14.2162   -2.6272    1.3656 C   0  0  0  0  0  0  0  0  0  0  0  0
   14.4008   -2.3279    2.6891 N   0  0  0  0  0  0  0  0  0  0  0  0
   15.3348   -2.3743    3.0982 H   0  0  0  0  0  0  0  0  0  0  0  0
   13.5916   -2.0925    3.2616 H   0  0  0  0  0  0  0  0  0  0  0  0
   15.2133   -2.9154    0.5970 N   0  0  0  0  0  4  0  0  0  0  0  0
   16.1844   -2.9211    0.9064 H   0  0  0  0  0  0  0  0  0  0  0  0
   15.2967   -0.8588   -1.5147 C   0  0  0  0  0  0  0  0  0  0  0  0
   14.8704   -0.5264   -0.5755 H   0  0  0  0  0  0  0  0  0  0  0  0
   15.4355    2.0250   -0.7971 C   0  0  0  0  0  0  0  0  0  0  0  0
   15.2987    1.3083    0.0036 H   0  0  0  0  0  0  0  0  0  0  0  0
   15.3720    3.4014   -0.5513 C   0  0  0  0  0  0  0  0  0  0  0  0
   15.1681    3.7872    0.4411 H   0  0  0  0  0  0  0  0  0  0  0  0
  1  2  1  0
  2  3  2  0
  3  4  1  0
  4  5  1  0
  4  6  2  0
  6  7  1  0
  7  8  2  0
  8  9  1  0
  8 10  1  0
 10 11  1  0
 10 12  2  0
 12 13  1  0
 12 14  1  0
 15 14  1  6
 15 16  1  0
 16 17  2  0
 17 18  1  0
 17 19  1  0
 19 20  1  0
 19 21  2  0
 21 22  1  0
 21 23  1  0
 23 24  1  0
 23 25  2  0
 25 26  1  0
 15 27  1  0
 27 28  2  0
 27 29  1  0
 29 30  1  0
 30 31  2  0
 31 32  1  0
 31 33  1  0
 33 34  1  0
 33 35  2  0
 35 36  1  0
 35 37  1  0
 37 38  2  0
 38 39  1  0
 38 40  1  0
 40 41  1  0
 40 42  2  0
 42 43  1  0
 42 44  1  0
 44 45  2  0
 29 46  1  0
 46 47  1  0
 47 48  1  0
 47 49  1  0
 46 50  2  0
 50 51  1  0
 14 52  2  0
 52 53  1  0
  6 54  1  0
 54 55  1  0
 54 56  2  0
 56 57  1  0
 56  2  1  0
 52  7  1  0
 50 15  1  0
 25 16  1  0
 45 30  1  0
 45 37  1  0
M  CHG  1  50   1
M  END
>  <score>  (81) 
5.82495

$$$$

     RDKit          3D

 57 61  0  0  0  0  0  0  0  0999 V2000
   15.4949    5.4289   -1.4084 H   0  0  0  0  0  0  0  0  0  0  0  0
   15.6709    4.3802   -1.6270 C   0  0  0  0  0  0  0  0  0  0  0  0
   15.9767    4.0197   -2.8828 N   0  0  0  0  0  0  0  0  0  0  0  0
   16.1726    2.7126   -3.1434 C   0  0  0  0  0  0  0  0  0  0  0  0
   16.3961    2.4217   -4.1656 H   0  0  0  0  0  0  0  0  0  0  0  0
   16.0714    1.7101   -2.1644 C   0  0  0  0  0  0  0  0  0  0  0  0
   16.2226    0.2831   -2.4982 C   0  0  0  0  0  0  0  0  0  0  0  0
   16.6253   -0.1459   -3.7709 C   0  0  0  0  0  0  0  0  0  0  0  0
   16.8718    0.5854   -4.5353 H   0  0  0  0  0  0  0  0  0  0  0  0
   16.6902   -1.5136   -4.0658 C   0  0  0  0  0  0  0  0  0  0  0  0
   16.9986   -1.8248   -5.0599 H   0  0  0  0  0  0  0  0  0  0  0  0
   16.3176   -2.4645   -3.1007 C   0  0  0  0  0  0  0  0  0  0  0  0
   16.3289   -3.5187   -3.3620 H   0  0  0  0  0  0  0  0  0  0  0  0
   15.8893   -2.0554   -1.8227 C   0  0  0  0  0  0  0  0  0  0  0  0
   15.2580   -3.0011   -0.8050 C   0  0  2  0  0  0  0  0  0  0  0  0
   15.5395   -4.4751   -1.0710 C   0  0  0  0  0  0  0  0  0  0  0  0
   16.7078   -5.1086   -0.6115 C   0  0  0  0  0  0  0  0  0  0  0  0
   17.4635   -4.5383   -0.0783 H   0  0  0  0  0  0  0  0  0  0  0  0
   16.9021   -6.4823   -0.8149 C   0  0  0  0  0  0  0  0  0  0  0  0
   17.8010   -6.9637   -0.4409 H   0  0  0  0  0  0  0  0  0  0  0  0
   15.9358   -7.2385   -1.4887 C   0  0  0  0  0  0  0  0  0  0  0  0
   16.0767   -8.3061   -1.6352 H   0  0  0  0  0  0  0  0  0  0  0  0
   14.7832   -6.6143   -1.9733 C   0  0  0  0  0  0  0  0  0  0  0  0
   14.0257   -7.1877   -2.4998 H   0  0  0  0  0  0  0  0  0  0  0  0
   14.5946   -5.2444   -1.7716 C   0  0  0  0  0  0  0  0  0  0  0  0
   13.6931   -4.7701   -2.1471 H   0  0  0  0  0  0  0  0  0  0  0  0
   13.7414   -2.7216   -0.7470 C   0  0  0  0  0  0  0  0  0  0  0  0
   12.9969   -2.7605   -1.7308 O   0  0  0  0  0  0  0  0  0  0  0  0
   13.3139   -2.4337    0.5538 N   0  0  0  0  0  0  0  0  0  0  0  0
   11.9640   -2.0270    1.0179 N   0  0  0  0  0  0  0  0  0  0  0  0
   11.9808   -1.5044    1.8910 H   0  0  0  0  0  0  0  0  0  0  0  0
   10.5012   -3.0025    1.1158 S   0  0  0  0  0  0  0  0  0  0  0  0
    9.6390   -2.3559    2.1183 O   0  0  0  0  0  0  0  0  0  0  0  0
    9.8280   -3.0281   -0.1957 O   0  0  0  0  0  0  0  0  0  0  0  0
   11.0454   -4.6694    1.6509 C   0  0  0  0  0  0  0  0  0  0  0  0
   10.3005   -5.3752    2.6179 C   0  0  0  0  0  0  0  0  0  0  0  0
    9.3993   -4.9627    3.0748 H   0  0  0  0  0  0  0  0  0  0  0  0
   10.6544   -6.6874    2.9545 C   0  0  0  0  0  0  0  0  0  0  0  0
   10.0547   -7.2479    3.6663 H   0  0  0  0  0  0  0  0  0  0  0  0
   11.7646   -7.2986    2.3601 C   0  0  0  0  0  0  0  0  0  0  0  0
   12.0352   -8.3226    2.6089 H   0  0  0  0  0  0  0  0  0  0  0  0
   12.5281   -6.5883    1.4323 C   0  0  0  0  0  0  0  0  0  0  0  0
   13.4046   -7.0449    0.9801 H   0  0  0  0  0  0  0  0  0  0  0  0
   12.1760   -5.2855    1.0694 C   0  0  0  0  0  0  0  0  0  0  0  0
   12.7925   -4.7887    0.3208 H   0  0  0  0  0  0  0  0  0  0  0  0
   14.5166   -2.3284    1.2742 C   0  0  0  0  0  0  0  0  0  0  0  0
   14.6693   -1.9128    2.5729 N   0  0  0  0  0  0  0  0  0  0  0  0
   15.5676   -2.0853    3.0133 H   0  0  0  0  0  0  0  0  0  0  0  0
   13.8469   -1.8205    3.1634 H   0  0  0  0  0  0  0  0  0  0  0  0
   15.5716   -2.6484    0.5912 N   0  0  0  0  0  4  0  0  0  0  0  0
   16.5219   -2.6570    0.9703 H   0  0  0  0  0  0  0  0  0  0  0  0
   15.8841   -0.6839   -1.5431 C   0  0  0  0  0  0  0  0  0  0  0  0
   15.5500   -0.3582   -0.5648 H   0  0  0  0  0  0  0  0  0  0  0  0
   15.7658    2.0998   -0.8557 C   0  0  0  0  0  0  0  0  0  0  0  0
   15.6750    1.3641   -0.0588 H   0  0  0  0  0  0  0  0  0  0  0  0
   15.5614    3.4496   -0.5926 C   0  0  0  0  0  0  0  0  0  0  0  0
   15.3096    3.7794    0.4076 H   0  0  0  0  0  0  0  0  0  0  0  0
  1  2  1  0
  2  3  2  0
  3  4  1  0
  4  5  1  0
  4  6  2  0
  6  7  1  0
  7  8  2  0
  8  9  1  0
  8 10  1  0
 10 11  1  0
 10 12  2  0
 12 13  1  0
 12 14  1  0
 15 14  1  6
 15 16  1  0
 16 17  2  0
 17 18  1  0
 17 19  1  0
 19 20  1  0
 19 21  2  0
 21 22  1  0
 21 23  1  0
 23 24  1  0
 23 25  2  0
 25 26  1  0
 15 27  1  0
 27 28  2  0
 27 29  1  0
 29 30  1  0
 30 31  1  0
 30 32  1  0
 32 33  2  0
 32 34  2  0
 32 35  1  0
 35 36  2  0
 36 37  1  0
 36 38  1  0
 38 39  1  0
 38 40  2  0
 40 41  1  0
 40 42  1  0
 42 43  1  0
 42 44  2  0
 44 45  1  0
 29 46  1  0
 46 47  1  0
 47 48  1  0
 47 49  1  0
 46 50  2  0
 50 51  1  0
 14 52  2  0
 52 53  1  0
  6 54  1  0
 54 55  1  0
 54 56  2  0
 56 57  1  0
 56  2  1  0
 52  7  1  0
 50 15  1  0
 25 16  1  0
 44 35  1  0
M  CHG  1  50   1
M  END
>  <score>  (82) 
5.82117

$$$$

     RDKit          3D

 50 53  0  0  0  0  0  0  0  0999 V2000
   15.5577    5.3582   -1.3916 H   0  0  0  0  0  0  0  0  0  0  0  0
   15.5870    4.2905   -1.6032 C   0  0  0  0  0  0  0  0  0  0  0  0
   15.8204    3.8723   -2.8580 N   0  0  0  0  0  0  0  0  0  0  0  0
   15.8756    2.5450   -3.0920 C   0  0  0  0  0  0  0  0  0  0  0  0
   16.0640    2.2068   -4.1043 H   0  0  0  0  0  0  0  0  0  0  0  0
   15.6931    1.5689   -2.0984 C   0  0  0  0  0  0  0  0  0  0  0  0
   15.7744    0.1222   -2.4088 C   0  0  0  0  0  0  0  0  0  0  0  0
   16.3331   -0.3174   -3.6131 C   0  0  0  0  0  0  0  0  0  0  0  0
   16.7150    0.4252   -4.3051 H   0  0  0  0  0  0  0  0  0  0  0  0
   16.4276   -1.6851   -3.9076 C   0  0  0  0  0  0  0  0  0  0  0  0
   16.8640   -2.0038   -4.8474 H   0  0  0  0  0  0  0  0  0  0  0  0
   15.9473   -2.6380   -3.0013 C   0  0  0  0  0  0  0  0  0  0  0  0
   16.0018   -3.6974   -3.2416 H   0  0  0  0  0  0  0  0  0  0  0  0
   15.3832   -2.2323   -1.7828 C   0  0  0  0  0  0  0  0  0  0  0  0
   14.8239   -3.2415   -0.7835 C   0  0  2  0  0  0  0  0  0  0  0  0
   15.1821   -4.7054   -1.0748 C   0  0  0  0  0  0  0  0  0  0  0  0
   16.3982   -5.2291   -0.6052 C   0  0  0  0  0  0  0  0  0  0  0  0
   17.0742   -4.5778   -0.0592 H   0  0  0  0  0  0  0  0  0  0  0  0
   16.7365   -6.5732   -0.8039 C   0  0  0  0  0  0  0  0  0  0  0  0
   17.6730   -6.9594   -0.4130 H   0  0  0  0  0  0  0  0  0  0  0  0
   15.8578   -7.4251   -1.4781 C   0  0  0  0  0  0  0  0  0  0  0  0
   16.1096   -8.4736   -1.6141 H   0  0  0  0  0  0  0  0  0  0  0  0
   14.6460   -6.9247   -1.9639 C   0  0  0  0  0  0  0  0  0  0  0  0
   13.9654   -7.5906   -2.4876 H   0  0  0  0  0  0  0  0  0  0  0  0
   14.3113   -5.5739   -1.7670 C   0  0  0  0  0  0  0  0  0  0  0  0
   13.3589   -5.2042   -2.1353 H   0  0  0  0  0  0  0  0  0  0  0  0
   13.3068   -3.0243   -0.6165 C   0  0  0  0  0  0  0  0  0  0  0  0
   12.4430   -3.1502   -1.4804 O   0  0  0  0  0  0  0  0  0  0  0  0
   13.0289   -2.6207    0.6739 N   0  0  0  0  0  0  0  0  0  0  0  0
   11.6926   -2.5235    1.2861 C   0  0  0  0  0  0  0  0  0  0  0  0
   11.7506   -1.9095    2.1914 H   0  0  0  0  0  0  0  0  0  0  0  0
   11.0161   -2.0120    0.5886 H   0  0  0  0  0  0  0  0  0  0  0  0
   11.0704   -3.8848    1.6519 C   0  0  0  0  0  0  0  0  0  0  0  0
   11.0323   -4.5130    0.7508 H   0  0  0  0  0  0  0  0  0  0  0  0
   10.0385   -3.7130    1.9794 H   0  0  0  0  0  0  0  0  0  0  0  0
   11.8159   -4.5447    2.7524 N   0  0  0  0  0  0  0  0  0  0  0  0
   12.7513   -4.8242    2.4615 H   0  0  0  0  0  0  0  0  0  0  0  0
   11.3126   -5.3405    3.1385 H   0  0  0  0  0  0  0  0  0  0  0  0
   14.2328   -2.6007    1.3506 C   0  0  0  0  0  0  0  0  0  0  0  0
   14.3979   -2.3428    2.6784 N   0  0  0  0  0  0  0  0  0  0  0  0
   15.3390   -2.3438    3.0760 H   0  0  0  0  0  0  0  0  0  0  0  0
   13.5852   -2.1616    3.2642 H   0  0  0  0  0  0  0  0  0  0  0  0
   15.2381   -2.8923    0.5944 N   0  0  0  0  0  4  0  0  0  0  0  0
   16.2022   -2.9435    0.9338 H   0  0  0  0  0  0  0  0  0  0  0  0
   15.3074   -0.8484   -1.5057 C   0  0  0  0  0  0  0  0  0  0  0  0
   14.8670   -0.5133   -0.5723 H   0  0  0  0  0  0  0  0  0  0  0  0
   15.4429    2.0140   -0.8006 C   0  0  0  0  0  0  0  0  0  0  0  0
   15.3268    1.2807   -0.0094 H   0  0  0  0  0  0  0  0  0  0  0  0
   15.3820    3.3898   -0.5545 C   0  0  0  0  0  0  0  0  0  0  0  0
   15.1765    3.7769    0.4377 H   0  0  0  0  0  0  0  0  0  0  0  0
  1  2  1  0
  2  3  2  0
  3  4  1  0
  4  5  1  0
  4  6  2  0
  6  7  1  0
  7  8  2  0
  8  9  1  0
  8 10  1  0
 10 11  1  0
 10 12  2  0
 12 13  1  0
 12 14  1  0
 15 14  1  6
 15 16  1  0
 16 17  2  0
 17 18  1  0
 17 19  1  0
 19 20  1  0
 19 21  2  0
 21 22  1  0
 21 23  1  0
 23 24  1  0
 23 25  2  0
 25 26  1  0
 15 27  1  0
 27 28  2  0
 27 29  1  0
 29 30  1  0
 30 31  1  0
 30 32  1  0
 30 33  1  0
 33 34  1  0
 33 35  1  0
 33 36  1  0
 36 37  1  0
 36 38  1  0
 29 39  1  0
 39 40  1  0
 40 41  1  0
 40 42  1  0
 39 43  2  0
 43 44  1  0
 14 45  2  0
 45 46  1  0
  6 47  1  0
 47 48  1  0
 47 49  2  0
 49 50  1  0
 49  2  1  0
 45  7  1  0
 43 15  1  0
 25 16  1  0
M  CHG  1  43   1
M  END
>  <score>  (83) 
5.81647

$$$$

     RDKit          3D

 58 62  0  0  0  0  0  0  0  0999 V2000
   15.8589    5.3249   -1.5111 H   0  0  0  0  0  0  0  0  0  0  0  0
   15.8643    4.2500   -1.6693 C   0  0  0  0  0  0  0  0  0  0  0  0
   15.9420    3.7890   -2.9248 N   0  0  0  0  0  0  0  0  0  0  0  0
   15.9487    2.4575   -3.1140 C   0  0  0  0  0  0  0  0  0  0  0  0
   15.9758    2.0896   -4.1337 H   0  0  0  0  0  0  0  0  0  0  0  0
   15.8991    1.5206   -2.0680 C   0  0  0  0  0  0  0  0  0  0  0  0
   15.9254    0.0740   -2.3589 C   0  0  0  0  0  0  0  0  0  0  0  0
   16.3784   -0.3943   -3.6015 C   0  0  0  0  0  0  0  0  0  0  0  0
   16.7263    0.3161   -4.3455 H   0  0  0  0  0  0  0  0  0  0  0  0
   16.3834   -1.7619   -3.8873 C   0  0  0  0  0  0  0  0  0  0  0  0
   16.7333   -2.1061   -4.8538 H   0  0  0  0  0  0  0  0  0  0  0  0
   15.9223   -2.6772   -2.9373 C   0  0  0  0  0  0  0  0  0  0  0  0
   15.9138   -3.7361   -3.1774 H   0  0  0  0  0  0  0  0  0  0  0  0
   15.4670   -2.2422   -1.6831 C   0  0  0  0  0  0  0  0  0  0  0  0
   14.8664   -3.2209   -0.6830 C   0  0  2  0  0  0  0  0  0  0  0  0
   15.2264   -4.6717   -0.9758 C   0  0  0  0  0  0  0  0  0  0  0  0
   16.4491   -5.2002   -0.5382 C   0  0  0  0  0  0  0  0  0  0  0  0
   17.1419   -4.5667    0.0091 H   0  0  0  0  0  0  0  0  0  0  0  0
   16.7827   -6.5332   -0.7988 C   0  0  0  0  0  0  0  0  0  0  0  0
   17.7286   -6.9287   -0.4440 H   0  0  0  0  0  0  0  0  0  0  0  0
   15.9004   -7.3532   -1.5092 C   0  0  0  0  0  0  0  0  0  0  0  0
   16.1537   -8.3910   -1.7025 H   0  0  0  0  0  0  0  0  0  0  0  0
   14.6881   -6.8345   -1.9705 C   0  0  0  0  0  0  0  0  0  0  0  0
   14.0011   -7.4635   -2.5280 H   0  0  0  0  0  0  0  0  0  0  0  0
   14.3562   -5.5006   -1.7116 C   0  0  0  0  0  0  0  0  0  0  0  0
   13.4143   -5.1096   -2.0856 H   0  0  0  0  0  0  0  0  0  0  0  0
   13.3485   -3.0019   -0.6284 C   0  0  0  0  0  0  0  0  0  0  0  0
   12.5579   -3.2200   -1.5456 O   0  0  0  0  0  0  0  0  0  0  0  0
   12.9827   -2.4776    0.5937 N   0  0  0  0  0  0  0  0  0  0  0  0
   11.9651   -1.5197    0.6483 C   0  0  0  0  0  0  0  0  0  0  0  0
   10.7481   -1.8595    1.2272 C   0  0  0  0  0  0  0  0  0  0  0  0
   10.6299   -2.8386    1.6822 H   0  0  0  0  0  0  0  0  0  0  0  0
    9.6910   -0.9441    1.2161 C   0  0  0  0  0  0  0  0  0  0  0  0
    8.7406   -1.2157    1.6651 H   0  0  0  0  0  0  0  0  0  0  0  0
    9.8541    0.3275    0.6502 C   0  0  0  0  0  0  0  0  0  0  0  0
    9.0180    1.0236    0.6647 H   0  0  0  0  0  0  0  0  0  0  0  0
   11.0831    0.7084    0.0766 C   0  0  0  0  0  0  0  0  0  0  0  0
   11.2988    2.4303   -0.5544 S   0  0  0  0  0  0  0  0  0  0  0  0
   11.3405    2.4961   -2.0257 O   0  0  0  0  0  0  0  0  0  0  0  0
   10.2722    3.3337    0.0010 O   0  0  0  0  0  0  0  0  0  0  0  0
   12.8958    2.9712    0.0637 C   0  0  0  0  0  0  0  0  0  0  0  0
   13.1141    3.9573   -0.3475 H   0  0  0  0  0  0  0  0  0  0  0  0
   13.6471    2.2490   -0.2535 H   0  0  0  0  0  0  0  0  0  0  0  0
   12.8755    3.0385    1.1482 H   0  0  0  0  0  0  0  0  0  0  0  0
   12.1231   -0.2540    0.0536 C   0  0  0  0  0  0  0  0  0  0  0  0
   13.0930   -0.0558   -0.3959 H   0  0  0  0  0  0  0  0  0  0  0  0
   14.1454   -2.3947    1.3371 C   0  0  0  0  0  0  0  0  0  0  0  0
   14.2822   -1.9265    2.6140 N   0  0  0  0  0  0  0  0  0  0  0  0
   13.4402   -1.9011    3.1900 H   0  0  0  0  0  0  0  0  0  0  0  0
   15.1751   -2.1226    3.0669 H   0  0  0  0  0  0  0  0  0  0  0  0
   15.1843   -2.8351    0.7056 N   0  0  0  0  0  4  0  0  0  0  0  0
   16.1322   -2.8108    1.0838 H   0  0  0  0  0  0  0  0  0  0  0  0
   15.4811   -0.8603   -1.4093 C   0  0  0  0  0  0  0  0  0  0  0  0
   15.1177   -0.5012   -0.4504 H   0  0  0  0  0  0  0  0  0  0  0  0
   15.8107    2.0099   -0.7585 C   0  0  0  0  0  0  0  0  0  0  0  0
   15.7703    1.3353    0.0956 H   0  0  0  0  0  0  0  0  0  0  0  0
   15.7791    3.3929   -0.5668 C   0  0  0  0  0  0  0  0  0  0  0  0
   15.6941    3.8092    0.4308 H   0  0  0  0  0  0  0  0  0  0  0  0
  1  2  1  0
  2  3  2  0
  3  4  1  0
  4  5  1  0
  4  6  2  0
  6  7  1  0
  7  8  2  0
  8  9  1  0
  8 10  1  0
 10 11  1  0
 10 12  2  0
 12 13  1  0
 12 14  1  0
 15 14  1  6
 15 16  1  0
 16 17  2  0
 17 18  1  0
 17 19  1  0
 19 20  1  0
 19 21  2  0
 21 22  1  0
 21 23  1  0
 23 24  1  0
 23 25  2  0
 25 26  1  0
 15 27  1  0
 27 28  2  0
 27 29  1  0
 29 30  1  0
 30 31  2  0
 31 32  1  0
 31 33  1  0
 33 34  1  0
 33 35  2  0
 35 36  1  0
 35 37  1  0
 37 38  1  0
 38 39  2  0
 38 40  2  0
 38 41  1  0
 41 42  1  0
 41 43  1  0
 41 44  1  0
 37 45  2  0
 45 46  1  0
 29 47  1  0
 47 48  1  0
 48 49  1  0
 48 50  1  0
 47 51  2  0
 51 52  1  0
 14 53  2  0
 53 54  1  0
  6 55  1  0
 55 56  1  0
 55 57  2  0
 57 58  1  0
 57  2  1  0
 53  7  1  0
 51 15  1  0
 25 16  1  0
 45 30  1  0
M  CHG  1  51   1
M  END
>  <score>  (84) 
5.81617

$$$$

     RDKit          3D

 46 49  0  0  0  0  0  0  0  0999 V2000
   15.5482    5.3449   -1.3971 H   0  0  0  0  0  0  0  0  0  0  0  0
   15.5864    4.2786   -1.6081 C   0  0  0  0  0  0  0  0  0  0  0  0
   15.8241    3.8641   -2.8627 N   0  0  0  0  0  0  0  0  0  0  0  0
   15.8830    2.5379   -3.0961 C   0  0  0  0  0  0  0  0  0  0  0  0
   16.0806    2.1911   -4.1057 H   0  0  0  0  0  0  0  0  0  0  0  0
   15.7001    1.5677   -2.0992 C   0  0  0  0  0  0  0  0  0  0  0  0
   15.7753    0.1264   -2.4066 C   0  0  0  0  0  0  0  0  0  0  0  0
   16.3296   -0.3131   -3.6107 C   0  0  0  0  0  0  0  0  0  0  0  0
   16.7050    0.4371   -4.2967 H   0  0  0  0  0  0  0  0  0  0  0  0
   16.4206   -1.6787   -3.9090 C   0  0  0  0  0  0  0  0  0  0  0  0
   16.8627   -2.0040   -4.8431 H   0  0  0  0  0  0  0  0  0  0  0  0
   15.9473   -2.6298   -3.0002 C   0  0  0  0  0  0  0  0  0  0  0  0
   15.9988   -3.6917   -3.2304 H   0  0  0  0  0  0  0  0  0  0  0  0
   15.4007   -2.2212   -1.7779 C   0  0  0  0  0  0  0  0  0  0  0  0
   14.8473   -3.2250   -0.7797 C   0  0  2  0  0  0  0  0  0  0  0  0
   15.1931   -4.6923   -1.0746 C   0  0  0  0  0  0  0  0  0  0  0  0
   16.4049   -5.2217   -0.6052 C   0  0  0  0  0  0  0  0  0  0  0  0
   17.0782   -4.5704   -0.0547 H   0  0  0  0  0  0  0  0  0  0  0  0
   16.7377   -6.5671   -0.8016 C   0  0  0  0  0  0  0  0  0  0  0  0
   17.6729   -6.9561   -0.4109 H   0  0  0  0  0  0  0  0  0  0  0  0
   15.8568   -7.4116   -1.4823 C   0  0  0  0  0  0  0  0  0  0  0  0
   16.1025   -8.4615   -1.6166 H   0  0  0  0  0  0  0  0  0  0  0  0
   14.6457   -6.9076   -1.9652 C   0  0  0  0  0  0  0  0  0  0  0  0
   13.9604   -7.5713   -2.4864 H   0  0  0  0  0  0  0  0  0  0  0  0
   14.3132   -5.5567   -1.7617 C   0  0  0  0  0  0  0  0  0  0  0  0
   13.3584   -5.1839   -2.1204 H   0  0  0  0  0  0  0  0  0  0  0  0
   13.3365   -2.9705   -0.6291 C   0  0  0  0  0  0  0  0  0  0  0  0
   12.4674   -3.1357   -1.4861 O   0  0  0  0  0  0  0  0  0  0  0  0
   13.0770   -2.5399    0.6572 N   0  0  0  0  0  0  0  0  0  0  0  0
   11.5367   -2.3443    1.3621 S   0  0  0  0  0  0  0  0  0  0  0  0
   10.9715   -4.0276    1.9036 C   0  0  0  0  0  0  0  0  0  0  0  0
    9.7351   -3.9447    2.4615 F   0  0  0  0  0  0  0  0  0  0  0  0
   10.9152   -4.8492    0.8195 F   0  0  0  0  0  0  0  0  0  0  0  0
   11.8492   -4.5472    2.8033 F   0  0  0  0  0  0  0  0  0  0  0  0
   14.2784   -2.5470    1.3406 C   0  0  0  0  0  0  0  0  0  0  0  0
   14.4282   -2.2946    2.6765 N   0  0  0  0  0  0  0  0  0  0  0  0
   13.6068   -2.1163    3.2523 H   0  0  0  0  0  0  0  0  0  0  0  0
   15.3523   -2.3407    3.1018 H   0  0  0  0  0  0  0  0  0  0  0  0
   15.2821   -2.8768    0.5932 N   0  0  0  0  0  4  0  0  0  0  0  0
   16.2415   -3.0011    0.9390 H   0  0  0  0  0  0  0  0  0  0  0  0
   15.3123   -0.8388   -1.5022 C   0  0  0  0  0  0  0  0  0  0  0  0
   14.8712   -0.4944   -0.5703 H   0  0  0  0  0  0  0  0  0  0  0  0
   15.4557    2.0064   -0.8009 C   0  0  0  0  0  0  0  0  0  0  0  0
   15.3494    1.2622   -0.0171 H   0  0  0  0  0  0  0  0  0  0  0  0
   15.3883    3.3798   -0.5584 C   0  0  0  0  0  0  0  0  0  0  0  0
   15.1859    3.7661    0.4325 H   0  0  0  0  0  0  0  0  0  0  0  0
  1  2  1  0
  2  3  2  0
  3  4  1  0
  4  5  1  0
  4  6  2  0
  6  7  1  0
  7  8  2  0
  8  9  1  0
  8 10  1  0
 10 11  1  0
 10 12  2  0
 12 13  1  0
 12 14  1  0
 15 14  1  6
 15 16  1  0
 16 17  2  0
 17 18  1  0
 17 19  1  0
 19 20  1  0
 19 21  2  0
 21 22  1  0
 21 23  1  0
 23 24  1  0
 23 25  2  0
 25 26  1  0
 15 27  1  0
 27 28  2  0
 27 29  1  0
 29 30  1  0
 30 31  1  0
 31 32  1  0
 31 33  1  0
 31 34  1  0
 29 35  1  0
 35 36  1  0
 36 37  1  0
 36 38  1  0
 35 39  2  0
 39 40  1  0
 14 41  2  0
 41 42  1  0
  6 43  1  0
 43 44  1  0
 43 45  2  0
 45 46  1  0
 45  2  1  0
 41  7  1  0
 39 15  1  0
 25 16  1  0
M  CHG  1  39   1
M  END
>  <score>  (85) 
5.81616

$$$$

     RDKit          3D

 45 48  0  0  0  0  0  0  0  0999 V2000
   11.7995   -3.5473    4.1833 H   0  0  0  0  0  0  0  0  0  0  0  0
   11.1280   -3.5997    3.4176 N   0  0  0  0  0  0  0  0  0  0  0  0
   11.4409   -3.0644    2.3115 N   0  0  0  0  0  4  0  0  0  0  0  0
   11.7300   -2.5276    1.1968 N   0  0  0  0  0  0  0  0  0  0  0  0
   12.9960   -2.7336    0.7165 N   0  0  0  0  0  0  0  0  0  0  0  0
   13.2943   -3.0312   -0.6014 C   0  0  0  0  0  0  0  0  0  0  0  0
   12.4879   -3.1366   -1.5229 O   0  0  0  0  0  0  0  0  0  0  0  0
   14.8133   -3.2348   -0.7538 C   0  0  1  0  0  0  0  0  0  0  0  0
   15.1770   -4.6947   -1.0582 C   0  0  0  0  0  0  0  0  0  0  0  0
   16.3968   -5.2197   -0.5948 C   0  0  0  0  0  0  0  0  0  0  0  0
   17.0851   -4.5759   -0.0535 H   0  0  0  0  0  0  0  0  0  0  0  0
   16.7354   -6.5628   -0.7956 C   0  0  0  0  0  0  0  0  0  0  0  0
   17.6768   -6.9477   -0.4122 H   0  0  0  0  0  0  0  0  0  0  0  0
   15.8575   -7.4098   -1.4767 C   0  0  0  0  0  0  0  0  0  0  0  0
   16.1062   -8.4581   -1.6159 H   0  0  0  0  0  0  0  0  0  0  0  0
   14.6465   -6.9085   -1.9628 C   0  0  0  0  0  0  0  0  0  0  0  0
   13.9625   -7.5696   -2.4890 H   0  0  0  0  0  0  0  0  0  0  0  0
   14.3092   -5.5611   -1.7586 C   0  0  0  0  0  0  0  0  0  0  0  0
   13.3566   -5.1996   -2.1330 H   0  0  0  0  0  0  0  0  0  0  0  0
   15.3786   -2.2259   -1.7602 C   0  0  0  0  0  0  0  0  0  0  0  0
   15.9362   -2.6300   -2.9878 C   0  0  0  0  0  0  0  0  0  0  0  0
   16.0023   -3.6882   -3.2297 H   0  0  0  0  0  0  0  0  0  0  0  0
   16.4130   -1.6821   -3.9031 C   0  0  0  0  0  0  0  0  0  0  0  0
   16.8653   -2.0061   -4.8357 H   0  0  0  0  0  0  0  0  0  0  0  0
   16.3243   -0.3159   -3.6088 C   0  0  0  0  0  0  0  0  0  0  0  0
   16.7106    0.4272   -4.2971 H   0  0  0  0  0  0  0  0  0  0  0  0
   15.7728    0.1250   -2.4025 C   0  0  0  0  0  0  0  0  0  0  0  0
   15.6959    1.5684   -2.0976 C   0  0  0  0  0  0  0  0  0  0  0  0
   15.8820    2.5385   -3.0958 C   0  0  0  0  0  0  0  0  0  0  0  0
   16.0742    2.2028   -4.1095 H   0  0  0  0  0  0  0  0  0  0  0  0
   15.8270    3.8627   -2.8618 N   0  0  0  0  0  0  0  0  0  0  0  0
   15.5884    4.2761   -1.6080 C   0  0  0  0  0  0  0  0  0  0  0  0
   15.5487    5.3416   -1.4003 H   0  0  0  0  0  0  0  0  0  0  0  0
   15.3856    3.3804   -0.5569 C   0  0  0  0  0  0  0  0  0  0  0  0
   15.1884    3.7633    0.4365 H   0  0  0  0  0  0  0  0  0  0  0  0
   15.4483    2.0090   -0.7991 C   0  0  0  0  0  0  0  0  0  0  0  0
   15.3438    1.2769   -0.0050 H   0  0  0  0  0  0  0  0  0  0  0  0
   15.3048   -0.8400   -1.4934 C   0  0  0  0  0  0  0  0  0  0  0  0
   14.8611   -0.4900   -0.5669 H   0  0  0  0  0  0  0  0  0  0  0  0
   15.2269   -2.9219    0.6315 N   0  0  0  0  0  4  0  0  0  0  0  0
   16.2048   -2.9514    0.9478 H   0  0  0  0  0  0  0  0  0  0  0  0
   14.2079   -2.6793    1.4061 C   0  0  0  0  0  0  0  0  0  0  0  0
   14.4161   -2.3977    2.7347 N   0  0  0  0  0  0  0  0  0  0  0  0
   13.6864   -1.9193    3.2643 H   0  0  0  0  0  0  0  0  0  0  0  0
   15.3783   -2.3397    3.0718 H   0  0  0  0  0  0  0  0  0  0  0  0
  1  2  1  0
  2  3  2  0
  3  4  2  0
  4  5  1  0
  5  6  1  0
  6  7  2  0
  6  8  1  0
  8  9  1  6
  9 10  2  0
 10 11  1  0
 10 12  1  0
 12 13  1  0
 12 14  2  0
 14 15  1  0
 14 16  1  0
 16 17  1  0
 16 18  2  0
 18 19  1  0
  8 20  1  0
 20 21  2  0
 21 22  1  0
 21 23  1  0
 23 24  1  0
 23 25  2  0
 25 26  1  0
 25 27  1  0
 27 28  1  0
 28 29  2  0
 29 30  1  0
 29 31  1  0
 31 32  2  0
 32 33  1  0
 32 34  1  0
 34 35  1  0
 34 36  2  0
 36 37  1  0
 27 38  2  0
 38 39  1  0
  8 40  1  0
 40 41  1  0
 40 42  2  0
 42 43  1  0
 43 44  1  0
 43 45  1  0
 42  5  1  0
 18  9  1  0
 38 20  1  0
 36 28  1  0
M  CHG  2   3   1  40   1
M  END
>  <score>  (86) 
5.81581

$$$$

     RDKit          3D

 46 49  0  0  0  0  0  0  0  0999 V2000
   12.1614   -0.4969    0.2530 H   0  0  0  0  0  0  0  0  0  0  0  0
   11.9313   -0.7688    1.1573 O   0  0  0  0  0  0  0  0  0  0  0  0
   11.7793   -2.1712    1.2195 C   0  0  0  0  0  0  0  0  0  0  0  0
   10.9308   -2.5039    0.6161 H   0  0  0  0  0  0  0  0  0  0  0  0
   11.6038   -2.5129    2.2464 H   0  0  0  0  0  0  0  0  0  0  0  0
   13.0247   -2.6818    0.7130 N   0  0  0  0  0  0  0  0  0  0  0  0
   13.2802   -3.0035   -0.5942 C   0  0  0  0  0  0  0  0  0  0  0  0
   12.3899   -3.0633   -1.4419 O   0  0  0  0  0  0  0  0  0  0  0  0
   14.8067   -3.2230   -0.7630 C   0  0  1  0  0  0  0  0  0  0  0  0
   15.1775   -4.6808   -1.0593 C   0  0  0  0  0  0  0  0  0  0  0  0
   16.3982   -5.2087   -0.5984 C   0  0  0  0  0  0  0  0  0  0  0  0
   17.0786   -4.5622   -0.0526 H   0  0  0  0  0  0  0  0  0  0  0  0
   16.7350   -6.5535   -0.8004 C   0  0  0  0  0  0  0  0  0  0  0  0
   17.6714   -6.9492   -0.4128 H   0  0  0  0  0  0  0  0  0  0  0  0
   15.8568   -7.3975   -1.4861 C   0  0  0  0  0  0  0  0  0  0  0  0
   16.0975   -8.4475   -1.6201 H   0  0  0  0  0  0  0  0  0  0  0  0
   14.6450   -6.8905   -1.9695 C   0  0  0  0  0  0  0  0  0  0  0  0
   13.9572   -7.5537   -2.4879 H   0  0  0  0  0  0  0  0  0  0  0  0
   14.3094   -5.5435   -1.7560 C   0  0  0  0  0  0  0  0  0  0  0  0
   13.3554   -5.1660   -2.1121 H   0  0  0  0  0  0  0  0  0  0  0  0
   15.3774   -2.2171   -1.7621 C   0  0  0  0  0  0  0  0  0  0  0  0
   15.9332   -2.6257   -2.9863 C   0  0  0  0  0  0  0  0  0  0  0  0
   15.9951   -3.6853   -3.2136 H   0  0  0  0  0  0  0  0  0  0  0  0
   16.4099   -1.6797   -3.9022 C   0  0  0  0  0  0  0  0  0  0  0  0
   16.8629   -2.0016   -4.8340 H   0  0  0  0  0  0  0  0  0  0  0  0
   16.3239   -0.3131   -3.6077 C   0  0  0  0  0  0  0  0  0  0  0  0
   16.6992    0.4360   -4.2947 H   0  0  0  0  0  0  0  0  0  0  0  0
   15.7779    0.1248   -2.3994 C   0  0  0  0  0  0  0  0  0  0  0  0
   15.7054    1.5648   -2.0982 C   0  0  0  0  0  0  0  0  0  0  0  0
   15.8904    2.5322   -3.0994 C   0  0  0  0  0  0  0  0  0  0  0  0
   16.0922    2.1879   -4.1091 H   0  0  0  0  0  0  0  0  0  0  0  0
   15.8297    3.8562   -2.8667 N   0  0  0  0  0  0  0  0  0  0  0  0
   15.5867    4.2672   -1.6124 C   0  0  0  0  0  0  0  0  0  0  0  0
   15.5390    5.3306   -1.4043 H   0  0  0  0  0  0  0  0  0  0  0  0
   15.3916    3.3705   -0.5597 C   0  0  0  0  0  0  0  0  0  0  0  0
   15.1966    3.7548    0.4320 H   0  0  0  0  0  0  0  0  0  0  0  0
   15.4615    1.9993   -0.8002 C   0  0  0  0  0  0  0  0  0  0  0  0
   15.3650    1.2538   -0.0160 H   0  0  0  0  0  0  0  0  0  0  0  0
   15.3078   -0.8358   -1.4901 C   0  0  0  0  0  0  0  0  0  0  0  0
   14.8661   -0.4915   -0.5587 H   0  0  0  0  0  0  0  0  0  0  0  0
   15.2308   -2.8852    0.6159 N   0  0  0  0  0  4  0  0  0  0  0  0
   16.1927   -2.9766    0.9639 H   0  0  0  0  0  0  0  0  0  0  0  0
   14.2245   -2.5848    1.3661 C   0  0  0  0  0  0  0  0  0  0  0  0
   14.3928   -2.2203    2.6656 N   0  0  0  0  0  0  0  0  0  0  0  0
   15.3193   -2.3229    3.0782 H   0  0  0  0  0  0  0  0  0  0  0  0
   13.5792   -2.1039    3.2648 H   0  0  0  0  0  0  0  0  0  0  0  0
  1  2  1  0
  2  3  1  0
  3  4  1  0
  3  5  1  0
  3  6  1  0
  6  7  1  0
  7  8  2  0
  7  9  1  0
  9 10  1  6
 10 11  2  0
 11 12  1  0
 11 13  1  0
 13 14  1  0
 13 15  2  0
 15 16  1  0
 15 17  1  0
 17 18  1  0
 17 19  2  0
 19 20  1  0
  9 21  1  0
 21 22  2  0
 22 23  1  0
 22 24  1  0
 24 25  1  0
 24 26  2  0
 26 27  1  0
 26 28  1  0
 28 29  1  0
 29 30  2  0
 30 31  1  0
 30 32  1  0
 32 33  2  0
 33 34  1  0
 33 35  1  0
 35 36  1  0
 35 37  2  0
 37 38  1  0
 28 39  2  0
 39 40  1  0
  9 41  1  0
 41 42  1  0
 41 43  2  0
 43 44  1  0
 44 45  1  0
 44 46  1  0
 43  6  1  0
 19 10  1  0
 39 21  1  0
 37 29  1  0
M  CHG  1  41   1
M  END
>  <score>  (87) 
5.81495

$$$$

     RDKit          3D

 53 56  0  0  0  0  0  0  0  0999 V2000
   15.5695    5.3718   -1.3876 H   0  0  0  0  0  0  0  0  0  0  0  0
   15.5833    4.3031   -1.5953 C   0  0  0  0  0  0  0  0  0  0  0  0
   15.8195    3.8804   -2.8472 N   0  0  0  0  0  0  0  0  0  0  0  0
   15.8637    2.5526   -3.0880 C   0  0  0  0  0  0  0  0  0  0  0  0
   16.0466    2.2234   -4.1056 H   0  0  0  0  0  0  0  0  0  0  0  0
   15.6860    1.5714   -2.0956 C   0  0  0  0  0  0  0  0  0  0  0  0
   15.7709    0.1193   -2.4112 C   0  0  0  0  0  0  0  0  0  0  0  0
   16.3486   -0.3210   -3.6110 C   0  0  0  0  0  0  0  0  0  0  0  0
   16.7246    0.4082   -4.3213 H   0  0  0  0  0  0  0  0  0  0  0  0
   16.4318   -1.6891   -3.9096 C   0  0  0  0  0  0  0  0  0  0  0  0
   16.8646   -2.0081   -4.8522 H   0  0  0  0  0  0  0  0  0  0  0  0
   15.9450   -2.6444   -3.0079 C   0  0  0  0  0  0  0  0  0  0  0  0
   16.0045   -3.7002   -3.2583 H   0  0  0  0  0  0  0  0  0  0  0  0
   15.3816   -2.2436   -1.7857 C   0  0  0  0  0  0  0  0  0  0  0  0
   14.8199   -3.2513   -0.7864 C   0  0  2  0  0  0  0  0  0  0  0  0
   15.1756   -4.7165   -1.0739 C   0  0  0  0  0  0  0  0  0  0  0  0
   16.3935   -5.2386   -0.6101 C   0  0  0  0  0  0  0  0  0  0  0  0
   17.0670   -4.5861   -0.0636 H   0  0  0  0  0  0  0  0  0  0  0  0
   16.7296   -6.5829   -0.8025 C   0  0  0  0  0  0  0  0  0  0  0  0
   17.6722   -6.9560   -0.4167 H   0  0  0  0  0  0  0  0  0  0  0  0
   15.8535   -7.4402   -1.4726 C   0  0  0  0  0  0  0  0  0  0  0  0
   16.1208   -8.4855   -1.6116 H   0  0  0  0  0  0  0  0  0  0  0  0
   14.6427   -6.9386   -1.9613 C   0  0  0  0  0  0  0  0  0  0  0  0
   13.9722   -7.6113   -2.4879 H   0  0  0  0  0  0  0  0  0  0  0  0
   14.3039   -5.5877   -1.7664 C   0  0  0  0  0  0  0  0  0  0  0  0
   13.3540   -5.2309   -2.1550 H   0  0  0  0  0  0  0  0  0  0  0  0
   13.3093   -3.0262   -0.6054 C   0  0  0  0  0  0  0  0  0  0  0  0
   12.4353   -3.1070   -1.4651 O   0  0  0  0  0  0  0  0  0  0  0  0
   13.0317   -2.6383    0.6902 N   0  0  0  0  0  0  0  0  0  0  0  0
   11.6954   -2.5713    1.3062 C   0  0  0  0  0  0  0  0  0  0  0  0
   10.9322   -2.2804    0.5762 H   0  0  0  0  0  0  0  0  0  0  0  0
   11.6761   -1.8186    2.0965 H   0  0  0  0  0  0  0  0  0  0  0  0
   11.3072   -3.9156    1.9058 C   0  0  0  0  0  0  0  0  0  0  0  0
   11.3221   -4.6753    1.1219 H   0  0  0  0  0  0  0  0  0  0  0  0
   12.0425   -4.2061    2.6604 H   0  0  0  0  0  0  0  0  0  0  0  0
    9.9691   -3.8597    2.5149 N   0  0  0  0  0  0  0  0  0  0  0  0
    9.9473   -3.1770    3.2767 H   0  0  0  0  0  0  0  0  0  0  0  0
    9.4899   -5.1786    2.9656 C   0  0  0  0  0  0  0  0  0  0  0  0
    8.4855   -5.1061    3.4011 H   0  0  0  0  0  0  0  0  0  0  0  0
    9.4554   -5.8773    2.1226 H   0  0  0  0  0  0  0  0  0  0  0  0
   10.1712   -5.5950    3.7142 H   0  0  0  0  0  0  0  0  0  0  0  0
   14.2306   -2.6211    1.3603 C   0  0  0  0  0  0  0  0  0  0  0  0
   14.3989   -2.3524    2.6879 N   0  0  0  0  0  0  0  0  0  0  0  0
   15.3382   -2.3489    3.0901 H   0  0  0  0  0  0  0  0  0  0  0  0
   13.5851   -2.1449    3.2628 H   0  0  0  0  0  0  0  0  0  0  0  0
   15.2258   -2.8946    0.5888 N   0  0  0  0  0  4  0  0  0  0  0  0
   16.1931   -2.9179    0.9077 H   0  0  0  0  0  0  0  0  0  0  0  0
   15.2966   -0.8582   -1.5161 C   0  0  0  0  0  0  0  0  0  0  0  0
   14.8712   -0.5257   -0.5765 H   0  0  0  0  0  0  0  0  0  0  0  0
   15.4364    2.0252   -0.7966 C   0  0  0  0  0  0  0  0  0  0  0  0
   15.2986    1.3081    0.0032 H   0  0  0  0  0  0  0  0  0  0  0  0
   15.3723    3.4014   -0.5513 C   0  0  0  0  0  0  0  0  0  0  0  0
   15.1682    3.7870    0.4404 H   0  0  0  0  0  0  0  0  0  0  0  0
  1  2  1  0
  2  3  2  0
  3  4  1  0
  4  5  1  0
  4  6  2  0
  6  7  1  0
  7  8  2  0
  8  9  1  0
  8 10  1  0
 10 11  1  0
 10 12  2  0
 12 13  1  0
 12 14  1  0
 15 14  1  6
 15 16  1  0
 16 17  2  0
 17 18  1  0
 17 19  1  0
 19 20  1  0
 19 21  2  0
 21 22  1  0
 21 23  1  0
 23 24  1  0
 23 25  2  0
 25 26  1  0
 15 27  1  0
 27 28  2  0
 27 29  1  0
 29 30  1  0
 30 31  1  0
 30 32  1  0
 30 33  1  0
 33 34  1  0
 33 35  1  0
 33 36  1  0
 36 37  1  0
 36 38  1  0
 38 39  1  0
 38 40  1  0
 38 41  1  0
 29 42  1  0
 42 43  1  0
 43 44  1  0
 43 45  1  0
 42 46  2  0
 46 47  1  0
 14 48  2  0
 48 49  1  0
  6 50  1  0
 50 51  1  0
 50 52  2  0
 52 53  1  0
 52  2  1  0
 48  7  1  0
 46 15  1  0
 25 16  1  0
M  CHG  1  46   1
M  END
>  <score>  (88) 
5.81448

$$$$

     RDKit          3D

 55 58  0  0  0  0  0  0  0  0999 V2000
   15.5565    5.3561   -1.3929 H   0  0  0  0  0  0  0  0  0  0  0  0
   15.5874    4.2893   -1.6037 C   0  0  0  0  0  0  0  0  0  0  0  0
   15.8215    3.8713   -2.8582 N   0  0  0  0  0  0  0  0  0  0  0  0
   15.8763    2.5444   -3.0927 C   0  0  0  0  0  0  0  0  0  0  0  0
   16.0651    2.2070   -4.1049 H   0  0  0  0  0  0  0  0  0  0  0  0
   15.6929    1.5687   -2.0983 C   0  0  0  0  0  0  0  0  0  0  0  0
   15.7751    0.1219   -2.4087 C   0  0  0  0  0  0  0  0  0  0  0  0
   16.3322   -0.3167   -3.6143 C   0  0  0  0  0  0  0  0  0  0  0  0
   16.7140    0.4255   -4.3053 H   0  0  0  0  0  0  0  0  0  0  0  0
   16.4268   -1.6846   -3.9102 C   0  0  0  0  0  0  0  0  0  0  0  0
   16.8641   -2.0016   -4.8498 H   0  0  0  0  0  0  0  0  0  0  0  0
   15.9520   -2.6384   -3.0019 C   0  0  0  0  0  0  0  0  0  0  0  0
   16.0035   -3.6970   -3.2420 H   0  0  0  0  0  0  0  0  0  0  0  0
   15.3976   -2.2329   -1.7784 C   0  0  0  0  0  0  0  0  0  0  0  0
   14.8481   -3.2438   -0.7750 C   0  0  2  0  0  0  0  0  0  0  0  0
   15.1912   -4.7072   -1.0747 C   0  0  0  0  0  0  0  0  0  0  0  0
   16.4045   -5.2334   -0.6057 C   0  0  0  0  0  0  0  0  0  0  0  0
   17.0792   -4.5817   -0.0599 H   0  0  0  0  0  0  0  0  0  0  0  0
   16.7395   -6.5773   -0.8036 C   0  0  0  0  0  0  0  0  0  0  0  0
   17.6760   -6.9629   -0.4124 H   0  0  0  0  0  0  0  0  0  0  0  0
   15.8585   -7.4265   -1.4790 C   0  0  0  0  0  0  0  0  0  0  0  0
   16.1084   -8.4747   -1.6151 H   0  0  0  0  0  0  0  0  0  0  0  0
   14.6464   -6.9238   -1.9643 C   0  0  0  0  0  0  0  0  0  0  0  0
   13.9635   -7.5882   -2.4873 H   0  0  0  0  0  0  0  0  0  0  0  0
   14.3150   -5.5719   -1.7662 C   0  0  0  0  0  0  0  0  0  0  0  0
   13.3617   -5.2009   -2.1319 H   0  0  0  0  0  0  0  0  0  0  0  0
   13.3387   -3.0167   -0.6089 C   0  0  0  0  0  0  0  0  0  0  0  0
   12.4830   -3.0981   -1.4869 O   0  0  0  0  0  0  0  0  0  0  0  0
   13.0468   -2.6542    0.6965 N   0  0  0  0  0  0  0  0  0  0  0  0
   11.7393   -2.1258    1.1781 C   0  0  0  0  0  0  0  0  0  0  0  0
   11.8220   -1.8859    2.2455 H   0  0  0  0  0  0  0  0  0  0  0  0
   11.4857   -1.1997    0.6483 H   0  0  0  0  0  0  0  0  0  0  0  0
   10.5411   -3.0850    1.0019 C   0  0  0  0  0  0  0  0  0  0  0  0
    9.6662   -2.8205    0.1781 O   0  0  0  0  0  0  0  0  0  0  0  0
   10.4642   -4.2728    1.7242 N   0  0  0  0  0  0  0  0  0  0  0  0
    9.4160   -5.2403    1.3982 C   0  0  0  0  0  0  0  0  0  0  0  0
    8.4289   -4.7838    1.5413 H   0  0  0  0  0  0  0  0  0  0  0  0
    9.4999   -6.1206    2.0435 H   0  0  0  0  0  0  0  0  0  0  0  0
    9.5055   -5.5617    0.3517 H   0  0  0  0  0  0  0  0  0  0  0  0
   11.4458   -4.5919    2.7635 C   0  0  0  0  0  0  0  0  0  0  0  0
   11.1701   -5.5382    3.2467 H   0  0  0  0  0  0  0  0  0  0  0  0
   12.4559   -4.6985    2.3384 H   0  0  0  0  0  0  0  0  0  0  0  0
   11.4662   -3.8008    3.5289 H   0  0  0  0  0  0  0  0  0  0  0  0
   14.2619   -2.6059    1.3613 C   0  0  0  0  0  0  0  0  0  0  0  0
   14.4230   -2.2905    2.6770 N   0  0  0  0  0  0  0  0  0  0  0  0
   13.6054   -2.2128    3.2766 H   0  0  0  0  0  0  0  0  0  0  0  0
   15.3596   -2.3278    3.0853 H   0  0  0  0  0  0  0  0  0  0  0  0
   15.2657   -2.9089    0.6054 N   0  0  0  0  0  4  0  0  0  0  0  0
   16.2372   -2.9460    0.9336 H   0  0  0  0  0  0  0  0  0  0  0  0
   15.3131   -0.8493   -1.5036 C   0  0  0  0  0  0  0  0  0  0  0  0
   14.8673   -0.5160   -0.5725 H   0  0  0  0  0  0  0  0  0  0  0  0
   15.4425    2.0131   -0.8002 C   0  0  0  0  0  0  0  0  0  0  0  0
   15.3283    1.2794   -0.0098 H   0  0  0  0  0  0  0  0  0  0  0  0
   15.3821    3.3893   -0.5544 C   0  0  0  0  0  0  0  0  0  0  0  0
   15.1777    3.7762    0.4371 H   0  0  0  0  0  0  0  0  0  0  0  0
  1  2  1  0
  2  3  2  0
  3  4  1  0
  4  5  1  0
  4  6  2  0
  6  7  1  0
  7  8  2  0
  8  9  1  0
  8 10  1  0
 10 11  1  0
 10 12  2  0
 12 13  1  0
 12 14  1  0
 15 14  1  6
 15 16  1  0
 16 17  2  0
 17 18  1  0
 17 19  1  0
 19 20  1  0
 19 21  2  0
 21 22  1  0
 21 23  1  0
 23 24  1  0
 23 25  2  0
 25 26  1  0
 15 27  1  0
 27 28  2  0
 27 29  1  0
 29 30  1  0
 30 31  1  0
 30 32  1  0
 30 33  1  0
 33 34  2  0
 33 35  1  0
 35 36  1  0
 36 37  1  0
 36 38  1  0
 36 39  1  0
 35 40  1  0
 40 41  1  0
 40 42  1  0
 40 43  1  0
 29 44  1  0
 44 45  1  0
 45 46  1  0
 45 47  1  0
 44 48  2  0
 48 49  1  0
 14 50  2  0
 50 51  1  0
  6 52  1  0
 52 53  1  0
 52 54  2  0
 54 55  1  0
 54  2  1  0
 50  7  1  0
 48 15  1  0
 25 16  1  0
M  CHG  1  48   1
M  END
>  <score>  (89) 
5.81112

$$$$

     RDKit          3D

 53 56  0  0  0  0  0  0  0  0999 V2000
   15.5515    5.3476   -1.3970 H   0  0  0  0  0  0  0  0  0  0  0  0
   15.5876    4.2816   -1.6058 C   0  0  0  0  0  0  0  0  0  0  0  0
   15.8251    3.8672   -2.8597 N   0  0  0  0  0  0  0  0  0  0  0  0
   15.8794    2.5413   -3.0940 C   0  0  0  0  0  0  0  0  0  0  0  0
   16.0714    2.2037   -4.1074 H   0  0  0  0  0  0  0  0  0  0  0  0
   15.6952    1.5682   -2.0973 C   0  0  0  0  0  0  0  0  0  0  0  0
   15.7766    0.1230   -2.4063 C   0  0  0  0  0  0  0  0  0  0  0  0
   16.3303   -0.3159   -3.6146 C   0  0  0  0  0  0  0  0  0  0  0  0
   16.7124    0.4269   -4.3069 H   0  0  0  0  0  0  0  0  0  0  0  0
   16.4202   -1.6818   -3.9123 C   0  0  0  0  0  0  0  0  0  0  0  0
   16.8647   -2.0020   -4.8488 H   0  0  0  0  0  0  0  0  0  0  0  0
   15.9496   -2.6333   -2.9999 C   0  0  0  0  0  0  0  0  0  0  0  0
   16.0051   -3.6920   -3.2399 H   0  0  0  0  0  0  0  0  0  0  0  0
   15.4022   -2.2312   -1.7721 C   0  0  0  0  0  0  0  0  0  0  0  0
   14.8437   -3.2412   -0.7730 C   0  0  2  0  0  0  0  0  0  0  0  0
   15.1977   -4.7032   -1.0733 C   0  0  0  0  0  0  0  0  0  0  0  0
   16.4113   -5.2323   -0.6067 C   0  0  0  0  0  0  0  0  0  0  0  0
   17.0871   -4.5825   -0.0587 H   0  0  0  0  0  0  0  0  0  0  0  0
   16.7430   -6.5781   -0.8016 C   0  0  0  0  0  0  0  0  0  0  0  0
   17.6802   -6.9652   -0.4107 H   0  0  0  0  0  0  0  0  0  0  0  0
   15.8601   -7.4227   -1.4811 C   0  0  0  0  0  0  0  0  0  0  0  0
   16.1060   -8.4720   -1.6168 H   0  0  0  0  0  0  0  0  0  0  0  0
   14.6494   -6.9182   -1.9672 C   0  0  0  0  0  0  0  0  0  0  0  0
   13.9602   -7.5805   -2.4866 H   0  0  0  0  0  0  0  0  0  0  0  0
   14.3218   -5.5664   -1.7663 C   0  0  0  0  0  0  0  0  0  0  0  0
   13.3684   -5.1928   -2.1274 H   0  0  0  0  0  0  0  0  0  0  0  0
   13.3275   -3.0194   -0.6287 C   0  0  0  0  0  0  0  0  0  0  0  0
   12.5242   -3.1724   -1.5529 O   0  0  0  0  0  0  0  0  0  0  0  0
   13.0368   -2.5760    0.6621 N   0  0  0  0  0  0  0  0  0  0  0  0
   11.7197   -2.4013    1.2526 N   0  0  0  0  0  0  0  0  0  0  0  0
   11.1760   -1.6482    0.8121 H   0  0  0  0  0  0  0  0  0  0  0  0
   10.9006   -3.6055    1.4147 C   0  0  0  0  0  0  0  0  0  0  0  0
   10.8444   -4.1590    0.4676 H   0  0  0  0  0  0  0  0  0  0  0  0
   11.5413   -4.4813    2.4838 C   0  0  0  0  0  0  0  0  0  0  0  0
   11.6461   -3.9246    3.4227 H   0  0  0  0  0  0  0  0  0  0  0  0
   10.9262   -5.3677    2.6597 H   0  0  0  0  0  0  0  0  0  0  0  0
   12.5358   -4.7954    2.1490 H   0  0  0  0  0  0  0  0  0  0  0  0
    9.5054   -3.1723    1.8315 C   0  0  0  0  0  0  0  0  0  0  0  0
    9.0714   -2.5276    1.0619 H   0  0  0  0  0  0  0  0  0  0  0  0
    9.5444   -2.6160    2.7731 H   0  0  0  0  0  0  0  0  0  0  0  0
    8.8684   -4.0507    1.9591 H   0  0  0  0  0  0  0  0  0  0  0  0
   14.2551   -2.5866    1.3517 C   0  0  0  0  0  0  0  0  0  0  0  0
   14.4336   -2.3314    2.6865 N   0  0  0  0  0  0  0  0  0  0  0  0
   13.6267   -2.1139    3.2682 H   0  0  0  0  0  0  0  0  0  0  0  0
   15.3708   -2.3457    3.0825 H   0  0  0  0  0  0  0  0  0  0  0  0
   15.2651   -2.9032    0.6040 N   0  0  0  0  0  4  0  0  0  0  0  0
   16.2336   -2.9685    0.9349 H   0  0  0  0  0  0  0  0  0  0  0  0
   15.3166   -0.8476   -1.4998 C   0  0  0  0  0  0  0  0  0  0  0  0
   14.8683   -0.5114   -0.5695 H   0  0  0  0  0  0  0  0  0  0  0  0
   15.4457    2.0111   -0.7988 C   0  0  0  0  0  0  0  0  0  0  0  0
   15.3364    1.2767   -0.0069 H   0  0  0  0  0  0  0  0  0  0  0  0
   15.3836    3.3842   -0.5563 C   0  0  0  0  0  0  0  0  0  0  0  0
   15.1841    3.7687    0.4363 H   0  0  0  0  0  0  0  0  0  0  0  0
  1  2  1  0
  2  3  2  0
  3  4  1  0
  4  5  1  0
  4  6  2  0
  6  7  1  0
  7  8  2  0
  8  9  1  0
  8 10  1  0
 10 11  1  0
 10 12  2  0
 12 13  1  0
 12 14  1  0
 15 14  1  6
 15 16  1  0
 16 17  2  0
 17 18  1  0
 17 19  1  0
 19 20  1  0
 19 21  2  0
 21 22  1  0
 21 23  1  0
 23 24  1  0
 23 25  2  0
 25 26  1  0
 15 27  1  0
 27 28  2  0
 27 29  1  0
 29 30  1  0
 30 31  1  0
 30 32  1  0
 32 33  1  0
 32 34  1  0
 34 35  1  0
 34 36  1  0
 34 37  1  0
 32 38  1  0
 38 39  1  0
 38 40  1  0
 38 41  1  0
 29 42  1  0
 42 43  1  0
 43 44  1  0
 43 45  1  0
 42 46  2  0
 46 47  1  0
 14 48  2  0
 48 49  1  0
  6 50  1  0
 50 51  1  0
 50 52  2  0
 52 53  1  0
 52  2  1  0
 48  7  1  0
 46 15  1  0
 25 16  1  0
M  CHG  1  46   1
M  END
>  <score>  (90) 
5.81087

$$$$

     RDKit          3D

 51 54  0  0  0  0  0  0  0  0999 V2000
   15.5675    5.3705   -1.3878 H   0  0  0  0  0  0  0  0  0  0  0  0
   15.5844    4.3011   -1.5973 C   0  0  0  0  0  0  0  0  0  0  0  0
   15.8190    3.8794   -2.8503 N   0  0  0  0  0  0  0  0  0  0  0  0
   15.8665    2.5509   -3.0881 C   0  0  0  0  0  0  0  0  0  0  0  0
   16.0495    2.2212   -4.1046 H   0  0  0  0  0  0  0  0  0  0  0  0
   15.6866    1.5694   -2.0969 C   0  0  0  0  0  0  0  0  0  0  0  0
   15.7711    0.1179   -2.4098 C   0  0  0  0  0  0  0  0  0  0  0  0
   16.3431   -0.3218   -3.6111 C   0  0  0  0  0  0  0  0  0  0  0  0
   16.7230    0.4112   -4.3166 H   0  0  0  0  0  0  0  0  0  0  0  0
   16.4315   -1.6898   -3.9060 C   0  0  0  0  0  0  0  0  0  0  0  0
   16.8648   -2.0059   -4.8509 H   0  0  0  0  0  0  0  0  0  0  0  0
   15.9423   -2.6450   -3.0012 C   0  0  0  0  0  0  0  0  0  0  0  0
   16.0025   -3.7022   -3.2530 H   0  0  0  0  0  0  0  0  0  0  0  0
   15.3684   -2.2443   -1.7812 C   0  0  0  0  0  0  0  0  0  0  0  0
   14.7951   -3.2511   -0.7786 C   0  0  2  0  0  0  0  0  0  0  0  0
   15.1666   -4.7143   -1.0688 C   0  0  0  0  0  0  0  0  0  0  0  0
   16.3893   -5.2343   -0.6080 C   0  0  0  0  0  0  0  0  0  0  0  0
   17.0667   -4.5840   -0.0625 H   0  0  0  0  0  0  0  0  0  0  0  0
   16.7312   -6.5786   -0.8046 C   0  0  0  0  0  0  0  0  0  0  0  0
   17.6720   -6.9566   -0.4159 H   0  0  0  0  0  0  0  0  0  0  0  0
   15.8549   -7.4368   -1.4736 C   0  0  0  0  0  0  0  0  0  0  0  0
   16.1185   -8.4839   -1.6118 H   0  0  0  0  0  0  0  0  0  0  0  0
   14.6441   -6.9367   -1.9624 C   0  0  0  0  0  0  0  0  0  0  0  0
   13.9710   -7.6080   -2.4883 H   0  0  0  0  0  0  0  0  0  0  0  0
   14.3034   -5.5862   -1.7669 C   0  0  0  0  0  0  0  0  0  0  0  0
   13.3536   -5.2264   -2.1507 H   0  0  0  0  0  0  0  0  0  0  0  0
   13.2797   -3.0186   -0.5863 C   0  0  0  0  0  0  0  0  0  0  0  0
   12.4181   -3.0626   -1.4602 O   0  0  0  0  0  0  0  0  0  0  0  0
   13.0037   -2.6562    0.7133 N   0  0  0  0  0  0  0  0  0  0  0  0
   11.7846   -2.0205    1.1951 C   0  0  0  0  0  0  0  0  0  0  0  0
   11.8818   -1.8589    2.2727 H   0  0  0  0  0  0  0  0  0  0  0  0
   11.5810   -0.6712    0.5068 C   0  0  0  0  0  0  0  0  0  0  0  0
   12.4481   -0.0442    0.6854 H   0  0  0  0  0  0  0  0  0  0  0  0
   11.4673   -0.7878   -0.5763 H   0  0  0  0  0  0  0  0  0  0  0  0
   10.7029   -0.1547    0.9110 H   0  0  0  0  0  0  0  0  0  0  0  0
   10.5735   -2.9102    0.9422 C   0  0  0  0  0  0  0  0  0  0  0  0
   10.3724   -2.9938   -0.1311 H   0  0  0  0  0  0  0  0  0  0  0  0
   10.7565   -3.9097    1.3449 H   0  0  0  0  0  0  0  0  0  0  0  0
    9.6913   -2.4911    1.4394 H   0  0  0  0  0  0  0  0  0  0  0  0
   14.2129   -2.6034    1.3623 C   0  0  0  0  0  0  0  0  0  0  0  0
   14.3972   -2.2977    2.6765 N   0  0  0  0  0  0  0  0  0  0  0  0
   13.5898   -2.2975    3.2938 H   0  0  0  0  0  0  0  0  0  0  0  0
   15.3449   -2.3018    3.0584 H   0  0  0  0  0  0  0  0  0  0  0  0
   15.2023   -2.9010    0.5964 N   0  0  0  0  0  4  0  0  0  0  0  0
   16.1703   -2.9192    0.9147 H   0  0  0  0  0  0  0  0  0  0  0  0
   15.2963   -0.8582   -1.5122 C   0  0  0  0  0  0  0  0  0  0  0  0
   14.8672   -0.5266   -0.5745 H   0  0  0  0  0  0  0  0  0  0  0  0
   15.4358    2.0223   -0.7987 C   0  0  0  0  0  0  0  0  0  0  0  0
   15.3036    1.3016   -0.0001 H   0  0  0  0  0  0  0  0  0  0  0  0
   15.3739    3.3992   -0.5516 C   0  0  0  0  0  0  0  0  0  0  0  0
   15.1688    3.7865    0.4412 H   0  0  0  0  0  0  0  0  0  0  0  0
  1  2  1  0
  2  3  2  0
  3  4  1  0
  4  5  1  0
  4  6  2  0
  6  7  1  0
  7  8  2  0
  8  9  1  0
  8 10  1  0
 10 11  1  0
 10 12  2  0
 12 13  1  0
 12 14  1  0
 15 14  1  6
 15 16  1  0
 16 17  2  0
 17 18  1  0
 17 19  1  0
 19 20  1  0
 19 21  2  0
 21 22  1  0
 21 23  1  0
 23 24  1  0
 23 25  2  0
 25 26  1  0
 15 27  1  0
 27 28  2  0
 27 29  1  0
 29 30  1  0
 30 31  1  0
 30 32  1  0
 32 33  1  0
 32 34  1  0
 32 35  1  0
 30 36  1  0
 36 37  1  0
 36 38  1  0
 36 39  1  0
 29 40  1  0
 40 41  1  0
 41 42  1  0
 41 43  1  0
 40 44  2  0
 44 45  1  0
 14 46  2  0
 46 47  1  0
  6 48  1  0
 48 49  1  0
 48 50  2  0
 50 51  1  0
 50  2  1  0
 46  7  1  0
 44 15  1  0
 25 16  1  0
M  CHG  1  44   1
M  END
>  <score>  (91) 
5.81043

$$$$

     RDKit          3D

 54 57  0  0  0  0  0  0  0  0999 V2000
   15.5694    5.3722   -1.3872 H   0  0  0  0  0  0  0  0  0  0  0  0
   15.5837    4.3034   -1.5958 C   0  0  0  0  0  0  0  0  0  0  0  0
   15.8196    3.8815   -2.8483 N   0  0  0  0  0  0  0  0  0  0  0  0
   15.8640    2.5532   -3.0876 C   0  0  0  0  0  0  0  0  0  0  0  0
   16.0461    2.2237   -4.1051 H   0  0  0  0  0  0  0  0  0  0  0  0
   15.6861    1.5710   -2.0963 C   0  0  0  0  0  0  0  0  0  0  0  0
   15.7710    0.1184   -2.4109 C   0  0  0  0  0  0  0  0  0  0  0  0
   16.3476   -0.3216   -3.6114 C   0  0  0  0  0  0  0  0  0  0  0  0
   16.7250    0.4082   -4.3208 H   0  0  0  0  0  0  0  0  0  0  0  0
   16.4323   -1.6897   -3.9090 C   0  0  0  0  0  0  0  0  0  0  0  0
   16.8655   -2.0068   -4.8533 H   0  0  0  0  0  0  0  0  0  0  0  0
   15.9443   -2.6453   -3.0057 C   0  0  0  0  0  0  0  0  0  0  0  0
   16.0041   -3.7018   -3.2566 H   0  0  0  0  0  0  0  0  0  0  0  0
   15.3764   -2.2449   -1.7834 C   0  0  0  0  0  0  0  0  0  0  0  0
   14.8102   -3.2533   -0.7818 C   0  0  2  0  0  0  0  0  0  0  0  0
   15.1731   -4.7164   -1.0720 C   0  0  0  0  0  0  0  0  0  0  0  0
   16.3922   -5.2377   -0.6096 C   0  0  0  0  0  0  0  0  0  0  0  0
   17.0670   -4.5861   -0.0631 H   0  0  0  0  0  0  0  0  0  0  0  0
   16.7298   -6.5818   -0.8031 C   0  0  0  0  0  0  0  0  0  0  0  0
   17.6722   -6.9562   -0.4165 H   0  0  0  0  0  0  0  0  0  0  0  0
   15.8537   -7.4400   -1.4726 C   0  0  0  0  0  0  0  0  0  0  0  0
   16.1207   -8.4857   -1.6115 H   0  0  0  0  0  0  0  0  0  0  0  0
   14.6430   -6.9386   -1.9615 C   0  0  0  0  0  0  0  0  0  0  0  0
   13.9721   -7.6115   -2.4878 H   0  0  0  0  0  0  0  0  0  0  0  0
   14.3039   -5.5879   -1.7666 C   0  0  0  0  0  0  0  0  0  0  0  0
   13.3537   -5.2312   -2.1545 H   0  0  0  0  0  0  0  0  0  0  0  0
   13.2962   -3.0395   -0.5955 C   0  0  0  0  0  0  0  0  0  0  0  0
   12.4296   -3.1031   -1.4639 O   0  0  0  0  0  0  0  0  0  0  0  0
   13.0153   -2.6690    0.7005 N   0  0  0  0  0  0  0  0  0  0  0  0
   11.6787   -2.4954    1.2744 C   0  0  0  0  0  0  0  0  0  0  0  0
   11.7378   -1.9183    2.1999 H   0  0  0  0  0  0  0  0  0  0  0  0
   11.0450   -1.9246    0.5840 H   0  0  0  0  0  0  0  0  0  0  0  0
   11.0232   -3.8535    1.5486 C   0  0  0  0  0  0  0  0  0  0  0  0
   11.0339   -4.4332    0.6228 H   0  0  0  0  0  0  0  0  0  0  0  0
    9.5668   -3.6586    1.9844 C   0  0  0  0  0  0  0  0  0  0  0  0
    9.5088   -3.0823    2.9113 H   0  0  0  0  0  0  0  0  0  0  0  0
    9.0043   -3.1268    1.2125 H   0  0  0  0  0  0  0  0  0  0  0  0
    9.0848   -4.6257    2.1548 H   0  0  0  0  0  0  0  0  0  0  0  0
   11.7746   -4.6418    2.6270 C   0  0  0  0  0  0  0  0  0  0  0  0
   11.2643   -5.5868    2.8370 H   0  0  0  0  0  0  0  0  0  0  0  0
   12.7914   -4.8647    2.2952 H   0  0  0  0  0  0  0  0  0  0  0  0
   11.8371   -4.0740    3.5578 H   0  0  0  0  0  0  0  0  0  0  0  0
   14.2146   -2.6312    1.3674 C   0  0  0  0  0  0  0  0  0  0  0  0
   14.3962   -2.3473    2.6893 N   0  0  0  0  0  0  0  0  0  0  0  0
   13.5844   -2.1571    3.2719 H   0  0  0  0  0  0  0  0  0  0  0  0
   15.3385   -2.3470    3.0830 H   0  0  0  0  0  0  0  0  0  0  0  0
   15.2119   -2.8987    0.5954 N   0  0  0  0  0  4  0  0  0  0  0  0
   16.1794   -2.9127    0.9121 H   0  0  0  0  0  0  0  0  0  0  0  0
   15.2960   -0.8593   -1.5156 C   0  0  0  0  0  0  0  0  0  0  0  0
   14.8691   -0.5290   -0.5757 H   0  0  0  0  0  0  0  0  0  0  0  0
   15.4360    2.0253   -0.7977 C   0  0  0  0  0  0  0  0  0  0  0  0
   15.2988    1.3088    0.0028 H   0  0  0  0  0  0  0  0  0  0  0  0
   15.3724    3.4014   -0.5516 C   0  0  0  0  0  0  0  0  0  0  0  0
   15.1679    3.7859    0.4414 H   0  0  0  0  0  0  0  0  0  0  0  0
  1  2  1  0
  2  3  2  0
  3  4  1  0
  4  5  1  0
  4  6  2  0
  6  7  1  0
  7  8  2  0
  8  9  1  0
  8 10  1  0
 10 11  1  0
 10 12  2  0
 12 13  1  0
 12 14  1  0
 15 14  1  6
 15 16  1  0
 16 17  2  0
 17 18  1  0
 17 19  1  0
 19 20  1  0
 19 21  2  0
 21 22  1  0
 21 23  1  0
 23 24  1  0
 23 25  2  0
 25 26  1  0
 15 27  1  0
 27 28  2  0
 27 29  1  0
 29 30  1  0
 30 31  1  0
 30 32  1  0
 30 33  1  0
 33 34  1  0
 33 35  1  0
 35 36  1  0
 35 37  1  0
 35 38  1  0
 33 39  1  0
 39 40  1  0
 39 41  1  0
 39 42  1  0
 29 43  1  0
 43 44  1  0
 44 45  1  0
 44 46  1  0
 43 47  2  0
 47 48  1  0
 14 49  2  0
 49 50  1  0
  6 51  1  0
 51 52  1  0
 51 53  2  0
 53 54  1  0
 53  2  1  0
 49  7  1  0
 47 15  1  0
 25 16  1  0
M  CHG  1  47   1
M  END
>  <score>  (92) 
5.80258

$$$$

     RDKit          3D

 57 62  0  0  0  0  0  0  0  0999 V2000
   15.5701    5.3724   -1.3874 H   0  0  0  0  0  0  0  0  0  0  0  0
   15.5837    4.3037   -1.5952 C   0  0  0  0  0  0  0  0  0  0  0  0
   15.8196    3.8817   -2.8474 N   0  0  0  0  0  0  0  0  0  0  0  0
   15.8634    2.5537   -3.0872 C   0  0  0  0  0  0  0  0  0  0  0  0
   16.0448    2.2261   -4.1056 H   0  0  0  0  0  0  0  0  0  0  0  0
   15.6853    1.5715   -2.0955 C   0  0  0  0  0  0  0  0  0  0  0  0
   15.7728    0.1181   -2.4096 C   0  0  0  0  0  0  0  0  0  0  0  0
   16.3475   -0.3225   -3.6117 C   0  0  0  0  0  0  0  0  0  0  0  0
   16.7254    0.4058   -4.3229 H   0  0  0  0  0  0  0  0  0  0  0  0
   16.4308   -1.6909   -3.9085 C   0  0  0  0  0  0  0  0  0  0  0  0
   16.8658   -2.0070   -4.8530 H   0  0  0  0  0  0  0  0  0  0  0  0
   15.9417   -2.6459   -3.0040 C   0  0  0  0  0  0  0  0  0  0  0  0
   16.0031   -3.7013   -3.2575 H   0  0  0  0  0  0  0  0  0  0  0  0
   15.3732   -2.2444   -1.7804 C   0  0  0  0  0  0  0  0  0  0  0  0
   14.7947   -3.2462   -0.7775 C   0  0  2  0  0  0  0  0  0  0  0  0
   15.1631   -4.7127   -1.0677 C   0  0  0  0  0  0  0  0  0  0  0  0
   16.3867   -5.2353   -0.6095 C   0  0  0  0  0  0  0  0  0  0  0  0
   17.0658   -4.5869   -0.0642 H   0  0  0  0  0  0  0  0  0  0  0  0
   16.7282   -6.5803   -0.8028 C   0  0  0  0  0  0  0  0  0  0  0  0
   17.6720   -6.9552   -0.4174 H   0  0  0  0  0  0  0  0  0  0  0  0
   15.8538   -7.4401   -1.4723 C   0  0  0  0  0  0  0  0  0  0  0  0
   16.1214   -8.4859   -1.6113 H   0  0  0  0  0  0  0  0  0  0  0  0
   14.6430   -6.9387   -1.9616 C   0  0  0  0  0  0  0  0  0  0  0  0
   13.9726   -7.6124   -2.4880 H   0  0  0  0  0  0  0  0  0  0  0  0
   14.3009   -5.5877   -1.7660 C   0  0  0  0  0  0  0  0  0  0  0  0
   13.3519   -5.2333   -2.1569 H   0  0  0  0  0  0  0  0  0  0  0  0
   13.2799   -3.0050   -0.5953 C   0  0  0  0  0  0  0  0  0  0  0  0
   12.4295   -3.0882   -1.4796 O   0  0  0  0  0  0  0  0  0  0  0  0
   12.9982   -2.6702    0.7152 N   0  0  0  0  0  0  0  0  0  0  0  0
   11.7286   -2.4204    1.2635 C   0  0  0  0  0  0  0  0  0  0  0  0
   11.2081   -3.3483    2.1741 C   0  0  0  0  0  0  0  0  0  0  0  0
   11.7996   -4.2195    2.4380 H   0  0  0  0  0  0  0  0  0  0  0  0
    9.9417   -3.1743    2.7342 C   0  0  0  0  0  0  0  0  0  0  0  0
    9.5502   -3.9107    3.4340 H   0  0  0  0  0  0  0  0  0  0  0  0
    9.1890   -2.0501    2.3812 C   0  0  0  0  0  0  0  0  0  0  0  0
    8.2135   -1.8850    2.8129 H   0  0  0  0  0  0  0  0  0  0  0  0
    9.6781   -1.0995    1.4836 C   0  0  0  0  0  0  0  0  0  0  0  0
    8.8935   -0.0337    1.2175 N   0  0  0  0  0  0  0  0  0  0  0  0
    9.3964    0.8995    0.3931 C   0  0  0  0  0  0  0  0  0  0  0  0
    8.7984    1.7713    0.1588 H   0  0  0  0  0  0  0  0  0  0  0  0
   10.6633    0.8056   -0.1932 C   0  0  0  0  0  0  0  0  0  0  0  0
   11.0114    1.5866   -0.8553 H   0  0  0  0  0  0  0  0  0  0  0  0
   11.4758   -0.2943    0.0658 C   0  0  0  0  0  0  0  0  0  0  0  0
   12.4745   -0.3866   -0.3657 H   0  0  0  0  0  0  0  0  0  0  0  0
   10.9708   -1.2793    0.9208 C   0  0  0  0  0  0  0  0  0  0  0  0
   14.2035   -2.6403    1.3781 C   0  0  0  0  0  0  0  0  0  0  0  0
   14.3928   -2.3448    2.6979 N   0  0  0  0  0  0  0  0  0  0  0  0
   13.5864   -2.1019    3.2712 H   0  0  0  0  0  0  0  0  0  0  0  0
   15.3338   -2.3583    3.0935 H   0  0  0  0  0  0  0  0  0  0  0  0
   15.2030   -2.9048    0.6009 N   0  0  0  0  0  4  0  0  0  0  0  0
   16.1757   -2.9110    0.9053 H   0  0  0  0  0  0  0  0  0  0  0  0
   15.2990   -0.8596   -1.5129 C   0  0  0  0  0  0  0  0  0  0  0  0
   14.8733   -0.5304   -0.5724 H   0  0  0  0  0  0  0  0  0  0  0  0
   15.4328    2.0264   -0.7971 C   0  0  0  0  0  0  0  0  0  0  0  0
   15.2957    1.3116    0.0047 H   0  0  0  0  0  0  0  0  0  0  0  0
   15.3703    3.4023   -0.5513 C   0  0  0  0  0  0  0  0  0  0  0  0
   15.1674    3.7863    0.4418 H   0  0  0  0  0  0  0  0  0  0  0  0
  1  2  1  0
  2  3  2  0
  3  4  1  0
  4  5  1  0
  4  6  2  0
  6  7  1  0
  7  8  2  0
  8  9  1  0
  8 10  1  0
 10 11  1  0
 10 12  2  0
 12 13  1  0
 12 14  1  0
 15 14  1  6
 15 16  1  0
 16 17  2  0
 17 18  1  0
 17 19  1  0
 19 20  1  0
 19 21  2  0
 21 22  1  0
 21 23  1  0
 23 24  1  0
 23 25  2  0
 25 26  1  0
 15 27  1  0
 27 28  2  0
 27 29  1  0
 29 30  1  0
 30 31  2  0
 31 32  1  0
 31 33  1  0
 33 34  1  0
 33 35  2  0
 35 36  1  0
 35 37  1  0
 37 38  2  0
 38 39  1  0
 39 40  1  0
 39 41  2  0
 41 42  1  0
 41 43  1  0
 43 44  1  0
 43 45  2  0
 29 46  1  0
 46 47  1  0
 47 48  1  0
 47 49  1  0
 46 50  2  0
 50 51  1  0
 14 52  2  0
 52 53  1  0
  6 54  1  0
 54 55  1  0
 54 56  2  0
 56 57  1  0
 56  2  1  0
 52  7  1  0
 50 15  1  0
 25 16  1  0
 45 30  1  0
 45 37  1  0
M  CHG  1  50   1
M  END
>  <score>  (93) 
5.80164

$$$$

     RDKit          3D

 54 58  0  0  0  0  0  0  0  0999 V2000
   15.5501    5.3534   -1.4228 H   0  0  0  0  0  0  0  0  0  0  0  0
   15.6347    4.2879   -1.6114 C   0  0  0  0  0  0  0  0  0  0  0  0
   15.8848    3.8686   -2.8614 N   0  0  0  0  0  0  0  0  0  0  0  0
   15.9816    2.5447   -3.0822 C   0  0  0  0  0  0  0  0  0  0  0  0
   16.1735    2.2082   -4.0966 H   0  0  0  0  0  0  0  0  0  0  0  0
   15.8306    1.5826   -2.0706 C   0  0  0  0  0  0  0  0  0  0  0  0
   15.9206    0.1417   -2.3664 C   0  0  0  0  0  0  0  0  0  0  0  0
   16.3884   -0.3287   -3.6017 C   0  0  0  0  0  0  0  0  0  0  0  0
   16.7130    0.3806   -4.3559 H   0  0  0  0  0  0  0  0  0  0  0  0
   16.4472   -1.7034   -3.8666 C   0  0  0  0  0  0  0  0  0  0  0  0
   16.8079   -2.0548   -4.8284 H   0  0  0  0  0  0  0  0  0  0  0  0
   16.0266   -2.6210   -2.8970 C   0  0  0  0  0  0  0  0  0  0  0  0
   16.0386   -3.6845   -3.1183 H   0  0  0  0  0  0  0  0  0  0  0  0
   15.5582   -2.1765   -1.6486 C   0  0  0  0  0  0  0  0  0  0  0  0
   14.9780   -3.1302   -0.6158 C   0  0  2  0  0  0  0  0  0  0  0  0
   15.2520   -4.5953   -0.9499 C   0  0  0  0  0  0  0  0  0  0  0  0
   16.4673   -5.1829   -0.5584 C   0  0  0  0  0  0  0  0  0  0  0  0
   17.1981   -4.5880   -0.0191 H   0  0  0  0  0  0  0  0  0  0  0  0
   16.7495   -6.5240   -0.8403 C   0  0  0  0  0  0  0  0  0  0  0  0
   17.6909   -6.9586   -0.5141 H   0  0  0  0  0  0  0  0  0  0  0  0
   15.8207   -7.3007   -1.5402 C   0  0  0  0  0  0  0  0  0  0  0  0
   16.0395   -8.3416   -1.7651 H   0  0  0  0  0  0  0  0  0  0  0  0
   14.6152   -6.7299   -1.9633 C   0  0  0  0  0  0  0  0  0  0  0  0
   13.8994   -7.3339   -2.5166 H   0  0  0  0  0  0  0  0  0  0  0  0
   14.3336   -5.3853   -1.6722 C   0  0  0  0  0  0  0  0  0  0  0  0
   13.3933   -4.9605   -2.0113 H   0  0  0  0  0  0  0  0  0  0  0  0
   13.4895   -2.7901   -0.4346 C   0  0  0  0  0  0  0  0  0  0  0  0
   12.5830   -2.9381   -1.2487 O   0  0  0  0  0  0  0  0  0  0  0  0
   13.2804   -2.3890    0.8534 N   0  0  0  0  0  0  0  0  0  0  0  0
   12.0425   -2.1152    1.3581 C   0  0  0  0  0  0  0  0  0  0  0  0
   11.4267   -1.2795    0.7138 O   0  0  0  0  0  0  0  0  0  0  0  0
   11.2824   -3.1430    2.1031 C   0  0  0  0  0  0  0  0  0  0  0  0
    9.9685   -2.8784    2.5475 C   0  0  0  0  0  0  0  0  0  0  0  0
    9.5271   -1.8941    2.4335 H   0  0  0  0  0  0  0  0  0  0  0  0
    9.1656   -3.8901    3.0780 C   0  0  0  0  0  0  0  0  0  0  0  0
    8.1286   -3.6862    3.3338 H   0  0  0  0  0  0  0  0  0  0  0  0
    9.6762   -5.1775    3.2355 C   0  0  0  0  0  0  0  0  0  0  0  0
    8.6604   -6.4662    3.8329 Cl  0  0  0  0  0  0  0  0  0  0  0  0
   10.9945   -5.4460    2.8491 C   0  0  0  0  0  0  0  0  0  0  0  0
   11.3752   -6.4578    2.9228 H   0  0  0  0  0  0  0  0  0  0  0  0
   11.7915   -4.4436    2.2901 C   0  0  0  0  0  0  0  0  0  0  0  0
   12.7904   -4.7087    1.9532 H   0  0  0  0  0  0  0  0  0  0  0  0
   14.4266   -2.5410    1.5496 C   0  0  0  0  0  0  0  0  0  0  0  0
   14.5029   -2.4110    2.8946 N   0  0  0  0  0  0  0  0  0  0  0  0
   13.6938   -2.0162    3.3716 H   0  0  0  0  0  0  0  0  0  0  0  0
   15.4306   -2.2919    3.2945 H   0  0  0  0  0  0  0  0  0  0  0  0
   15.4121   -2.8403    0.7742 N   0  0  0  0  0  4  0  0  0  0  0  0
   16.3399   -3.0673    1.1226 H   0  0  0  0  0  0  0  0  0  0  0  0
   15.5107   -0.7958   -1.4099 C   0  0  0  0  0  0  0  0  0  0  0  0
   15.1068   -0.4421   -0.4676 H   0  0  0  0  0  0  0  0  0  0  0  0
   15.5812    2.0303   -0.7700 C   0  0  0  0  0  0  0  0  0  0  0  0
   15.4759    1.3204    0.0468 H   0  0  0  0  0  0  0  0  0  0  0  0
   15.4802    3.3997   -0.5456 C   0  0  0  0  0  0  0  0  0  0  0  0
   15.2819    3.7777    0.4495 H   0  0  0  0  0  0  0  0  0  0  0  0
  1  2  1  0
  2  3  2  0
  3  4  1  0
  4  5  1  0
  4  6  2  0
  6  7  1  0
  7  8  2  0
  8  9  1  0
  8 10  1  0
 10 11  1  0
 10 12  2  0
 12 13  1  0
 12 14  1  0
 15 14  1  6
 15 16  1  0
 16 17  2  0
 17 18  1  0
 17 19  1  0
 19 20  1  0
 19 21  2  0
 21 22  1  0
 21 23  1  0
 23 24  1  0
 23 25  2  0
 25 26  1  0
 15 27  1  0
 27 28  2  0
 27 29  1  0
 29 30  1  0
 30 31  2  0
 30 32  1  0
 32 33  2  0
 33 34  1  0
 33 35  1  0
 35 36  1  0
 35 37  2  0
 37 38  1  0
 37 39  1  0
 39 40  1  0
 39 41  2  0
 41 42  1  0
 29 43  1  0
 43 44  1  0
 44 45  1  0
 44 46  1  0
 43 47  2  0
 47 48  1  0
 14 49  2  0
 49 50  1  0
  6 51  1  0
 51 52  1  0
 51 53  2  0
 53 54  1  0
 53  2  1  0
 49  7  1  0
 47 15  1  0
 25 16  1  0
 41 32  1  0
M  CHG  1  47   1
M  END
>  <score>  (94) 
5.80037

$$$$

     RDKit          3D

 58 61  0  0  0  0  0  0  0  0999 V2000
   15.5231    5.3201   -1.4214 H   0  0  0  0  0  0  0  0  0  0  0  0
   15.5865    4.2539   -1.6172 C   0  0  0  0  0  0  0  0  0  0  0  0
   15.8449    3.8411   -2.8674 N   0  0  0  0  0  0  0  0  0  0  0  0
   15.9107    2.5177   -3.0989 C   0  0  0  0  0  0  0  0  0  0  0  0
   16.1084    2.1917   -4.1159 H   0  0  0  0  0  0  0  0  0  0  0  0
   15.7183    1.5516   -2.0955 C   0  0  0  0  0  0  0  0  0  0  0  0
   15.7703    0.1164   -2.3916 C   0  0  0  0  0  0  0  0  0  0  0  0
   16.3216   -0.3239   -3.5993 C   0  0  0  0  0  0  0  0  0  0  0  0
   16.7036    0.4054   -4.3087 H   0  0  0  0  0  0  0  0  0  0  0  0
   16.3975   -1.6867   -3.8746 C   0  0  0  0  0  0  0  0  0  0  0  0
   16.8412   -2.0107   -4.8098 H   0  0  0  0  0  0  0  0  0  0  0  0
   15.9034   -2.6190   -2.9551 C   0  0  0  0  0  0  0  0  0  0  0  0
   15.9662   -3.6747   -3.1898 H   0  0  0  0  0  0  0  0  0  0  0  0
   15.3350   -2.2107   -1.7374 C   0  0  0  0  0  0  0  0  0  0  0  0
   14.7764   -3.2217   -0.7343 C   0  0  2  0  0  0  0  0  0  0  0  0
   15.1622   -4.6645   -1.0431 C   0  0  0  0  0  0  0  0  0  0  0  0
   16.3880   -5.1808   -0.5908 C   0  0  0  0  0  0  0  0  0  0  0  0
   17.0718   -4.5347   -0.0457 H   0  0  0  0  0  0  0  0  0  0  0  0
   16.7237   -6.5207   -0.8010 C   0  0  0  0  0  0  0  0  0  0  0  0
   17.6644   -6.9039   -0.4162 H   0  0  0  0  0  0  0  0  0  0  0  0
   15.8395   -7.3631   -1.4818 C   0  0  0  0  0  0  0  0  0  0  0  0
   16.0977   -8.4060   -1.6372 H   0  0  0  0  0  0  0  0  0  0  0  0
   14.6269   -6.8564   -1.9635 C   0  0  0  0  0  0  0  0  0  0  0  0
   13.9431   -7.5092   -2.4980 H   0  0  0  0  0  0  0  0  0  0  0  0
   14.2898   -5.5145   -1.7462 C   0  0  0  0  0  0  0  0  0  0  0  0
   13.3354   -5.1385   -2.1052 H   0  0  0  0  0  0  0  0  0  0  0  0
   13.2615   -3.0555   -0.5332 C   0  0  0  0  0  0  0  0  0  0  0  0
   12.3563   -3.1568   -1.3538 O   0  0  0  0  0  0  0  0  0  0  0  0
   13.0262   -2.8659    0.7912 N   0  0  0  0  0  0  0  0  0  0  0  0
   11.8034   -2.5984    1.2996 C   0  0  0  0  0  0  0  0  0  0  0  0
   11.0749   -1.8599    0.6630 O   0  0  0  0  0  0  0  0  0  0  0  0
   11.3766   -3.2840    2.4245 N   0  0  0  0  0  0  0  0  0  0  0  0
   11.8739   -4.6313    2.6559 C   0  0  0  0  0  0  0  0  0  0  0  0
   11.4786   -5.0267    3.5971 H   0  0  0  0  0  0  0  0  0  0  0  0
   12.9658   -4.6271    2.7381 H   0  0  0  0  0  0  0  0  0  0  0  0
   11.4165   -5.5063    1.4943 C   0  0  0  0  0  0  0  0  0  0  0  0
   10.3242   -5.4590    1.4041 H   0  0  0  0  0  0  0  0  0  0  0  0
   11.8658   -5.1492    0.5599 H   0  0  0  0  0  0  0  0  0  0  0  0
   11.7182   -6.5455    1.6628 H   0  0  0  0  0  0  0  0  0  0  0  0
   10.2970   -2.7958    3.2718 C   0  0  0  0  0  0  0  0  0  0  0  0
   10.4793   -3.1207    4.2999 H   0  0  0  0  0  0  0  0  0  0  0  0
   10.3001   -1.7148    3.2944 H   0  0  0  0  0  0  0  0  0  0  0  0
    8.9217   -3.2657    2.8190 C   0  0  0  0  0  0  0  0  0  0  0  0
    8.8584   -4.3570    2.8761 H   0  0  0  0  0  0  0  0  0  0  0  0
    8.7241   -2.9452    1.7898 H   0  0  0  0  0  0  0  0  0  0  0  0
    8.1618   -2.8334    3.4809 H   0  0  0  0  0  0  0  0  0  0  0  0
   14.1992   -2.7667    1.4602 C   0  0  0  0  0  0  0  0  0  0  0  0
   14.3333   -2.4933    2.7879 N   0  0  0  0  0  0  0  0  0  0  0  0
   13.5203   -2.0910    3.2531 H   0  0  0  0  0  0  0  0  0  0  0  0
   15.2658   -2.2220    3.1060 H   0  0  0  0  0  0  0  0  0  0  0  0
   15.1946   -2.9193    0.6498 N   0  0  0  0  0  4  0  0  0  0  0  0
   16.1683   -2.9495    0.9512 H   0  0  0  0  0  0  0  0  0  0  0  0
   15.2780   -0.8306   -1.4732 C   0  0  0  0  0  0  0  0  0  0  0  0
   14.8407   -0.4793   -0.5417 H   0  0  0  0  0  0  0  0  0  0  0  0
   15.4832    1.9913   -0.7939 C   0  0  0  0  0  0  0  0  0  0  0  0
   15.3740    1.2737    0.0141 H   0  0  0  0  0  0  0  0  0  0  0  0
   15.4079    3.3601   -0.5580 C   0  0  0  0  0  0  0  0  0  0  0  0
   15.2144    3.7328    0.4402 H   0  0  0  0  0  0  0  0  0  0  0  0
  1  2  1  0
  2  3  2  0
  3  4  1  0
  4  5  1  0
  4  6  2  0
  6  7  1  0
  7  8  2  0
  8  9  1  0
  8 10  1  0
 10 11  1  0
 10 12  2  0
 12 13  1  0
 12 14  1  0
 15 14  1  6
 15 16  1  0
 16 17  2  0
 17 18  1  0
 17 19  1  0
 19 20  1  0
 19 21  2  0
 21 22  1  0
 21 23  1  0
 23 24  1  0
 23 25  2  0
 25 26  1  0
 15 27  1  0
 27 28  2  0
 27 29  1  0
 29 30  1  0
 30 31  2  0
 30 32  1  0
 32 33  1  0
 33 34  1  0
 33 35  1  0
 33 36  1  0
 36 37  1  0
 36 38  1  0
 36 39  1  0
 32 40  1  0
 40 41  1  0
 40 42  1  0
 40 43  1  0
 43 44  1  0
 43 45  1  0
 43 46  1  0
 29 47  1  0
 47 48  1  0
 48 49  1  0
 48 50  1  0
 47 51  2  0
 51 52  1  0
 14 53  2  0
 53 54  1  0
  6 55  1  0
 55 56  1  0
 55 57  2  0
 57 58  1  0
 57  2  1  0
 53  7  1  0
 51 15  1  0
 25 16  1  0
M  CHG  1  51   1
M  END
>  <score>  (95) 
5.79236

$$$$

     RDKit          3D

 55 59  0  0  0  0  0  0  0  0999 V2000
   15.5525    5.3496   -1.3956 H   0  0  0  0  0  0  0  0  0  0  0  0
   15.5860    4.2834   -1.6048 C   0  0  0  0  0  0  0  0  0  0  0  0
   15.8214    3.8683   -2.8593 N   0  0  0  0  0  0  0  0  0  0  0  0
   15.8770    2.5420   -3.0932 C   0  0  0  0  0  0  0  0  0  0  0  0
   16.0687    2.2040   -4.1067 H   0  0  0  0  0  0  0  0  0  0  0  0
   15.6938    1.5683   -2.0969 C   0  0  0  0  0  0  0  0  0  0  0  0
   15.7735    0.1221   -2.4068 C   0  0  0  0  0  0  0  0  0  0  0  0
   16.3312   -0.3159   -3.6143 C   0  0  0  0  0  0  0  0  0  0  0  0
   16.7124    0.4273   -4.3065 H   0  0  0  0  0  0  0  0  0  0  0  0
   16.4208   -1.6819   -3.9127 C   0  0  0  0  0  0  0  0  0  0  0  0
   16.8664   -2.0003   -4.8496 H   0  0  0  0  0  0  0  0  0  0  0  0
   15.9438   -2.6339   -3.0041 C   0  0  0  0  0  0  0  0  0  0  0  0
   16.0027   -3.6927   -3.2408 H   0  0  0  0  0  0  0  0  0  0  0  0
   15.3889   -2.2327   -1.7806 C   0  0  0  0  0  0  0  0  0  0  0  0
   14.8482   -3.2517   -0.7815 C   0  0  2  0  0  0  0  0  0  0  0  0
   15.2003   -4.7073   -1.0810 C   0  0  0  0  0  0  0  0  0  0  0  0
   16.4106   -5.2317   -0.6093 C   0  0  0  0  0  0  0  0  0  0  0  0
   17.0832   -4.5804   -0.0587 H   0  0  0  0  0  0  0  0  0  0  0  0
   16.7415   -6.5761   -0.8024 C   0  0  0  0  0  0  0  0  0  0  0  0
   17.6778   -6.9625   -0.4103 H   0  0  0  0  0  0  0  0  0  0  0  0
   15.8602   -7.4230   -1.4808 C   0  0  0  0  0  0  0  0  0  0  0  0
   16.1072   -8.4720   -1.6152 H   0  0  0  0  0  0  0  0  0  0  0  0
   14.6492   -6.9204   -1.9681 C   0  0  0  0  0  0  0  0  0  0  0  0
   13.9611   -7.5838   -2.4863 H   0  0  0  0  0  0  0  0  0  0  0  0
   14.3209   -5.5697   -1.7707 C   0  0  0  0  0  0  0  0  0  0  0  0
   13.3656   -5.1981   -2.1308 H   0  0  0  0  0  0  0  0  0  0  0  0
   13.3345   -3.0816   -0.6269 C   0  0  0  0  0  0  0  0  0  0  0  0
   12.4905   -3.1491   -1.5220 O   0  0  0  0  0  0  0  0  0  0  0  0
   13.0593   -2.7505    0.6832 N   0  0  0  0  0  0  0  0  0  0  0  0
   11.7453   -2.5728    1.2047 O   0  0  0  0  0  0  0  0  0  0  0  0
   11.3659   -1.1935    1.2677 C   0  0  0  0  0  0  0  0  0  0  0  0
   12.1226   -0.6014    1.7892 H   0  0  0  0  0  0  0  0  0  0  0  0
   10.4345   -1.1348    1.8292 H   0  0  0  0  0  0  0  0  0  0  0  0
   11.1240   -0.6267   -0.0943 C   0  0  0  0  0  0  0  0  0  0  0  0
   10.0157   -1.0932   -0.8008 C   0  0  0  0  0  0  0  0  0  0  0  0
    9.3830   -1.8351   -0.3208 H   0  0  0  0  0  0  0  0  0  0  0  0
    9.7038   -0.6608   -2.0317 N   0  0  0  0  0  0  0  0  0  0  0  0
   10.5087    0.2526   -2.5991 C   0  0  0  0  0  0  0  0  0  0  0  0
   10.2749    0.6010   -3.6012 H   0  0  0  0  0  0  0  0  0  0  0  0
   11.6334    0.7700   -1.9505 C   0  0  0  0  0  0  0  0  0  0  0  0
   12.2536    1.5009   -2.4536 H   0  0  0  0  0  0  0  0  0  0  0  0
   11.9596    0.3321   -0.6736 C   0  0  0  0  0  0  0  0  0  0  0  0
   12.8410    0.7336   -0.1818 H   0  0  0  0  0  0  0  0  0  0  0  0
   14.2638   -2.6639    1.3698 C   0  0  0  0  0  0  0  0  0  0  0  0
   14.4303   -2.3340    2.6926 N   0  0  0  0  0  0  0  0  0  0  0  0
   13.6132   -2.1657    3.2795 H   0  0  0  0  0  0  0  0  0  0  0  0
   15.3654   -2.3365    3.0997 H   0  0  0  0  0  0  0  0  0  0  0  0
   15.2730   -2.9158    0.5981 N   0  0  0  0  0  4  0  0  0  0  0  0
   16.2478   -2.9428    0.9116 H   0  0  0  0  0  0  0  0  0  0  0  0
   15.3062   -0.8499   -1.5043 C   0  0  0  0  0  0  0  0  0  0  0  0
   14.8649   -0.5160   -0.5699 H   0  0  0  0  0  0  0  0  0  0  0  0
   15.4441    2.0116   -0.7985 C   0  0  0  0  0  0  0  0  0  0  0  0
   15.3348    1.2776   -0.0070 H   0  0  0  0  0  0  0  0  0  0  0  0
   15.3820    3.3853   -0.5557 C   0  0  0  0  0  0  0  0  0  0  0  0
   15.1838    3.7694    0.4373 H   0  0  0  0  0  0  0  0  0  0  0  0
  1  2  1  0
  2  3  2  0
  3  4  1  0
  4  5  1  0
  4  6  2  0
  6  7  1  0
  7  8  2  0
  8  9  1  0
  8 10  1  0
 10 11  1  0
 10 12  2  0
 12 13  1  0
 12 14  1  0
 15 14  1  6
 15 16  1  0
 16 17  2  0
 17 18  1  0
 17 19  1  0
 19 20  1  0
 19 21  2  0
 21 22  1  0
 21 23  1  0
 23 24  1  0
 23 25  2  0
 25 26  1  0
 15 27  1  0
 27 28  2  0
 27 29  1  0
 29 30  1  0
 30 31  1  0
 31 32  1  0
 31 33  1  0
 31 34  1  0
 34 35  2  0
 35 36  1  0
 35 37  1  0
 37 38  2  0
 38 39  1  0
 38 40  1  0
 40 41  1  0
 40 42  2  0
 42 43  1  0
 29 44  1  0
 44 45  1  0
 45 46  1  0
 45 47  1  0
 44 48  2  0
 48 49  1  0
 14 50  2  0
 50 51  1  0
  6 52  1  0
 52 53  1  0
 52 54  2  0
 54 55  1  0
 54  2  1  0
 50  7  1  0
 48 15  1  0
 25 16  1  0
 42 34  1  0
M  CHG  1  48   1
M  END
>  <score>  (96) 
5.78752

$$$$

     RDKit          3D

 47 50  0  0  0  0  0  0  0  0999 V2000
    9.5352   -3.6743    2.8871 H   0  0  0  0  0  0  0  0  0  0  0  0
   10.2117   -3.0094    3.1296 O   0  0  0  0  0  0  0  0  0  0  0  0
   11.4438   -3.1565    2.4046 N   0  0  0  0  0  0  0  0  0  0  0  0
   12.2460   -3.5097    2.9152 H   0  0  0  0  0  0  0  0  0  0  0  0
   11.7912   -2.5350    1.2230 C   0  0  0  0  0  0  0  0  0  0  0  0
   10.9666   -2.0107    0.4877 O   0  0  0  0  0  0  0  0  0  0  0  0
   13.0527   -2.7266    0.7429 N   0  0  0  0  0  0  0  0  0  0  0  0
   13.2943   -3.0233   -0.5654 C   0  0  0  0  0  0  0  0  0  0  0  0
   12.3856   -3.1269   -1.3886 O   0  0  0  0  0  0  0  0  0  0  0  0
   14.8101   -3.2313   -0.7487 C   0  0  1  0  0  0  0  0  0  0  0  0
   15.1779   -4.6844   -1.0571 C   0  0  0  0  0  0  0  0  0  0  0  0
   16.3983   -5.2096   -0.6035 C   0  0  0  0  0  0  0  0  0  0  0  0
   17.0752   -4.5623   -0.0545 H   0  0  0  0  0  0  0  0  0  0  0  0
   16.7310   -6.5547   -0.7997 C   0  0  0  0  0  0  0  0  0  0  0  0
   17.6723   -6.9384   -0.4138 H   0  0  0  0  0  0  0  0  0  0  0  0
   15.8482   -7.3985   -1.4803 C   0  0  0  0  0  0  0  0  0  0  0  0
   16.1046   -8.4452   -1.6226 H   0  0  0  0  0  0  0  0  0  0  0  0
   14.6389   -6.8898   -1.9678 C   0  0  0  0  0  0  0  0  0  0  0  0
   13.9569   -7.5560   -2.4906 H   0  0  0  0  0  0  0  0  0  0  0  0
   14.3043   -5.5416   -1.7569 C   0  0  0  0  0  0  0  0  0  0  0  0
   13.3495   -5.1747   -2.1218 H   0  0  0  0  0  0  0  0  0  0  0  0
   15.3720   -2.2222   -1.7504 C   0  0  0  0  0  0  0  0  0  0  0  0
   15.9241   -2.6244   -2.9794 C   0  0  0  0  0  0  0  0  0  0  0  0
   15.9903   -3.6815   -3.2184 H   0  0  0  0  0  0  0  0  0  0  0  0
   16.4078   -1.6808   -3.8986 C   0  0  0  0  0  0  0  0  0  0  0  0
   16.8596   -2.0064   -4.8335 H   0  0  0  0  0  0  0  0  0  0  0  0
   16.3324   -0.3148   -3.6046 C   0  0  0  0  0  0  0  0  0  0  0  0
   16.7067    0.4223   -4.3089 H   0  0  0  0  0  0  0  0  0  0  0  0
   15.7744    0.1225   -2.3982 C   0  0  0  0  0  0  0  0  0  0  0  0
   15.7045    1.5635   -2.0970 C   0  0  0  0  0  0  0  0  0  0  0  0
   15.8890    2.5331   -3.0978 C   0  0  0  0  0  0  0  0  0  0  0  0
   16.0857    2.1977   -4.1123 H   0  0  0  0  0  0  0  0  0  0  0  0
   15.8348    3.8578   -2.8620 N   0  0  0  0  0  0  0  0  0  0  0  0
   15.5838    4.2699   -1.6101 C   0  0  0  0  0  0  0  0  0  0  0  0
   15.5416    5.3354   -1.4063 H   0  0  0  0  0  0  0  0  0  0  0  0
   15.3893    3.3735   -0.5584 C   0  0  0  0  0  0  0  0  0  0  0  0
   15.1957    3.7546    0.4359 H   0  0  0  0  0  0  0  0  0  0  0  0
   15.4636    2.0032   -0.7972 C   0  0  0  0  0  0  0  0  0  0  0  0
   15.3495    1.2740   -0.0020 H   0  0  0  0  0  0  0  0  0  0  0  0
   15.2960   -0.8394   -1.4898 C   0  0  0  0  0  0  0  0  0  0  0  0
   14.8604   -0.4913   -0.5600 H   0  0  0  0  0  0  0  0  0  0  0  0
   15.2283   -2.9195    0.6366 N   0  0  0  0  0  4  0  0  0  0  0  0
   16.1986   -2.9703    0.9476 H   0  0  0  0  0  0  0  0  0  0  0  0
   14.2274   -2.7119    1.4261 C   0  0  0  0  0  0  0  0  0  0  0  0
   14.3629   -2.4590    2.7555 N   0  0  0  0  0  0  0  0  0  0  0  0
   15.3055   -2.2785    3.0963 H   0  0  0  0  0  0  0  0  0  0  0  0
   13.5831   -2.0005    3.2215 H   0  0  0  0  0  0  0  0  0  0  0  0
  1  2  1  0
  2  3  1  0
  3  4  1  0
  3  5  1  0
  5  6  2  0
  5  7  1  0
  7  8  1  0
  8  9  2  0
  8 10  1  0
 10 11  1  6
 11 12  2  0
 12 13  1  0
 12 14  1  0
 14 15  1  0
 14 16  2  0
 16 17  1  0
 16 18  1  0
 18 19  1  0
 18 20  2  0
 20 21  1  0
 10 22  1  0
 22 23  2  0
 23 24  1  0
 23 25  1  0
 25 26  1  0
 25 27  2  0
 27 28  1  0
 27 29  1  0
 29 30  1  0
 30 31  2  0
 31 32  1  0
 31 33  1  0
 33 34  2  0
 34 35  1  0
 34 36  1  0
 36 37  1  0
 36 38  2  0
 38 39  1  0
 29 40  2  0
 40 41  1  0
 10 42  1  0
 42 43  1  0
 42 44  2  0
 44 45  1  0
 45 46  1  0
 45 47  1  0
 44  7  1  0
 20 11  1  0
 40 22  1  0
 38 30  1  0
M  CHG  1  42   1
M  END
>  <score>  (97) 
5.78447

$$$$

     RDKit          3D

 54 58  0  0  0  0  0  0  0  0999 V2000
   15.5362    5.3323   -1.4108 H   0  0  0  0  0  0  0  0  0  0  0  0
   15.5834    4.2660   -1.6124 C   0  0  0  0  0  0  0  0  0  0  0  0
   15.8384    3.8541   -2.8642 N   0  0  0  0  0  0  0  0  0  0  0  0
   15.8963    2.5300   -3.0988 C   0  0  0  0  0  0  0  0  0  0  0  0
   16.0912    2.2015   -4.1150 H   0  0  0  0  0  0  0  0  0  0  0  0
   15.7100    1.5597   -2.0982 C   0  0  0  0  0  0  0  0  0  0  0  0
   15.7806    0.1209   -2.3982 C   0  0  0  0  0  0  0  0  0  0  0  0
   16.3356   -0.3149   -3.6063 C   0  0  0  0  0  0  0  0  0  0  0  0
   16.7078    0.4178   -4.3172 H   0  0  0  0  0  0  0  0  0  0  0  0
   16.4137   -1.6799   -3.8946 C   0  0  0  0  0  0  0  0  0  0  0  0
   16.8553   -2.0030   -4.8325 H   0  0  0  0  0  0  0  0  0  0  0  0
   15.9320   -2.6205   -2.9757 C   0  0  0  0  0  0  0  0  0  0  0  0
   15.9917   -3.6772   -3.2123 H   0  0  0  0  0  0  0  0  0  0  0  0
   15.3787   -2.2181   -1.7500 C   0  0  0  0  0  0  0  0  0  0  0  0
   14.8075   -3.2259   -0.7601 C   0  0  2  0  0  0  0  0  0  0  0  0
   15.1710   -4.6783   -1.0605 C   0  0  0  0  0  0  0  0  0  0  0  0
   16.3932   -5.2020   -0.6037 C   0  0  0  0  0  0  0  0  0  0  0  0
   17.0709   -4.5520   -0.0574 H   0  0  0  0  0  0  0  0  0  0  0  0
   16.7251   -6.5435   -0.8030 C   0  0  0  0  0  0  0  0  0  0  0  0
   17.6664   -6.9237   -0.4148 H   0  0  0  0  0  0  0  0  0  0  0  0
   15.8404   -7.3864   -1.4802 C   0  0  0  0  0  0  0  0  0  0  0  0
   16.1017   -8.4300   -1.6278 H   0  0  0  0  0  0  0  0  0  0  0  0
   14.6297   -6.8783   -1.9671 C   0  0  0  0  0  0  0  0  0  0  0  0
   13.9497   -7.5422   -2.4935 H   0  0  0  0  0  0  0  0  0  0  0  0
   14.2951   -5.5324   -1.7578 C   0  0  0  0  0  0  0  0  0  0  0  0
   13.3393   -5.1631   -2.1210 H   0  0  0  0  0  0  0  0  0  0  0  0
   13.2966   -2.9836   -0.5834 C   0  0  0  0  0  0  0  0  0  0  0  0
   12.3932   -3.0714   -1.4128 O   0  0  0  0  0  0  0  0  0  0  0  0
   13.0613   -2.6889    0.7248 N   0  0  0  0  0  0  0  0  0  0  0  0
   11.8345   -2.3492    1.2164 C   0  0  0  0  0  0  0  0  0  0  0  0
   11.0595   -1.8185    0.4340 O   0  0  0  0  0  0  0  0  0  0  0  0
   11.3152   -3.0400    2.4002 C   0  0  0  0  0  0  0  0  0  0  0  0
   10.2087   -2.5781    3.1314 C   0  0  0  0  0  0  0  0  0  0  0  0
    9.7681   -1.6141    2.9127 H   0  0  0  0  0  0  0  0  0  0  0  0
    9.6518   -3.3570    4.1470 C   0  0  0  0  0  0  0  0  0  0  0  0
    8.8000   -2.9899    4.7073 H   0  0  0  0  0  0  0  0  0  0  0  0
   10.1859   -4.6123    4.4350 C   0  0  0  0  0  0  0  0  0  0  0  0
    9.7169   -5.2312    5.1868 H   0  0  0  0  0  0  0  0  0  0  0  0
   11.3296   -5.0434    3.7690 C   0  0  0  0  0  0  0  0  0  0  0  0
   11.8044   -5.9874    3.9851 H   0  0  0  0  0  0  0  0  0  0  0  0
   11.8915   -4.2585    2.7742 C   0  0  0  0  0  0  0  0  0  0  0  0
   12.7727   -4.6220    2.2583 H   0  0  0  0  0  0  0  0  0  0  0  0
   14.2315   -2.6975    1.4142 C   0  0  0  0  0  0  0  0  0  0  0  0
   14.3581   -2.4460    2.7456 N   0  0  0  0  0  0  0  0  0  0  0  0
   15.2995   -2.2751    3.1086 H   0  0  0  0  0  0  0  0  0  0  0  0
   13.5514   -2.0682    3.2411 H   0  0  0  0  0  0  0  0  0  0  0  0
   15.2277   -2.9265    0.6288 N   0  0  0  0  0  4  0  0  0  0  0  0
   16.1973   -2.9727    0.9398 H   0  0  0  0  0  0  0  0  0  0  0  0
   15.3026   -0.8371   -1.4854 C   0  0  0  0  0  0  0  0  0  0  0  0
   14.8600   -0.4927   -0.5551 H   0  0  0  0  0  0  0  0  0  0  0  0
   15.4692    1.9994   -0.7978 C   0  0  0  0  0  0  0  0  0  0  0  0
   15.3533    1.2778    0.0052 H   0  0  0  0  0  0  0  0  0  0  0  0
   15.3941    3.3691   -0.5578 C   0  0  0  0  0  0  0  0  0  0  0  0
   15.2013    3.7472    0.4395 H   0  0  0  0  0  0  0  0  0  0  0  0
  1  2  1  0
  2  3  2  0
  3  4  1  0
  4  5  1  0
  4  6  2  0
  6  7  1  0
  7  8  2  0
  8  9  1  0
  8 10  1  0
 10 11  1  0
 10 12  2  0
 12 13  1  0
 12 14  1  0
 15 14  1  6
 15 16  1  0
 16 17  2  0
 17 18  1  0
 17 19  1  0
 19 20  1  0
 19 21  2  0
 21 22  1  0
 21 23  1  0
 23 24  1  0
 23 25  2  0
 25 26  1  0
 15 27  1  0
 27 28  2  0
 27 29  1  0
 29 30  1  0
 30 31  2  0
 30 32  1  0
 32 33  2  0
 33 34  1  0
 33 35  1  0
 35 36  1  0
 35 37  2  0
 37 38  1  0
 37 39  1  0
 39 40  1  0
 39 41  2  0
 41 42  1  0
 29 43  1  0
 43 44  1  0
 44 45  1  0
 44 46  1  0
 43 47  2  0
 47 48  1  0
 14 49  2  0
 49 50  1  0
  6 51  1  0
 51 52  1  0
 51 53  2  0
 53 54  1  0
 53  2  1  0
 49  7  1  0
 47 15  1  0
 25 16  1  0
 41 32  1  0
M  CHG  1  47   1
M  END
>  <score>  (98) 
5.78301

$$$$

     RDKit          3D

 49 52  0  0  0  0  0  0  0  0999 V2000
   15.5556    5.3538   -1.3944 H   0  0  0  0  0  0  0  0  0  0  0  0
   15.5870    4.2871   -1.6037 C   0  0  0  0  0  0  0  0  0  0  0  0
   15.8230    3.8710   -2.8574 N   0  0  0  0  0  0  0  0  0  0  0  0
   15.8764    2.5448   -3.0931 C   0  0  0  0  0  0  0  0  0  0  0  0
   16.0660    2.2075   -4.1067 H   0  0  0  0  0  0  0  0  0  0  0  0
   15.6944    1.5706   -2.0975 C   0  0  0  0  0  0  0  0  0  0  0  0
   15.7778    0.1250   -2.4099 C   0  0  0  0  0  0  0  0  0  0  0  0
   16.3354   -0.3156   -3.6160 C   0  0  0  0  0  0  0  0  0  0  0  0
   16.7157    0.4252   -4.3108 H   0  0  0  0  0  0  0  0  0  0  0  0
   16.4257   -1.6824   -3.9134 C   0  0  0  0  0  0  0  0  0  0  0  0
   16.8657   -2.0032   -4.8511 H   0  0  0  0  0  0  0  0  0  0  0  0
   15.9492   -2.6342   -3.0057 C   0  0  0  0  0  0  0  0  0  0  0  0
   16.0041   -3.6934   -3.2443 H   0  0  0  0  0  0  0  0  0  0  0  0
   15.3943   -2.2274   -1.7855 C   0  0  0  0  0  0  0  0  0  0  0  0
   14.8379   -3.2310   -0.7851 C   0  0  2  0  0  0  0  0  0  0  0  0
   15.1885   -4.6995   -1.0743 C   0  0  0  0  0  0  0  0  0  0  0  0
   16.4020   -5.2280   -0.6066 C   0  0  0  0  0  0  0  0  0  0  0  0
   17.0802   -4.5797   -0.0602 H   0  0  0  0  0  0  0  0  0  0  0  0
   16.7375   -6.5737   -0.8017 C   0  0  0  0  0  0  0  0  0  0  0  0
   17.6751   -6.9602   -0.4125 H   0  0  0  0  0  0  0  0  0  0  0  0
   15.8581   -7.4230   -1.4789 C   0  0  0  0  0  0  0  0  0  0  0  0
   16.1081   -8.4723   -1.6149 H   0  0  0  0  0  0  0  0  0  0  0  0
   14.6470   -6.9200   -1.9641 C   0  0  0  0  0  0  0  0  0  0  0  0
   13.9625   -7.5853   -2.4850 H   0  0  0  0  0  0  0  0  0  0  0  0
   14.3141   -5.5678   -1.7649 C   0  0  0  0  0  0  0  0  0  0  0  0
   13.3603   -5.2005   -2.1316 H   0  0  0  0  0  0  0  0  0  0  0  0
   13.3252   -3.0029   -0.6211 C   0  0  0  0  0  0  0  0  0  0  0  0
   12.4586   -3.1304   -1.4837 O   0  0  0  0  0  0  0  0  0  0  0  0
   13.0453   -2.6275    0.6840 N   0  0  0  0  0  0  0  0  0  0  0  0
   11.7032   -2.6139    1.3245 C   0  0  0  0  0  0  0  0  0  0  0  0
   11.6901   -1.8532    2.1164 H   0  0  0  0  0  0  0  0  0  0  0  0
   10.9367   -2.3227    0.5959 H   0  0  0  0  0  0  0  0  0  0  0  0
   11.2584   -3.9542    1.9507 C   0  0  0  0  0  0  0  0  0  0  0  0
   10.9288   -4.9387    1.3072 O   0  0  0  0  0  0  0  0  0  0  0  0
   11.1587   -4.1154    3.2981 N   0  0  0  0  0  0  0  0  0  0  0  0
   11.5541   -3.4164    3.9213 H   0  0  0  0  0  0  0  0  0  0  0  0
   11.0813   -5.0811    3.5875 H   0  0  0  0  0  0  0  0  0  0  0  0
   14.2631   -2.5909    1.3476 C   0  0  0  0  0  0  0  0  0  0  0  0
   14.4195   -2.3419    2.6798 N   0  0  0  0  0  0  0  0  0  0  0  0
   15.3562   -2.3435    3.0826 H   0  0  0  0  0  0  0  0  0  0  0  0
   13.6083   -2.1088    3.2477 H   0  0  0  0  0  0  0  0  0  0  0  0
   15.2669   -2.8734    0.5851 N   0  0  0  0  0  4  0  0  0  0  0  0
   16.2307   -2.9616    0.9192 H   0  0  0  0  0  0  0  0  0  0  0  0
   15.3126   -0.8454   -1.5079 C   0  0  0  0  0  0  0  0  0  0  0  0
   14.8695   -0.5121   -0.5744 H   0  0  0  0  0  0  0  0  0  0  0  0
   15.4434    2.0144   -0.7988 C   0  0  0  0  0  0  0  0  0  0  0  0
   15.3288    1.2823   -0.0063 H   0  0  0  0  0  0  0  0  0  0  0  0
   15.3814    3.3885   -0.5552 C   0  0  0  0  0  0  0  0  0  0  0  0
   15.1799    3.7739    0.4371 H   0  0  0  0  0  0  0  0  0  0  0  0
  1  2  1  0
  2  3  2  0
  3  4  1  0
  4  5  1  0
  4  6  2  0
  6  7  1  0
  7  8  2  0
  8  9  1  0
  8 10  1  0
 10 11  1  0
 10 12  2  0
 12 13  1  0
 12 14  1  0
 15 14  1  6
 15 16  1  0
 16 17  2  0
 17 18  1  0
 17 19  1  0
 19 20  1  0
 19 21  2  0
 21 22  1  0
 21 23  1  0
 23 24  1  0
 23 25  2  0
 25 26  1  0
 15 27  1  0
 27 28  2  0
 27 29  1  0
 29 30  1  0
 30 31  1  0
 30 32  1  0
 30 33  1  0
 33 34  2  0
 33 35  1  0
 35 36  1  0
 35 37  1  0
 29 38  1  0
 38 39  1  0
 39 40  1  0
 39 41  1  0
 38 42  2  0
 42 43  1  0
 14 44  2  0
 44 45  1  0
  6 46  1  0
 46 47  1  0
 46 48  2  0
 48 49  1  0
 48  2  1  0
 44  7  1  0
 42 15  1  0
 25 16  1  0
M  CHG  1  42   1
M  END
>  <score>  (99) 
5.77943

$$$$

     RDKit          3D

 59 63  0  0  0  0  0  0  0  0999 V2000
   15.5355    5.3339   -1.4160 H   0  0  0  0  0  0  0  0  0  0  0  0
   15.5999    4.2675   -1.6110 C   0  0  0  0  0  0  0  0  0  0  0  0
   15.8487    3.8503   -2.8619 N   0  0  0  0  0  0  0  0  0  0  0  0
   15.9185    2.5253   -3.0898 C   0  0  0  0  0  0  0  0  0  0  0  0
   16.1107    2.1936   -4.1053 H   0  0  0  0  0  0  0  0  0  0  0  0
   15.7408    1.5582   -2.0851 C   0  0  0  0  0  0  0  0  0  0  0  0
   15.8001    0.1166   -2.3851 C   0  0  0  0  0  0  0  0  0  0  0  0
   16.3348   -0.3407   -3.5961 C   0  0  0  0  0  0  0  0  0  0  0  0
   16.7124    0.3751   -4.3203 H   0  0  0  0  0  0  0  0  0  0  0  0
   16.3931   -1.7093   -3.8712 C   0  0  0  0  0  0  0  0  0  0  0  0
   16.8197   -2.0435   -4.8121 H   0  0  0  0  0  0  0  0  0  0  0  0
   15.9077   -2.6353   -2.9381 C   0  0  0  0  0  0  0  0  0  0  0  0
   15.9616   -3.6942   -3.1736 H   0  0  0  0  0  0  0  0  0  0  0  0
   15.3609   -2.2098   -1.7115 C   0  0  0  0  0  0  0  0  0  0  0  0
   14.7773   -3.1937   -0.6947 C   0  0  2  0  0  0  0  0  0  0  0  0
   15.1539   -4.6422   -1.0012 C   0  0  0  0  0  0  0  0  0  0  0  0
   16.3857   -5.1654   -0.5682 C   0  0  0  0  0  0  0  0  0  0  0  0
   17.0791   -4.5253   -0.0297 H   0  0  0  0  0  0  0  0  0  0  0  0
   16.7234   -6.5031   -0.8016 C   0  0  0  0  0  0  0  0  0  0  0  0
   17.6733   -6.8895   -0.4411 H   0  0  0  0  0  0  0  0  0  0  0  0
   15.8359   -7.3361   -1.4900 C   0  0  0  0  0  0  0  0  0  0  0  0
   16.0936   -8.3767   -1.6638 H   0  0  0  0  0  0  0  0  0  0  0  0
   14.6218   -6.8231   -1.9599 C   0  0  0  0  0  0  0  0  0  0  0  0
   13.9381   -7.4662   -2.5070 H   0  0  0  0  0  0  0  0  0  0  0  0
   14.2853   -5.4835   -1.7203 C   0  0  0  0  0  0  0  0  0  0  0  0
   13.3375   -5.0998   -2.0868 H   0  0  0  0  0  0  0  0  0  0  0  0
   13.2557   -2.9712   -0.5237 C   0  0  0  0  0  0  0  0  0  0  0  0
   12.3622   -3.1871   -1.3346 O   0  0  0  0  0  0  0  0  0  0  0  0
   12.9966   -2.6151    0.7667 N   0  0  0  0  0  0  0  0  0  0  0  0
   11.7271   -2.6255    1.2470 C   0  0  0  0  0  0  0  0  0  0  0  0
   10.8390   -2.2708    0.4928 O   0  0  0  0  0  0  0  0  0  0  0  0
   11.5018   -3.1535    2.4955 N   0  0  0  0  0  0  0  0  0  0  0  0
   12.3180   -3.2494    3.1000 H   0  0  0  0  0  0  0  0  0  0  0  0
   10.1828   -3.5117    3.0257 C   0  0  0  0  0  0  0  0  0  0  0  0
   10.2568   -4.4311    3.6239 H   0  0  0  0  0  0  0  0  0  0  0  0
    9.6504   -2.3869    3.8925 C   0  0  0  0  0  0  0  0  0  0  0  0
    9.0342   -2.8098    4.6879 H   0  0  0  0  0  0  0  0  0  0  0  0
   10.4337   -1.8047    4.3733 H   0  0  0  0  0  0  0  0  0  0  0  0
    8.8169   -1.5382    2.9482 C   0  0  0  0  0  0  0  0  0  0  0  0
    8.1330   -0.8632    3.4779 H   0  0  0  0  0  0  0  0  0  0  0  0
    9.4669   -0.9504    2.2925 H   0  0  0  0  0  0  0  0  0  0  0  0
    8.1172   -2.5499    2.0691 C   0  0  0  0  0  0  0  0  0  0  0  0
    7.8832   -2.0923    1.1031 H   0  0  0  0  0  0  0  0  0  0  0  0
    7.1890   -2.8980    2.5323 H   0  0  0  0  0  0  0  0  0  0  0  0
    9.1080   -3.7125    1.9372 C   0  0  0  0  0  0  0  0  0  0  0  0
    9.5349   -3.7369    0.9315 H   0  0  0  0  0  0  0  0  0  0  0  0
    8.5948   -4.6633    2.0938 H   0  0  0  0  0  0  0  0  0  0  0  0
   14.1544   -2.6541    1.4655 C   0  0  0  0  0  0  0  0  0  0  0  0
   14.2889   -2.4350    2.8006 N   0  0  0  0  0  0  0  0  0  0  0  0
   13.5227   -1.9582    3.2696 H   0  0  0  0  0  0  0  0  0  0  0  0
   15.2397   -2.2603    3.1290 H   0  0  0  0  0  0  0  0  0  0  0  0
   15.1685   -2.8845    0.7000 N   0  0  0  0  0  4  0  0  0  0  0  0
   16.1186   -3.0235    1.0493 H   0  0  0  0  0  0  0  0  0  0  0  0
   15.3148   -0.8266   -1.4618 C   0  0  0  0  0  0  0  0  0  0  0  0
   14.8841   -0.4714   -0.5315 H   0  0  0  0  0  0  0  0  0  0  0  0
   15.5012    2.0049   -0.7841 C   0  0  0  0  0  0  0  0  0  0  0  0
   15.3892    1.2909    0.0267 H   0  0  0  0  0  0  0  0  0  0  0  0
   15.4233    3.3756   -0.5509 C   0  0  0  0  0  0  0  0  0  0  0  0
   15.2292    3.7542    0.4455 H   0  0  0  0  0  0  0  0  0  0  0  0
  1  2  1  0
  2  3  2  0
  3  4  1  0
  4  5  1  0
  4  6  2  0
  6  7  1  0
  7  8  2  0
  8  9  1  0
  8 10  1  0
 10 11  1  0
 10 12  2  0
 12 13  1  0
 12 14  1  0
 15 14  1  6
 15 16  1  0
 16 17  2  0
 17 18  1  0
 17 19  1  0
 19 20  1  0
 19 21  2  0
 21 22  1  0
 21 23  1  0
 23 24  1  0
 23 25  2  0
 25 26  1  0
 15 27  1  0
 27 28  2  0
 27 29  1  0
 29 30  1  0
 30 31  2  0
 30 32  1  0
 32 33  1  0
 32 34  1  0
 34 35  1  0
 34 36  1  0
 36 37  1  0
 36 38  1  0
 36 39  1  0
 39 40  1  0
 39 41  1  0
 39 42  1  0
 42 43  1  0
 42 44  1  0
 42 45  1  0
 45 46  1  0
 45 47  1  0
 29 48  1  0
 48 49  1  0
 49 50  1  0
 49 51  1  0
 48 52  2  0
 52 53  1  0
 14 54  2  0
 54 55  1  0
  6 56  1  0
 56 57  1  0
 56 58  2  0
 58 59  1  0
 58  2  1  0
 54  7  1  0
 52 15  1  0
 25 16  1  0
 45 34  1  0
M  CHG  1  52   1
M  END
>  <score>  (100) 
5.77574

$$$$

     RDKit          3D

 44 47  0  0  0  0  0  0  0  0999 V2000
   15.5714    5.3727   -1.3881 H   0  0  0  0  0  0  0  0  0  0  0  0
   15.5849    4.3040   -1.5942 C   0  0  0  0  0  0  0  0  0  0  0  0
   15.8207    3.8823   -2.8460 N   0  0  0  0  0  0  0  0  0  0  0  0
   15.8620    2.5550   -3.0862 C   0  0  0  0  0  0  0  0  0  0  0  0
   16.0393    2.2341   -4.1072 H   0  0  0  0  0  0  0  0  0  0  0  0
   15.6831    1.5723   -2.0944 C   0  0  0  0  0  0  0  0  0  0  0  0
   15.7740    0.1201   -2.4110 C   0  0  0  0  0  0  0  0  0  0  0  0
   16.3483   -0.3223   -3.6137 C   0  0  0  0  0  0  0  0  0  0  0  0
   16.7311    0.3982   -4.3287 H   0  0  0  0  0  0  0  0  0  0  0  0
   16.4319   -1.6892   -3.9130 C   0  0  0  0  0  0  0  0  0  0  0  0
   16.8666   -2.0093   -4.8549 H   0  0  0  0  0  0  0  0  0  0  0  0
   15.9476   -2.6446   -3.0125 C   0  0  0  0  0  0  0  0  0  0  0  0
   16.0075   -3.7008   -3.2650 H   0  0  0  0  0  0  0  0  0  0  0  0
   15.3885   -2.2436   -1.7900 C   0  0  0  0  0  0  0  0  0  0  0  0
   14.8326   -3.2534   -0.7899 C   0  0  2  0  0  0  0  0  0  0  0  0
   15.1770   -4.7216   -1.0759 C   0  0  0  0  0  0  0  0  0  0  0  0
   16.3908   -5.2441   -0.6077 C   0  0  0  0  0  0  0  0  0  0  0  0
   17.0699   -4.5922   -0.0674 H   0  0  0  0  0  0  0  0  0  0  0  0
   16.7290   -6.5859   -0.8006 C   0  0  0  0  0  0  0  0  0  0  0  0
   17.6744   -6.9560   -0.4178 H   0  0  0  0  0  0  0  0  0  0  0  0
   15.8541   -7.4436   -1.4708 C   0  0  0  0  0  0  0  0  0  0  0  0
   16.1235   -8.4882   -1.6113 H   0  0  0  0  0  0  0  0  0  0  0  0
   14.6428   -6.9441   -1.9605 C   0  0  0  0  0  0  0  0  0  0  0  0
   13.9723   -7.6163   -2.4884 H   0  0  0  0  0  0  0  0  0  0  0  0
   14.3035   -5.5933   -1.7682 C   0  0  0  0  0  0  0  0  0  0  0  0
   13.3543   -5.2392   -2.1621 H   0  0  0  0  0  0  0  0  0  0  0  0
   13.3155   -3.0426   -0.6242 C   0  0  0  0  0  0  0  0  0  0  0  0
   12.4727   -3.1068   -1.5217 O   0  0  0  0  0  0  0  0  0  0  0  0
   13.0143   -2.7101    0.6990 N   0  0  0  0  0  0  0  0  0  0  0  0
   11.6893   -2.6403    1.3227 N   0  0  0  0  0  0  0  0  0  0  0  0
   10.9059   -2.6632    0.6603 H   0  0  0  0  0  0  0  0  0  0  0  0
   11.5942   -1.8892    2.0204 H   0  0  0  0  0  0  0  0  0  0  0  0
   14.2447   -2.6477    1.3611 C   0  0  0  0  0  0  0  0  0  0  0  0
   14.4232   -2.3426    2.6948 N   0  0  0  0  0  0  0  0  0  0  0  0
   13.6026   -2.1476    3.2682 H   0  0  0  0  0  0  0  0  0  0  0  0
   15.3552   -2.3511    3.1116 H   0  0  0  0  0  0  0  0  0  0  0  0
   15.2527   -2.8949    0.5829 N   0  0  0  0  0  4  0  0  0  0  0  0
   16.2252   -2.9087    0.8943 H   0  0  0  0  0  0  0  0  0  0  0  0
   15.3025   -0.8590   -1.5163 C   0  0  0  0  0  0  0  0  0  0  0  0
   14.8678   -0.5342   -0.5776 H   0  0  0  0  0  0  0  0  0  0  0  0
   15.4280    2.0288   -0.7955 C   0  0  0  0  0  0  0  0  0  0  0  0
   15.2896    1.3214    0.0127 H   0  0  0  0  0  0  0  0  0  0  0  0
   15.3687    3.4043   -0.5498 C   0  0  0  0  0  0  0  0  0  0  0  0
   15.1672    3.7881    0.4443 H   0  0  0  0  0  0  0  0  0  0  0  0
  1  2  1  0
  2  3  2  0
  3  4  1  0
  4  5  1  0
  4  6  2  0
  6  7  1  0
  7  8  2  0
  8  9  1  0
  8 10  1  0
 10 11  1  0
 10 12  2  0
 12 13  1  0
 12 14  1  0
 15 14  1  6
 15 16  1  0
 16 17  2  0
 17 18  1  0
 17 19  1  0
 19 20  1  0
 19 21  2  0
 21 22  1  0
 21 23  1  0
 23 24  1  0
 23 25  2  0
 25 26  1  0
 15 27  1  0
 27 28  2  0
 27 29  1  0
 29 30  1  0
 30 31  1  0
 30 32  1  0
 29 33  1  0
 33 34  1  0
 34 35  1  0
 34 36  1  0
 33 37  2  0
 37 38  1  0
 14 39  2  0
 39 40  1  0
  6 41  1  0
 41 42  1  0
 41 43  2  0
 43 44  1  0
 43  2  1  0
 39  7  1  0
 37 15  1  0
 25 16  1  0
M  CHG  1  37   1
M  END
>  <score>  (101) 
5.77458

$$$$

     RDKit          3D

 59 63  0  0  0  0  0  0  0  0999 V2000
   15.5323    5.3254   -1.4106 H   0  0  0  0  0  0  0  0  0  0  0  0
   15.5833    4.2602   -1.6152 C   0  0  0  0  0  0  0  0  0  0  0  0
   15.8370    3.8507   -2.8676 N   0  0  0  0  0  0  0  0  0  0  0  0
   15.8974    2.5263   -3.1018 C   0  0  0  0  0  0  0  0  0  0  0  0
   16.1018    2.1853   -4.1127 H   0  0  0  0  0  0  0  0  0  0  0  0
   15.7114    1.5586   -2.1016 C   0  0  0  0  0  0  0  0  0  0  0  0
   15.7750    0.1235   -2.4024 C   0  0  0  0  0  0  0  0  0  0  0  0
   16.3280   -0.3098   -3.6096 C   0  0  0  0  0  0  0  0  0  0  0  0
   16.6977    0.4370   -4.3054 H   0  0  0  0  0  0  0  0  0  0  0  0
   16.4069   -1.6735   -3.9054 C   0  0  0  0  0  0  0  0  0  0  0  0
   16.8591   -1.9976   -4.8385 H   0  0  0  0  0  0  0  0  0  0  0  0
   15.9292   -2.6183   -2.9886 C   0  0  0  0  0  0  0  0  0  0  0  0
   15.9965   -3.6777   -3.2143 H   0  0  0  0  0  0  0  0  0  0  0  0
   15.3818   -2.2158   -1.7620 C   0  0  0  0  0  0  0  0  0  0  0  0
   14.8392   -3.2272   -0.7622 C   0  0  2  0  0  0  0  0  0  0  0  0
   15.2095   -4.6789   -1.0576 C   0  0  0  0  0  0  0  0  0  0  0  0
   16.4246   -5.2096   -0.5988 C   0  0  0  0  0  0  0  0  0  0  0  0
   17.1005   -4.5622   -0.0483 H   0  0  0  0  0  0  0  0  0  0  0  0
   16.7443   -6.5567   -0.8005 C   0  0  0  0  0  0  0  0  0  0  0  0
   17.6780   -6.9517   -0.4100 H   0  0  0  0  0  0  0  0  0  0  0  0
   15.8550   -7.3926   -1.4837 C   0  0  0  0  0  0  0  0  0  0  0  0
   16.0956   -8.4426   -1.6244 H   0  0  0  0  0  0  0  0  0  0  0  0
   14.6475   -6.8760   -1.9657 C   0  0  0  0  0  0  0  0  0  0  0  0
   13.9523   -7.5329   -2.4811 H   0  0  0  0  0  0  0  0  0  0  0  0
   14.3260   -5.5293   -1.7496 C   0  0  0  0  0  0  0  0  0  0  0  0
   13.3705   -5.1496   -2.1006 H   0  0  0  0  0  0  0  0  0  0  0  0
   13.3177   -3.0483   -0.6040 C   0  0  0  0  0  0  0  0  0  0  0  0
   12.4388   -3.2700   -1.4354 O   0  0  0  0  0  0  0  0  0  0  0  0
   13.0410   -2.6359    0.6811 N   0  0  0  0  0  0  0  0  0  0  0  0
   11.7310   -2.7781    1.3036 C   0  0  0  0  0  0  0  0  0  0  0  0
   11.6338   -2.0967    2.1577 H   0  0  0  0  0  0  0  0  0  0  0  0
   10.9208   -2.5478    0.6042 H   0  0  0  0  0  0  0  0  0  0  0  0
   11.5838   -4.1902    1.7673 C   0  0  0  0  0  0  0  0  0  0  0  0
   11.6578   -4.4268    3.1358 C   0  0  0  0  0  0  0  0  0  0  0  0
   11.8111   -3.5898    3.8092 H   0  0  0  0  0  0  0  0  0  0  0  0
   11.5534   -5.7218    3.6267 C   0  0  0  0  0  0  0  0  0  0  0  0
   11.5879   -5.8540    4.7061 H   0  0  0  0  0  0  0  0  0  0  0  0
   11.4261   -6.7971    2.7251 C   0  0  0  0  0  0  0  0  0  0  0  0
   11.4034   -7.8197    3.0772 H   0  0  0  0  0  0  0  0  0  0  0  0
   11.3286   -6.5739    1.3396 C   0  0  0  0  0  0  0  0  0  0  0  0
   11.1706   -7.5540    0.3882 O   0  0  0  0  0  0  0  0  0  0  0  0
   11.1516   -8.9159    0.8374 C   0  0  0  0  0  0  0  0  0  0  0  0
   10.3215   -9.1052    1.5236 H   0  0  0  0  0  0  0  0  0  0  0  0
   11.0257   -9.5718   -0.0249 H   0  0  0  0  0  0  0  0  0  0  0  0
   12.0892   -9.1873    1.3298 H   0  0  0  0  0  0  0  0  0  0  0  0
   11.3988   -5.2623    0.8801 C   0  0  0  0  0  0  0  0  0  0  0  0
   11.3335   -5.1078   -0.1913 H   0  0  0  0  0  0  0  0  0  0  0  0
   14.2388   -2.6223    1.3655 C   0  0  0  0  0  0  0  0  0  0  0  0
   14.4039   -2.4204    2.7056 N   0  0  0  0  0  0  0  0  0  0  0  0
   15.3494   -2.2955    3.0618 H   0  0  0  0  0  0  0  0  0  0  0  0
   13.6082   -2.0919    3.2507 H   0  0  0  0  0  0  0  0  0  0  0  0
   15.2547   -2.8716    0.6081 N   0  0  0  0  0  4  0  0  0  0  0  0
   16.2053   -3.0054    0.9605 H   0  0  0  0  0  0  0  0  0  0  0  0
   15.2992   -0.8353   -1.4942 C   0  0  0  0  0  0  0  0  0  0  0  0
   14.8676   -0.4882   -0.5599 H   0  0  0  0  0  0  0  0  0  0  0  0
   15.4770    1.9931   -0.8008 C   0  0  0  0  0  0  0  0  0  0  0  0
   15.3728    1.2547   -0.0111 H   0  0  0  0  0  0  0  0  0  0  0  0
   15.3976    3.3627   -0.5615 C   0  0  0  0  0  0  0  0  0  0  0  0
   15.2053    3.7450    0.4330 H   0  0  0  0  0  0  0  0  0  0  0  0
  1  2  1  0
  2  3  2  0
  3  4  1  0
  4  5  1  0
  4  6  2  0
  6  7  1  0
  7  8  2  0
  8  9  1  0
  8 10  1  0
 10 11  1  0
 10 12  2  0
 12 13  1  0
 12 14  1  0
 15 14  1  6
 15 16  1  0
 16 17  2  0
 17 18  1  0
 17 19  1  0
 19 20  1  0
 19 21  2  0
 21 22  1  0
 21 23  1  0
 23 24  1  0
 23 25  2  0
 25 26  1  0
 15 27  1  0
 27 28  2  0
 27 29  1  0
 29 30  1  0
 30 31  1  0
 30 32  1  0
 30 33  1  0
 33 34  2  0
 34 35  1  0
 34 36  1  0
 36 37  1  0
 36 38  2  0
 38 39  1  0
 38 40  1  0
 40 41  1  0
 41 42  1  0
 42 43  1  0
 42 44  1  0
 42 45  1  0
 40 46  2  0
 46 47  1  0
 29 48  1  0
 48 49  1  0
 49 50  1  0
 49 51  1  0
 48 52  2  0
 52 53  1  0
 14 54  2  0
 54 55  1  0
  6 56  1  0
 56 57  1  0
 56 58  2  0
 58 59  1  0
 58  2  1  0
 54  7  1  0
 52 15  1  0
 25 16  1  0
 46 33  1  0
M  CHG  1  52   1
M  END
>  <score>  (102) 
5.77345

$$$$

     RDKit          3D

 56 59  0  0  0  0  0  0  0  0999 V2000
   15.5539    5.3500   -1.3964 H   0  0  0  0  0  0  0  0  0  0  0  0
   15.5879    4.2840   -1.6042 C   0  0  0  0  0  0  0  0  0  0  0  0
   15.8249    3.8689   -2.8576 N   0  0  0  0  0  0  0  0  0  0  0  0
   15.8772    2.5431   -3.0930 C   0  0  0  0  0  0  0  0  0  0  0  0
   16.0667    2.2095   -4.1082 H   0  0  0  0  0  0  0  0  0  0  0  0
   15.6944    1.5690   -2.0961 C   0  0  0  0  0  0  0  0  0  0  0  0
   15.7778    0.1213   -2.4043 C   0  0  0  0  0  0  0  0  0  0  0  0
   16.3335   -0.3188   -3.6129 C   0  0  0  0  0  0  0  0  0  0  0  0
   16.7140    0.4218   -4.3088 H   0  0  0  0  0  0  0  0  0  0  0  0
   16.4220   -1.6849   -3.9091 C   0  0  0  0  0  0  0  0  0  0  0  0
   16.8653   -2.0026   -4.8471 H   0  0  0  0  0  0  0  0  0  0  0  0
   15.9471   -2.6364   -2.9985 C   0  0  0  0  0  0  0  0  0  0  0  0
   16.0044   -3.6937   -3.2406 H   0  0  0  0  0  0  0  0  0  0  0  0
   15.3929   -2.2340   -1.7734 C   0  0  0  0  0  0  0  0  0  0  0  0
   14.8277   -3.2431   -0.7746 C   0  0  2  0  0  0  0  0  0  0  0  0
   15.1825   -4.7058   -1.0734 C   0  0  0  0  0  0  0  0  0  0  0  0
   16.3995   -5.2311   -0.6090 C   0  0  0  0  0  0  0  0  0  0  0  0
   17.0787   -4.5828   -0.0634 H   0  0  0  0  0  0  0  0  0  0  0  0
   16.7382   -6.5758   -0.8021 C   0  0  0  0  0  0  0  0  0  0  0  0
   17.6772   -6.9612   -0.4134 H   0  0  0  0  0  0  0  0  0  0  0  0
   15.8589   -7.4242   -1.4805 C   0  0  0  0  0  0  0  0  0  0  0  0
   16.1086   -8.4729   -1.6158 H   0  0  0  0  0  0  0  0  0  0  0  0
   14.6470   -6.9233   -1.9674 C   0  0  0  0  0  0  0  0  0  0  0  0
   13.9613   -7.5879   -2.4877 H   0  0  0  0  0  0  0  0  0  0  0  0
   14.3114   -5.5722   -1.7679 C   0  0  0  0  0  0  0  0  0  0  0  0
   13.3594   -5.2017   -2.1343 H   0  0  0  0  0  0  0  0  0  0  0  0
   13.3147   -3.0116   -0.6118 C   0  0  0  0  0  0  0  0  0  0  0  0
   12.4947   -3.1570   -1.5238 O   0  0  0  0  0  0  0  0  0  0  0  0
   13.0314   -2.5954    0.6888 N   0  0  0  0  0  0  0  0  0  0  0  0
   11.7228   -2.2630    1.2484 N   0  0  0  0  0  0  0  0  0  0  0  0
   11.7686   -1.5066    1.9447 H   0  0  0  0  0  0  0  0  0  0  0  0
   10.8683   -3.3371    1.7554 C   0  0  0  0  0  0  0  0  0  0  0  0
   11.5317   -4.0201    2.9469 C   0  0  0  0  0  0  0  0  0  0  0  0
   12.5047   -4.4238    2.6493 H   0  0  0  0  0  0  0  0  0  0  0  0
   10.9093   -4.8362    3.3191 H   0  0  0  0  0  0  0  0  0  0  0  0
   11.6769   -3.3084    3.7564 H   0  0  0  0  0  0  0  0  0  0  0  0
   10.6318   -4.3641    0.6583 C   0  0  0  0  0  0  0  0  0  0  0  0
    9.9238   -5.1224    1.0052 H   0  0  0  0  0  0  0  0  0  0  0  0
   11.5818   -4.8483    0.4018 H   0  0  0  0  0  0  0  0  0  0  0  0
   10.2282   -3.8707   -0.2326 H   0  0  0  0  0  0  0  0  0  0  0  0
    9.5583   -2.6905    2.1743 C   0  0  0  0  0  0  0  0  0  0  0  0
    9.7429   -1.9386    2.9450 H   0  0  0  0  0  0  0  0  0  0  0  0
    8.8734   -3.4421    2.5684 H   0  0  0  0  0  0  0  0  0  0  0  0
    9.0985   -2.1982    1.3143 H   0  0  0  0  0  0  0  0  0  0  0  0
   14.2565   -2.6020    1.3577 C   0  0  0  0  0  0  0  0  0  0  0  0
   14.4514   -2.3238    2.6852 N   0  0  0  0  0  0  0  0  0  0  0  0
   13.6550   -2.0493    3.2587 H   0  0  0  0  0  0  0  0  0  0  0  0
   15.3884   -2.3709    3.0802 H   0  0  0  0  0  0  0  0  0  0  0  0
   15.2588   -2.9175    0.5995 N   0  0  0  0  0  4  0  0  0  0  0  0
   16.2341   -2.9664    0.9117 H   0  0  0  0  0  0  0  0  0  0  0  0
   15.3125   -0.8506   -1.4998 C   0  0  0  0  0  0  0  0  0  0  0  0
   14.8630   -0.5170   -0.5691 H   0  0  0  0  0  0  0  0  0  0  0  0
   15.4417    2.0138   -0.7978 C   0  0  0  0  0  0  0  0  0  0  0  0
   15.3293    1.2823   -0.0045 H   0  0  0  0  0  0  0  0  0  0  0  0
   15.3812    3.3871   -0.5553 C   0  0  0  0  0  0  0  0  0  0  0  0
   15.1821    3.7709    0.4371 H   0  0  0  0  0  0  0  0  0  0  0  0
  1  2  1  0
  2  3  2  0
  3  4  1  0
  4  5  1  0
  4  6  2  0
  6  7  1  0
  7  8  2  0
  8  9  1  0
  8 10  1  0
 10 11  1  0
 10 12  2  0
 12 13  1  0
 12 14  1  0
 15 14  1  6
 15 16  1  0
 16 17  2  0
 17 18  1  0
 17 19  1  0
 19 20  1  0
 19 21  2  0
 21 22  1  0
 21 23  1  0
 23 24  1  0
 23 25  2  0
 25 26  1  0
 15 27  1  0
 27 28  2  0
 27 29  1  0
 29 30  1  0
 30 31  1  0
 30 32  1  0
 32 33  1  0
 33 34  1  0
 33 35  1  0
 33 36  1  0
 32 37  1  0
 37 38  1  0
 37 39  1  0
 37 40  1  0
 32 41  1  0
 41 42  1  0
 41 43  1  0
 41 44  1  0
 29 45  1  0
 45 46  1  0
 46 47  1  0
 46 48  1  0
 45 49  2  0
 49 50  1  0
 14 51  2  0
 51 52  1  0
  6 53  1  0
 53 54  1  0
 53 55  2  0
 55 56  1  0
 55  2  1  0
 51  7  1  0
 49 15  1  0
 25 16  1  0
M  CHG  1  49   1
M  END
>  <score>  (103) 
5.77169

$$$$

     RDKit          3D

 56 61  0  0  0  0  0  0  0  0999 V2000
   15.5521    5.3480   -1.3965 H   0  0  0  0  0  0  0  0  0  0  0  0
   15.5871    4.2820   -1.6055 C   0  0  0  0  0  0  0  0  0  0  0  0
   15.8242    3.8674   -2.8597 N   0  0  0  0  0  0  0  0  0  0  0  0
   15.8796    2.5413   -3.0938 C   0  0  0  0  0  0  0  0  0  0  0  0
   16.0714    2.2039   -4.1075 H   0  0  0  0  0  0  0  0  0  0  0  0
   15.6964    1.5685   -2.0965 C   0  0  0  0  0  0  0  0  0  0  0  0
   15.7756    0.1223   -2.4018 C   0  0  0  0  0  0  0  0  0  0  0  0
   16.3299   -0.3193   -3.6085 C   0  0  0  0  0  0  0  0  0  0  0  0
   16.7105    0.4218   -4.3038 H   0  0  0  0  0  0  0  0  0  0  0  0
   16.4168   -1.6858   -3.9009 C   0  0  0  0  0  0  0  0  0  0  0  0
   16.8623   -2.0051   -4.8372 H   0  0  0  0  0  0  0  0  0  0  0  0
   15.9348   -2.6340   -2.9884 C   0  0  0  0  0  0  0  0  0  0  0  0
   15.9948   -3.6923   -3.2282 H   0  0  0  0  0  0  0  0  0  0  0  0
   15.3715   -2.2289   -1.7648 C   0  0  0  0  0  0  0  0  0  0  0  0
   14.7924   -3.2359   -0.7623 C   0  0  2  0  0  0  0  0  0  0  0  0
   15.1659   -4.6963   -1.0619 C   0  0  0  0  0  0  0  0  0  0  0  0
   16.3883   -5.2192   -0.6010 C   0  0  0  0  0  0  0  0  0  0  0  0
   17.0702   -4.5709   -0.0583 H   0  0  0  0  0  0  0  0  0  0  0  0
   16.7317   -6.5628   -0.8016 C   0  0  0  0  0  0  0  0  0  0  0  0
   17.6703   -6.9508   -0.4159 H   0  0  0  0  0  0  0  0  0  0  0  0
   15.8564   -7.4128   -1.4813 C   0  0  0  0  0  0  0  0  0  0  0  0
   16.1062   -8.4619   -1.6156 H   0  0  0  0  0  0  0  0  0  0  0  0
   14.6444   -6.9128   -1.9661 C   0  0  0  0  0  0  0  0  0  0  0  0
   13.9632   -7.5790   -2.4885 H   0  0  0  0  0  0  0  0  0  0  0  0
   14.3023   -5.5644   -1.7612 C   0  0  0  0  0  0  0  0  0  0  0  0
   13.3509   -5.1942   -2.1300 H   0  0  0  0  0  0  0  0  0  0  0  0
   13.2700   -3.0140   -0.5889 C   0  0  0  0  0  0  0  0  0  0  0  0
   12.4240   -3.0881   -1.4797 O   0  0  0  0  0  0  0  0  0  0  0  0
   12.9868   -2.6963    0.7254 N   0  0  0  0  0  0  0  0  0  0  0  0
   11.7453   -2.2643    1.2180 C   0  0  0  0  0  0  0  0  0  0  0  0
   11.1336   -2.9444    2.2873 C   0  0  0  0  0  0  0  0  0  0  0  0
   11.6554   -3.7874    2.7294 H   0  0  0  0  0  0  0  0  0  0  0  0
    9.8835   -2.5395    2.7883 C   0  0  0  0  0  0  0  0  0  0  0  0
    9.4437   -3.0693    3.6341 H   0  0  0  0  0  0  0  0  0  0  0  0
    9.2391   -1.4322    2.2156 C   0  0  0  0  0  0  0  0  0  0  0  0
    8.3028   -1.0855    2.6316 H   0  0  0  0  0  0  0  0  0  0  0  0
    9.8542   -0.7361    1.1655 C   0  0  0  0  0  0  0  0  0  0  0  0
   11.0940   -1.1396    0.6701 C   0  0  0  0  0  0  0  0  0  0  0  0
   11.4587   -0.1560   -0.3540 C   0  0  0  0  0  0  0  0  0  0  0  0
   12.3784   -0.1462   -0.9297 H   0  0  0  0  0  0  0  0  0  0  0  0
   10.4630    0.7851   -0.4282 C   0  0  0  0  0  0  0  0  0  0  0  0
   10.4617    1.6521   -1.0839 H   0  0  0  0  0  0  0  0  0  0  0  0
    9.4852    0.4240    0.4923 N   0  0  0  0  0  0  0  0  0  0  0  0
    8.6552    0.9724    0.7064 H   0  0  0  0  0  0  0  0  0  0  0  0
   14.1958   -2.6442    1.3897 C   0  0  0  0  0  0  0  0  0  0  0  0
   14.3952   -2.3219    2.7028 N   0  0  0  0  0  0  0  0  0  0  0  0
   15.3410   -2.3362    3.0803 H   0  0  0  0  0  0  0  0  0  0  0  0
   13.6020   -2.0851    3.2960 H   0  0  0  0  0  0  0  0  0  0  0  0
   15.2042   -2.9177    0.6236 N   0  0  0  0  0  4  0  0  0  0  0  0
   16.1774   -2.9373    0.9441 H   0  0  0  0  0  0  0  0  0  0  0  0
   15.3038   -0.8445   -1.4947 C   0  0  0  0  0  0  0  0  0  0  0  0
   14.8606   -0.5059   -0.5630 H   0  0  0  0  0  0  0  0  0  0  0  0
   15.4443    2.0113   -0.7987 C   0  0  0  0  0  0  0  0  0  0  0  0
   15.3339    1.2760   -0.0079 H   0  0  0  0  0  0  0  0  0  0  0  0
   15.3821    3.3845   -0.5562 C   0  0  0  0  0  0  0  0  0  0  0  0
   15.1828    3.7683    0.4364 H   0  0  0  0  0  0  0  0  0  0  0  0
  1  2  1  0
  2  3  2  0
  3  4  1  0
  4  5  1  0
  4  6  2  0
  6  7  1  0
  7  8  2  0
  8  9  1  0
  8 10  1  0
 10 11  1  0
 10 12  2  0
 12 13  1  0
 12 14  1  0
 15 14  1  6
 15 16  1  0
 16 17  2  0
 17 18  1  0
 17 19  1  0
 19 20  1  0
 19 21  2  0
 21 22  1  0
 21 23  1  0
 23 24  1  0
 23 25  2  0
 25 26  1  0
 15 27  1  0
 27 28  2  0
 27 29  1  0
 29 30  1  0
 30 31  2  0
 31 32  1  0
 31 33  1  0
 33 34  1  0
 33 35  2  0
 35 36  1  0
 35 37  1  0
 37 38  2  0
 38 39  1  0
 39 40  1  0
 39 41  2  0
 41 42  1  0
 41 43  1  0
 43 44  1  0
 29 45  1  0
 45 46  1  0
 46 47  1  0
 46 48  1  0
 45 49  2  0
 49 50  1  0
 14 51  2  0
 51 52  1  0
  6 53  1  0
 53 54  1  0
 53 55  2  0
 55 56  1  0
 55  2  1  0
 51  7  1  0
 49 15  1  0
 25 16  1  0
 38 30  1  0
 43 37  1  0
M  CHG  1  49   1
M  END
>  <score>  (104) 
5.77005

$$$$

     RDKit          3D

 52 55  0  0  0  0  0  0  0  0999 V2000
    7.1176    0.6470    0.5046 H   0  0  0  0  0  0  0  0  0  0  0  0
    7.5702    0.0511    1.1216 O   0  0  0  0  0  0  0  0  0  0  0  0
    8.5797   -0.5028    0.3953 C   0  0  0  0  0  0  0  0  0  0  0  0
    8.7053   -0.2872   -0.8045 O   0  0  0  0  0  0  0  0  0  0  0  0
    9.6214   -1.3348    1.1045 C   0  0  0  0  0  0  0  0  0  0  0  0
    9.4976   -1.6905    2.4243 O   0  0  0  0  0  0  0  0  0  0  0  0
   10.3923   -1.9420    2.7356 H   0  0  0  0  0  0  0  0  0  0  0  0
   10.8192   -1.7470    0.5411 C   0  0  0  0  0  0  0  0  0  0  0  0
   11.0798   -1.5159   -0.4822 H   0  0  0  0  0  0  0  0  0  0  0  0
   11.8292   -2.4149    1.3277 C   0  0  0  0  0  0  0  0  0  0  0  0
   11.6587   -2.5306    2.5195 O   0  0  0  0  0  0  0  0  0  0  0  0
   13.0411   -2.6723    0.7859 N   0  0  0  0  0  0  0  0  0  0  0  0
   13.2664   -2.9545   -0.5265 C   0  0  0  0  0  0  0  0  0  0  0  0
   12.3494   -3.0983   -1.3332 O   0  0  0  0  0  0  0  0  0  0  0  0
   14.7785   -3.1887   -0.7183 C   0  0  1  0  0  0  0  0  0  0  0  0
   15.1415   -4.6397   -1.0236 C   0  0  0  0  0  0  0  0  0  0  0  0
   16.3687   -5.1593   -0.5803 C   0  0  0  0  0  0  0  0  0  0  0  0
   17.0608   -4.5153   -0.0439 H   0  0  0  0  0  0  0  0  0  0  0  0
   16.7058   -6.4967   -0.7998 C   0  0  0  0  0  0  0  0  0  0  0  0
   17.6540   -6.8752   -0.4311 H   0  0  0  0  0  0  0  0  0  0  0  0
   15.8287   -7.3361   -1.4904 C   0  0  0  0  0  0  0  0  0  0  0  0
   16.0909   -8.3772   -1.6513 H   0  0  0  0  0  0  0  0  0  0  0  0
   14.6121   -6.8299   -1.9608 C   0  0  0  0  0  0  0  0  0  0  0  0
   13.9353   -7.4799   -2.5057 H   0  0  0  0  0  0  0  0  0  0  0  0
   14.2685   -5.4906   -1.7281 C   0  0  0  0  0  0  0  0  0  0  0  0
   13.3202   -5.1159   -2.1009 H   0  0  0  0  0  0  0  0  0  0  0  0
   15.3514   -2.2029   -1.7298 C   0  0  0  0  0  0  0  0  0  0  0  0
   15.9085   -2.6281   -2.9482 C   0  0  0  0  0  0  0  0  0  0  0  0
   15.9594   -3.6892   -3.1719 H   0  0  0  0  0  0  0  0  0  0  0  0
   16.3954   -1.6973   -3.8722 C   0  0  0  0  0  0  0  0  0  0  0  0
   16.8319   -2.0291   -4.8084 H   0  0  0  0  0  0  0  0  0  0  0  0
   16.3257   -0.3313   -3.5911 C   0  0  0  0  0  0  0  0  0  0  0  0
   16.7022    0.3860   -4.3112 H   0  0  0  0  0  0  0  0  0  0  0  0
   15.7779    0.1208   -2.3863 C   0  0  0  0  0  0  0  0  0  0  0  0
   15.7299    1.5556   -2.0869 C   0  0  0  0  0  0  0  0  0  0  0  0
   15.9161    2.5164   -3.0946 C   0  0  0  0  0  0  0  0  0  0  0  0
   16.1160    2.1816   -4.1090 H   0  0  0  0  0  0  0  0  0  0  0  0
   15.8423    3.8394   -2.8657 N   0  0  0  0  0  0  0  0  0  0  0  0
   15.5933    4.2552   -1.6146 C   0  0  0  0  0  0  0  0  0  0  0  0
   15.5192    5.3204   -1.4251 H   0  0  0  0  0  0  0  0  0  0  0  0
   15.4203    3.3635   -0.5540 C   0  0  0  0  0  0  0  0  0  0  0  0
   15.2268    3.7333    0.4432 H   0  0  0  0  0  0  0  0  0  0  0  0
   15.4957    1.9958   -0.7856 C   0  0  0  0  0  0  0  0  0  0  0  0
   15.3868    1.2784    0.0224 H   0  0  0  0  0  0  0  0  0  0  0  0
   15.2855   -0.8233   -1.4724 C   0  0  0  0  0  0  0  0  0  0  0  0
   14.8530   -0.4756   -0.5389 H   0  0  0  0  0  0  0  0  0  0  0  0
   15.2126   -2.8857    0.6678 N   0  0  0  0  0  4  0  0  0  0  0  0
   16.1538   -3.0739    1.0128 H   0  0  0  0  0  0  0  0  0  0  0  0
   14.2120   -2.6932    1.4586 C   0  0  0  0  0  0  0  0  0  0  0  0
   14.3246   -2.5091    2.7974 N   0  0  0  0  0  0  0  0  0  0  0  0
   13.5151   -2.1250    3.2837 H   0  0  0  0  0  0  0  0  0  0  0  0
   15.2479   -2.2715    3.1482 H   0  0  0  0  0  0  0  0  0  0  0  0
  1  2  1  0
  2  3  1  0
  3  4  2  0
  3  5  1  0
  5  6  1  0
  6  7  1  0
  5  8  2  3
  8  9  1  0
  8 10  1  0
 10 11  2  0
 10 12  1  0
 12 13  1  0
 13 14  2  0
 13 15  1  0
 15 16  1  6
 16 17  2  0
 17 18  1  0
 17 19  1  0
 19 20  1  0
 19 21  2  0
 21 22  1  0
 21 23  1  0
 23 24  1  0
 23 25  2  0
 25 26  1  0
 15 27  1  0
 27 28  2  0
 28 29  1  0
 28 30  1  0
 30 31  1  0
 30 32  2  0
 32 33  1  0
 32 34  1  0
 34 35  1  0
 35 36  2  0
 36 37  1  0
 36 38  1  0
 38 39  2  0
 39 40  1  0
 39 41  1  0
 41 42  1  0
 41 43  2  0
 43 44  1  0
 34 45  2  0
 45 46  1  0
 15 47  1  0
 47 48  1  0
 47 49  2  0
 49 50  1  0
 50 51  1  0
 50 52  1  0
 49 12  1  0
 25 16  1  0
 45 27  1  0
 43 35  1  0
M  CHG  1  47   1
M  END
>  <score>  (105) 
5.76546

$$$$

     RDKit          3D

 61 66  0  0  0  0  0  0  0  0999 V2000
   15.5471    5.3445   -1.3680 H   0  0  0  0  0  0  0  0  0  0  0  0
   15.6801    4.2870   -1.5761 C   0  0  0  0  0  0  0  0  0  0  0  0
   15.9629    3.9067   -2.8308 N   0  0  0  0  0  0  0  0  0  0  0  0
   16.1160    2.5922   -3.0777 C   0  0  0  0  0  0  0  0  0  0  0  0
   16.3307    2.2885   -4.0975 H   0  0  0  0  0  0  0  0  0  0  0  0
   15.9905    1.5973   -2.0916 C   0  0  0  0  0  0  0  0  0  0  0  0
   16.1266    0.1673   -2.4343 C   0  0  0  0  0  0  0  0  0  0  0  0
   16.5781   -0.2345   -3.7003 C   0  0  0  0  0  0  0  0  0  0  0  0
   16.8590    0.5139   -4.4352 H   0  0  0  0  0  0  0  0  0  0  0  0
   16.6509   -1.5915   -4.0327 C   0  0  0  0  0  0  0  0  0  0  0  0
   16.9874   -1.8796   -5.0233 H   0  0  0  0  0  0  0  0  0  0  0  0
   16.2606   -2.5653   -3.1046 C   0  0  0  0  0  0  0  0  0  0  0  0
   16.2869   -3.6142   -3.3835 H   0  0  0  0  0  0  0  0  0  0  0  0
   15.7986   -2.1932   -1.8323 C   0  0  0  0  0  0  0  0  0  0  0  0
   15.1938   -3.2037   -0.8690 C   0  0  2  0  0  0  0  0  0  0  0  0
   15.5793   -4.6594   -1.1479 C   0  0  0  0  0  0  0  0  0  0  0  0
   16.7710   -5.2142   -0.6485 C   0  0  0  0  0  0  0  0  0  0  0  0
   17.4693   -4.5902   -0.0980 H   0  0  0  0  0  0  0  0  0  0  0  0
   17.0567   -6.5757   -0.8229 C   0  0  0  0  0  0  0  0  0  0  0  0
   17.9684   -6.9950   -0.4072 H   0  0  0  0  0  0  0  0  0  0  0  0
   16.1603   -7.4010   -1.5109 C   0  0  0  0  0  0  0  0  0  0  0  0
   16.3647   -8.4620   -1.6254 H   0  0  0  0  0  0  0  0  0  0  0  0
   14.9900   -6.8564   -2.0452 C   0  0  0  0  0  0  0  0  0  0  0  0
   14.2865   -7.4867   -2.5814 H   0  0  0  0  0  0  0  0  0  0  0  0
   14.7095   -5.4972   -1.8721 C   0  0  0  0  0  0  0  0  0  0  0  0
   13.7899   -5.0955   -2.2853 H   0  0  0  0  0  0  0  0  0  0  0  0
   13.6659   -3.0139   -0.8744 C   0  0  0  0  0  0  0  0  0  0  0  0
   12.9493   -3.1905   -1.8613 O   0  0  0  0  0  0  0  0  0  0  0  0
   13.1916   -2.7334    0.4009 N   0  0  0  0  0  0  0  0  0  0  0  0
   11.8397   -3.0537    0.8152 N   0  0  0  0  0  0  0  0  0  0  0  0
   11.1603   -2.2702    1.8942 C   0  0  0  0  0  0  0  0  0  0  0  0
   11.9160   -1.9407    2.6004 H   0  0  0  0  0  0  0  0  0  0  0  0
   10.6957   -1.3679    1.4808 H   0  0  0  0  0  0  0  0  0  0  0  0
   10.1320   -3.1067    2.6528 C   0  0  0  0  0  0  0  0  0  0  0  0
    8.9080   -2.5903    3.1138 C   0  0  0  0  0  0  0  0  0  0  0  0
    8.6625   -1.5492    2.9520 H   0  0  0  0  0  0  0  0  0  0  0  0
    7.9668   -3.4353    3.7382 C   0  0  0  0  0  0  0  0  0  0  0  0
    6.9972   -3.0768    4.0654 H   0  0  0  0  0  0  0  0  0  0  0  0
    8.2353   -4.7945    3.9092 C   0  0  0  0  0  0  0  0  0  0  0  0
    7.5132   -5.4610    4.3823 H   0  0  0  0  0  0  0  0  0  0  0  0
    9.4310   -5.3137    3.4136 C   0  0  0  0  0  0  0  0  0  0  0  0
    9.6443   -6.3793    3.4490 H   0  0  0  0  0  0  0  0  0  0  0  0
   10.3646   -4.4820    2.8023 C   0  0  0  0  0  0  0  0  0  0  0  0
   11.5544   -5.0796    2.1251 C   0  0  0  0  0  0  0  0  0  0  0  0
   11.4746   -6.1676    2.0991 H   0  0  0  0  0  0  0  0  0  0  0  0
   12.4747   -4.8176    2.6532 H   0  0  0  0  0  0  0  0  0  0  0  0
   11.5435   -4.4980    0.7176 C   0  0  0  0  0  0  0  0  0  0  0  0
   12.2838   -5.0090    0.0917 H   0  0  0  0  0  0  0  0  0  0  0  0
   10.5573   -4.6312    0.2572 H   0  0  0  0  0  0  0  0  0  0  0  0
   14.3342   -2.7205    1.2067 C   0  0  0  0  0  0  0  0  0  0  0  0
   14.4047   -2.5911    2.5699 N   0  0  0  0  0  0  0  0  0  0  0  0
   15.3163   -2.3717    2.9739 H   0  0  0  0  0  0  0  0  0  0  0  0
   13.5696   -2.2733    3.0572 H   0  0  0  0  0  0  0  0  0  0  0  0
   15.4413   -2.8743    0.5463 N   0  0  0  0  0  4  0  0  0  0  0  0
   16.3469   -3.0157    0.9993 H   0  0  0  0  0  0  0  0  0  0  0  0
   15.7508   -0.8246   -1.5153 C   0  0  0  0  0  0  0  0  0  0  0  0
   15.3719   -0.5204   -0.5452 H   0  0  0  0  0  0  0  0  0  0  0  0
   15.7018    2.0065   -0.7843 C   0  0  0  0  0  0  0  0  0  0  0  0
   15.5993    1.2791    0.0188 H   0  0  0  0  0  0  0  0  0  0  0  0
   15.5452    3.3685   -0.5325 C   0  0  0  0  0  0  0  0  0  0  0  0
   15.3175    3.7229    0.4655 H   0  0  0  0  0  0  0  0  0  0  0  0
  1  2  1  0
  2  3  2  0
  3  4  1  0
  4  5  1  0
  4  6  2  0
  6  7  1  0
  7  8  2  0
  8  9  1  0
  8 10  1  0
 10 11  1  0
 10 12  2  0
 12 13  1  0
 12 14  1  0
 15 14  1  6
 15 16  1  0
 16 17  2  0
 17 18  1  0
 17 19  1  0
 19 20  1  0
 19 21  2  0
 21 22  1  0
 21 23  1  0
 23 24  1  0
 23 25  2  0
 25 26  1  0
 15 27  1  0
 27 28  2  0
 27 29  1  0
 29 30  1  0
 30 31  1  0
 31 32  1  0
 31 33  1  0
 31 34  1  0
 34 35  2  0
 35 36  1  0
 35 37  1  0
 37 38  1  0
 37 39  2  0
 39 40  1  0
 39 41  1  0
 41 42  1  0
 41 43  2  0
 43 44  1  0
 44 45  1  0
 44 46  1  0
 44 47  1  0
 47 48  1  0
 47 49  1  0
 29 50  1  0
 50 51  1  0
 51 52  1  0
 51 53  1  0
 50 54  2  0
 54 55  1  0
 14 56  2  0
 56 57  1  0
  6 58  1  0
 58 59  1  0
 58 60  2  0
 60 61  1  0
 60  2  1  0
 56  7  1  0
 54 15  1  0
 25 16  1  0
 47 30  1  0
 43 34  1  0
M  CHG  1  54   1
M  END
>  <score>  (106) 
5.764

$$$$

     RDKit          3D

 53 57  0  0  0  0  0  0  0  0999 V2000
   15.5527    5.3380   -1.4117 H   0  0  0  0  0  0  0  0  0  0  0  0
   15.6230    4.2724   -1.6079 C   0  0  0  0  0  0  0  0  0  0  0  0
   15.8693    3.8589   -2.8606 N   0  0  0  0  0  0  0  0  0  0  0  0
   15.9463    2.5344   -3.0913 C   0  0  0  0  0  0  0  0  0  0  0  0
   16.1353    2.2016   -4.1072 H   0  0  0  0  0  0  0  0  0  0  0  0
   15.7792    1.5651   -2.0879 C   0  0  0  0  0  0  0  0  0  0  0  0
   15.8508    0.1231   -2.3922 C   0  0  0  0  0  0  0  0  0  0  0  0
   16.3544   -0.3442   -3.6159 C   0  0  0  0  0  0  0  0  0  0  0  0
   16.7053    0.3669   -4.3566 H   0  0  0  0  0  0  0  0  0  0  0  0
   16.4114   -1.7178   -3.8876 C   0  0  0  0  0  0  0  0  0  0  0  0
   16.7977   -2.0695   -4.8398 H   0  0  0  0  0  0  0  0  0  0  0  0
   15.9607   -2.6388   -2.9364 C   0  0  0  0  0  0  0  0  0  0  0  0
   15.9919   -3.7030   -3.1512 H   0  0  0  0  0  0  0  0  0  0  0  0
   15.4561   -2.1992   -1.7051 C   0  0  0  0  0  0  0  0  0  0  0  0
   14.9142   -3.1657   -0.6716 C   0  0  2  0  0  0  0  0  0  0  0  0
   15.2468   -4.6206   -0.9740 C   0  0  0  0  0  0  0  0  0  0  0  0
   16.4616   -5.1712   -0.5405 C   0  0  0  0  0  0  0  0  0  0  0  0
   17.1614   -4.5536    0.0135 H   0  0  0  0  0  0  0  0  0  0  0  0
   16.7779   -6.5076   -0.7983 C   0  0  0  0  0  0  0  0  0  0  0  0
   17.7215   -6.9132   -0.4463 H   0  0  0  0  0  0  0  0  0  0  0  0
   15.8823   -7.3160   -1.5047 C   0  0  0  0  0  0  0  0  0  0  0  0
   16.1263   -8.3555   -1.7040 H   0  0  0  0  0  0  0  0  0  0  0  0
   14.6731   -6.7796   -1.9589 C   0  0  0  0  0  0  0  0  0  0  0  0
   13.9766   -7.4025   -2.5135 H   0  0  0  0  0  0  0  0  0  0  0  0
   14.3600   -5.4390   -1.6996 C   0  0  0  0  0  0  0  0  0  0  0  0
   13.4150   -5.0410   -2.0580 H   0  0  0  0  0  0  0  0  0  0  0  0
   13.4046   -2.9279   -0.4928 C   0  0  0  0  0  0  0  0  0  0  0  0
   12.5185   -3.2212   -1.2997 O   0  0  0  0  0  0  0  0  0  0  0  0
   13.1780   -2.3909    0.7712 N   0  0  0  0  0  0  0  0  0  0  0  0
   11.9172   -2.3588    1.4896 N   0  0  0  0  0  0  0  0  0  0  0  0
   11.8606   -2.9074    2.3442 H   0  0  0  0  0  0  0  0  0  0  0  0
   10.6660   -2.0965    0.9579 C   0  0  0  0  0  0  0  0  0  0  0  0
   10.5023   -1.4062   -0.0428 O   0  0  0  0  0  0  0  0  0  0  0  0
    9.5813   -2.9258    1.4906 C   0  0  0  0  0  0  0  0  0  0  0  0
    9.3600   -3.2284    2.8221 O   0  0  0  0  0  0  0  0  0  0  0  0
    8.3176   -4.1225    2.8656 C   0  0  0  0  0  0  0  0  0  0  0  0
    7.9045   -4.5513    3.7753 H   0  0  0  0  0  0  0  0  0  0  0  0
    7.8884   -4.4045    1.6034 C   0  0  0  0  0  0  0  0  0  0  0  0
    7.0956   -5.0950    1.3315 H   0  0  0  0  0  0  0  0  0  0  0  0
    8.7187   -3.6471    0.7088 C   0  0  0  0  0  0  0  0  0  0  0  0
    8.6919   -3.6709   -0.3712 H   0  0  0  0  0  0  0  0  0  0  0  0
   14.3971   -2.4596    1.4309 C   0  0  0  0  0  0  0  0  0  0  0  0
   14.5621   -2.3015    2.7792 N   0  0  0  0  0  0  0  0  0  0  0  0
   13.7886   -1.9170    3.3164 H   0  0  0  0  0  0  0  0  0  0  0  0
   15.5062   -2.2119    3.1397 H   0  0  0  0  0  0  0  0  0  0  0  0
   15.3872   -2.7878    0.6751 N   0  0  0  0  0  4  0  0  0  0  0  0
   16.3077   -3.0439    1.0411 H   0  0  0  0  0  0  0  0  0  0  0  0
   15.4002   -0.8183   -1.4567 C   0  0  0  0  0  0  0  0  0  0  0  0
   14.9843   -0.4668   -0.5175 H   0  0  0  0  0  0  0  0  0  0  0  0
   15.5377    2.0088   -0.7843 C   0  0  0  0  0  0  0  0  0  0  0  0
   15.4289    1.2951    0.0281 H   0  0  0  0  0  0  0  0  0  0  0  0
   15.4540    3.3786   -0.5483 C   0  0  0  0  0  0  0  0  0  0  0  0
   15.2608    3.7556    0.4490 H   0  0  0  0  0  0  0  0  0  0  0  0
  1  2  1  0
  2  3  2  0
  3  4  1  0
  4  5  1  0
  4  6  2  0
  6  7  1  0
  7  8  2  0
  8  9  1  0
  8 10  1  0
 10 11  1  0
 10 12  2  0
 12 13  1  0
 12 14  1  0
 15 14  1  6
 15 16  1  0
 16 17  2  0
 17 18  1  0
 17 19  1  0
 19 20  1  0
 19 21  2  0
 21 22  1  0
 21 23  1  0
 23 24  1  0
 23 25  2  0
 25 26  1  0
 15 27  1  0
 27 28  2  0
 27 29  1  0
 29 30  1  0
 30 31  1  0
 30 32  1  0
 32 33  2  0
 32 34  1  0
 34 35  1  0
 35 36  1  0
 36 37  1  0
 36 38  2  0
 38 39  1  0
 38 40  1  0
 40 41  1  0
 29 42  1  0
 42 43  1  0
 43 44  1  0
 43 45  1  0
 42 46  2  0
 46 47  1  0
 14 48  2  0
 48 49  1  0
  6 50  1  0
 50 51  1  0
 50 52  2  0
 52 53  1  0
 52  2  1  0
 48  7  1  0
 46 15  1  0
 25 16  1  0
 40 34  2  0
M  CHG  1  46   1
M  END
>  <score>  (107) 
5.76258

$$$$

     RDKit          3D

 56 60  0  0  0  0  0  0  0  0999 V2000
   15.5450    5.3390   -1.4010 H   0  0  0  0  0  0  0  0  0  0  0  0
   15.5867    4.2745   -1.6091 C   0  0  0  0  0  0  0  0  0  0  0  0
   15.8283    3.8617   -2.8630 N   0  0  0  0  0  0  0  0  0  0  0  0
   15.8858    2.5367   -3.0971 C   0  0  0  0  0  0  0  0  0  0  0  0
   16.0826    2.1945   -4.1087 H   0  0  0  0  0  0  0  0  0  0  0  0
   15.7023    1.5664   -2.0975 C   0  0  0  0  0  0  0  0  0  0  0  0
   15.7740    0.1231   -2.4030 C   0  0  0  0  0  0  0  0  0  0  0  0
   16.3281   -0.3141   -3.6102 C   0  0  0  0  0  0  0  0  0  0  0  0
   16.7063    0.4313   -4.3014 H   0  0  0  0  0  0  0  0  0  0  0  0
   16.4118   -1.6803   -3.9061 C   0  0  0  0  0  0  0  0  0  0  0  0
   16.8642   -2.0023   -4.8383 H   0  0  0  0  0  0  0  0  0  0  0  0
   15.9295   -2.6280   -2.9950 C   0  0  0  0  0  0  0  0  0  0  0  0
   15.9961   -3.6864   -3.2256 H   0  0  0  0  0  0  0  0  0  0  0  0
   15.3682   -2.2253   -1.7724 C   0  0  0  0  0  0  0  0  0  0  0  0
   14.8163   -3.2422   -0.7714 C   0  0  2  0  0  0  0  0  0  0  0  0
   15.1913   -4.6957   -1.0671 C   0  0  0  0  0  0  0  0  0  0  0  0
   16.4074   -5.2194   -0.6009 C   0  0  0  0  0  0  0  0  0  0  0  0
   17.0838   -4.5677   -0.0556 H   0  0  0  0  0  0  0  0  0  0  0  0
   16.7379   -6.5649   -0.7975 C   0  0  0  0  0  0  0  0  0  0  0  0
   17.6757   -6.9551   -0.4120 H   0  0  0  0  0  0  0  0  0  0  0  0
   15.8561   -7.4095   -1.4789 C   0  0  0  0  0  0  0  0  0  0  0  0
   16.1003   -8.4578   -1.6166 H   0  0  0  0  0  0  0  0  0  0  0  0
   14.6441   -6.9051   -1.9619 C   0  0  0  0  0  0  0  0  0  0  0  0
   13.9537   -7.5654   -2.4798 H   0  0  0  0  0  0  0  0  0  0  0  0
   14.3143   -5.5578   -1.7550 C   0  0  0  0  0  0  0  0  0  0  0  0
   13.3592   -5.1800   -2.1086 H   0  0  0  0  0  0  0  0  0  0  0  0
   13.2908   -3.0886   -0.5891 C   0  0  0  0  0  0  0  0  0  0  0  0
   12.4030   -3.1823   -1.4370 O   0  0  0  0  0  0  0  0  0  0  0  0
   13.0370   -2.7824    0.7285 N   0  0  0  0  0  0  0  0  0  0  0  0
   11.7333   -2.8757    1.3547 C   0  0  0  0  0  0  0  0  0  0  0  0
   11.8209   -3.0320    2.4392 H   0  0  0  0  0  0  0  0  0  0  0  0
   11.1683   -1.9492    1.1780 H   0  0  0  0  0  0  0  0  0  0  0  0
   11.0230   -3.9682    0.7672 O   0  0  0  0  0  0  0  0  0  0  0  0
   11.5593   -5.2297    0.8541 C   0  0  0  0  0  0  0  0  0  0  0  0
   10.9921   -6.2045    0.0311 C   0  0  0  0  0  0  0  0  0  0  0  0
   10.1631   -5.9158   -0.6068 H   0  0  0  0  0  0  0  0  0  0  0  0
   11.4792   -7.5150    0.0214 C   0  0  0  0  0  0  0  0  0  0  0  0
   11.0276   -8.2617   -0.6277 H   0  0  0  0  0  0  0  0  0  0  0  0
   12.5446   -7.8629    0.8557 C   0  0  0  0  0  0  0  0  0  0  0  0
   12.9231   -8.8787    0.8539 H   0  0  0  0  0  0  0  0  0  0  0  0
   13.1095   -6.9032    1.7054 C   0  0  0  0  0  0  0  0  0  0  0  0
   13.9207   -7.1911    2.3684 H   0  0  0  0  0  0  0  0  0  0  0  0
   12.6189   -5.5890    1.7013 C   0  0  0  0  0  0  0  0  0  0  0  0
   13.0439   -4.8371    2.3568 H   0  0  0  0  0  0  0  0  0  0  0  0
   14.2342   -2.6989    1.3866 C   0  0  0  0  0  0  0  0  0  0  0  0
   14.3873   -2.4405    2.7151 N   0  0  0  0  0  0  0  0  0  0  0  0
   13.6057   -2.0396    3.2300 H   0  0  0  0  0  0  0  0  0  0  0  0
   15.3358   -2.3077    3.0638 H   0  0  0  0  0  0  0  0  0  0  0  0
   15.2414   -2.9009    0.6067 N   0  0  0  0  0  4  0  0  0  0  0  0
   16.2094   -2.9554    0.9386 H   0  0  0  0  0  0  0  0  0  0  0  0
   15.2981   -0.8424   -1.4984 C   0  0  0  0  0  0  0  0  0  0  0  0
   14.8628   -0.4971   -0.5651 H   0  0  0  0  0  0  0  0  0  0  0  0
   15.4564    2.0053   -0.7995 C   0  0  0  0  0  0  0  0  0  0  0  0
   15.3514    1.2651   -0.0126 H   0  0  0  0  0  0  0  0  0  0  0  0
   15.3881    3.3774   -0.5585 C   0  0  0  0  0  0  0  0  0  0  0  0
   15.1907    3.7615    0.4332 H   0  0  0  0  0  0  0  0  0  0  0  0
  1  2  1  0
  2  3  2  0
  3  4  1  0
  4  5  1  0
  4  6  2  0
  6  7  1  0
  7  8  2  0
  8  9  1  0
  8 10  1  0
 10 11  1  0
 10 12  2  0
 12 13  1  0
 12 14  1  0
 15 14  1  6
 15 16  1  0
 16 17  2  0
 17 18  1  0
 17 19  1  0
 19 20  1  0
 19 21  2  0
 21 22  1  0
 21 23  1  0
 23 24  1  0
 23 25  2  0
 25 26  1  0
 15 27  1  0
 27 28  2  0
 27 29  1  0
 29 30  1  0
 30 31  1  0
 30 32  1  0
 30 33  1  0
 33 34  1  0
 34 35  2  0
 35 36  1  0
 35 37  1  0
 37 38  1  0
 37 39  2  0
 39 40  1  0
 39 41  1  0
 41 42  1  0
 41 43  2  0
 43 44  1  0
 29 45  1  0
 45 46  1  0
 46 47  1  0
 46 48  1  0
 45 49  2  0
 49 50  1  0
 14 51  2  0
 51 52  1  0
  6 53  1  0
 53 54  1  0
 53 55  2  0
 55 56  1  0
 55  2  1  0
 51  7  1  0
 49 15  1  0
 25 16  1  0
 43 34  1  0
M  CHG  1  49   1
M  END
>  <score>  (108) 
5.76089

$$$$

     RDKit          3D

 53 56  0  0  0  0  0  0  0  0999 V2000
   15.5414    5.3357   -1.4091 H   0  0  0  0  0  0  0  0  0  0  0  0
   15.5854    4.2697   -1.6092 C   0  0  0  0  0  0  0  0  0  0  0  0
   15.8376    3.8576   -2.8602 N   0  0  0  0  0  0  0  0  0  0  0  0
   15.8905    2.5332   -3.0957 C   0  0  0  0  0  0  0  0  0  0  0  0
   16.0808    2.2088   -4.1145 H   0  0  0  0  0  0  0  0  0  0  0  0
   15.7048    1.5612   -2.0953 C   0  0  0  0  0  0  0  0  0  0  0  0
   15.7747    0.1187   -2.4025 C   0  0  0  0  0  0  0  0  0  0  0  0
   16.3344   -0.3168   -3.6118 C   0  0  0  0  0  0  0  0  0  0  0  0
   16.7158    0.4134   -4.3209 H   0  0  0  0  0  0  0  0  0  0  0  0
   16.4099   -1.6808   -3.9068 C   0  0  0  0  0  0  0  0  0  0  0  0
   16.8654   -2.0020   -4.8402 H   0  0  0  0  0  0  0  0  0  0  0  0
   15.9143   -2.6243   -2.9972 C   0  0  0  0  0  0  0  0  0  0  0  0
   15.9930   -3.6796   -3.2360 H   0  0  0  0  0  0  0  0  0  0  0  0
   15.3442   -2.2287   -1.7766 C   0  0  0  0  0  0  0  0  0  0  0  0
   14.7977   -3.2569   -0.7850 C   0  0  2  0  0  0  0  0  0  0  0  0
   15.1856   -4.6976   -1.0762 C   0  0  0  0  0  0  0  0  0  0  0  0
   16.4028   -5.2128   -0.6063 C   0  0  0  0  0  0  0  0  0  0  0  0
   17.0813   -4.5645   -0.0590 H   0  0  0  0  0  0  0  0  0  0  0  0
   16.7355   -6.5564   -0.7979 C   0  0  0  0  0  0  0  0  0  0  0  0
   17.6762   -6.9379   -0.4106 H   0  0  0  0  0  0  0  0  0  0  0  0
   15.8548   -7.4040   -1.4767 C   0  0  0  0  0  0  0  0  0  0  0  0
   16.1115   -8.4497   -1.6217 H   0  0  0  0  0  0  0  0  0  0  0  0
   14.6449   -6.9013   -1.9684 C   0  0  0  0  0  0  0  0  0  0  0  0
   13.9584   -7.5618   -2.4901 H   0  0  0  0  0  0  0  0  0  0  0  0
   14.3120   -5.5554   -1.7693 C   0  0  0  0  0  0  0  0  0  0  0  0
   13.3582   -5.1851   -2.1357 H   0  0  0  0  0  0  0  0  0  0  0  0
   13.2835   -3.1390   -0.5737 C   0  0  0  0  0  0  0  0  0  0  0  0
   12.3675   -3.0944   -1.3843 O   0  0  0  0  0  0  0  0  0  0  0  0
   13.0569   -3.0732    0.7465 N   0  0  0  0  0  0  0  0  0  0  0  0
   11.6974   -2.3332    1.2143 S   0  0  0  0  0  0  0  0  0  0  0  0
   10.9636   -1.8128    0.0550 O   0  0  0  0  0  0  0  0  0  0  0  0
   12.0721   -1.3363    2.2049 O   0  0  0  0  0  0  0  0  0  0  0  0
   10.9817   -3.7875    1.8611 N   0  0  0  0  0  0  0  0  0  0  0  0
   11.5323   -4.2582    3.1513 C   0  0  0  0  0  0  0  0  0  0  0  0
   12.5743   -4.5790    3.0464 H   0  0  0  0  0  0  0  0  0  0  0  0
   10.9607   -5.1165    3.5314 H   0  0  0  0  0  0  0  0  0  0  0  0
   11.4924   -3.4649    3.9048 H   0  0  0  0  0  0  0  0  0  0  0  0
   10.6448   -4.8308    0.8634 C   0  0  0  0  0  0  0  0  0  0  0  0
   10.0755   -5.6484    1.3273 H   0  0  0  0  0  0  0  0  0  0  0  0
   10.0403   -4.4162    0.0496 H   0  0  0  0  0  0  0  0  0  0  0  0
   11.5455   -5.2705    0.4203 H   0  0  0  0  0  0  0  0  0  0  0  0
   14.2012   -2.7786    1.3708 C   0  0  0  0  0  0  0  0  0  0  0  0
   14.2911   -2.3389    2.6446 N   0  0  0  0  0  0  0  0  0  0  0  0
   13.4390   -2.1636    3.1780 H   0  0  0  0  0  0  0  0  0  0  0  0
   15.2158   -2.2582    3.0692 H   0  0  0  0  0  0  0  0  0  0  0  0
   15.2038   -2.9388    0.5940 N   0  0  0  0  0  4  0  0  0  0  0  0
   16.1762   -2.8580    0.8837 H   0  0  0  0  0  0  0  0  0  0  0  0
   15.2833   -0.8467   -1.5004 C   0  0  0  0  0  0  0  0  0  0  0  0
   14.8509   -0.5078   -0.5645 H   0  0  0  0  0  0  0  0  0  0  0  0
   15.4587    2.0047   -0.7946 C   0  0  0  0  0  0  0  0  0  0  0  0
   15.3417    1.2890    0.0125 H   0  0  0  0  0  0  0  0  0  0  0  0
   15.3886    3.3749   -0.5562 C   0  0  0  0  0  0  0  0  0  0  0  0
   15.1969    3.7526    0.4407 H   0  0  0  0  0  0  0  0  0  0  0  0
  1  2  1  0
  2  3  2  0
  3  4  1  0
  4  5  1  0
  4  6  2  0
  6  7  1  0
  7  8  2  0
  8  9  1  0
  8 10  1  0
 10 11  1  0
 10 12  2  0
 12 13  1  0
 12 14  1  0
 15 14  1  6
 15 16  1  0
 16 17  2  0
 17 18  1  0
 17 19  1  0
 19 20  1  0
 19 21  2  0
 21 22  1  0
 21 23  1  0
 23 24  1  0
 23 25  2  0
 25 26  1  0
 15 27  1  0
 27 28  2  0
 27 29  1  0
 29 30  1  0
 30 31  2  0
 30 32  2  0
 30 33  1  0
 33 34  1  0
 34 35  1  0
 34 36  1  0
 34 37  1  0
 33 38  1  0
 38 39  1  0
 38 40  1  0
 38 41  1  0
 29 42  1  0
 42 43  1  0
 43 44  1  0
 43 45  1  0
 42 46  2  0
 46 47  1  0
 14 48  2  0
 48 49  1  0
  6 50  1  0
 50 51  1  0
 50 52  2  0
 52 53  1  0
 52  2  1  0
 48  7  1  0
 46 15  1  0
 25 16  1  0
M  CHG  1  46   1
M  END
>  <score>  (109) 
5.75948

$$$$

     RDKit          3D

 60 64  0  0  0  0  0  0  0  0999 V2000
   15.5386    5.3355   -1.4086 H   0  0  0  0  0  0  0  0  0  0  0  0
   15.5875    4.2691   -1.6085 C   0  0  0  0  0  0  0  0  0  0  0  0
   15.8319    3.8562   -2.8612 N   0  0  0  0  0  0  0  0  0  0  0  0
   15.8954    2.5320   -3.0960 C   0  0  0  0  0  0  0  0  0  0  0  0
   16.0887    2.2042   -4.1126 H   0  0  0  0  0  0  0  0  0  0  0  0
   15.7168    1.5594   -2.0970 C   0  0  0  0  0  0  0  0  0  0  0  0
   15.8030    0.1186   -2.4064 C   0  0  0  0  0  0  0  0  0  0  0  0
   16.3441   -0.3172   -3.6229 C   0  0  0  0  0  0  0  0  0  0  0  0
   16.7035    0.4141   -4.3408 H   0  0  0  0  0  0  0  0  0  0  0  0
   16.4300   -1.6822   -3.9154 C   0  0  0  0  0  0  0  0  0  0  0  0
   16.8497   -1.9983   -4.8655 H   0  0  0  0  0  0  0  0  0  0  0  0
   15.9765   -2.6310   -2.9893 C   0  0  0  0  0  0  0  0  0  0  0  0
   16.0386   -3.6875   -3.2317 H   0  0  0  0  0  0  0  0  0  0  0  0
   15.4395   -2.2292   -1.7546 C   0  0  0  0  0  0  0  0  0  0  0  0
   14.8924   -3.2320   -0.7383 C   0  0  2  0  0  0  0  0  0  0  0  0
   15.2373   -4.6881   -1.0405 C   0  0  0  0  0  0  0  0  0  0  0  0
   16.4506   -5.2320   -0.5922 C   0  0  0  0  0  0  0  0  0  0  0  0
   17.1514   -4.6002   -0.0545 H   0  0  0  0  0  0  0  0  0  0  0  0
   16.7581   -6.5794   -0.8038 C   0  0  0  0  0  0  0  0  0  0  0  0
   17.6937   -6.9806   -0.4268 H   0  0  0  0  0  0  0  0  0  0  0  0
   15.8590   -7.4055   -1.4840 C   0  0  0  0  0  0  0  0  0  0  0  0
   16.0949   -8.4549   -1.6374 H   0  0  0  0  0  0  0  0  0  0  0  0
   14.6548   -6.8767   -1.9587 C   0  0  0  0  0  0  0  0  0  0  0  0
   13.9561   -7.5198   -2.4861 H   0  0  0  0  0  0  0  0  0  0  0  0
   14.3459   -5.5263   -1.7409 C   0  0  0  0  0  0  0  0  0  0  0  0
   13.3991   -5.1386   -2.1067 H   0  0  0  0  0  0  0  0  0  0  0  0
   13.3785   -3.0202   -0.5727 C   0  0  0  0  0  0  0  0  0  0  0  0
   12.5434   -3.1185   -1.4725 O   0  0  0  0  0  0  0  0  0  0  0  0
   13.0776   -2.6286    0.7319 N   0  0  0  0  0  0  0  0  0  0  0  0
   11.7686   -2.1908    1.2299 N   0  0  0  0  0  0  0  0  0  0  0  0
   11.6836   -1.2453    1.6026 H   0  0  0  0  0  0  0  0  0  0  0  0
   10.5397   -2.7732    0.9088 C   0  0  0  0  0  0  0  0  0  0  0  0
   10.4982   -3.9435    0.5445 O   0  0  0  0  0  0  0  0  0  0  0  0
    9.3608   -1.9100    0.7014 C   0  0  0  0  0  0  0  0  0  0  0  0
    8.1800   -2.4558    0.1681 C   0  0  0  0  0  0  0  0  0  0  0  0
    8.0898   -3.5171   -0.0542 H   0  0  0  0  0  0  0  0  0  0  0  0
    7.1198   -1.6331   -0.1709 C   0  0  0  0  0  0  0  0  0  0  0  0
    6.2252   -2.0632   -0.6028 H   0  0  0  0  0  0  0  0  0  0  0  0
    7.1739   -0.2562    0.0010 C   0  0  0  0  0  0  0  0  0  0  0  0
    6.0492    0.3965   -0.4509 O   0  0  0  0  0  0  0  0  0  0  0  0
    5.9957    1.8258   -0.4461 C   0  0  0  0  0  0  0  0  0  0  0  0
    6.5554    2.2327   -1.2897 H   0  0  0  0  0  0  0  0  0  0  0  0
    4.9504    2.1471   -0.5426 H   0  0  0  0  0  0  0  0  0  0  0  0
    6.4016    2.2459    0.4733 H   0  0  0  0  0  0  0  0  0  0  0  0
    8.3285    0.3055    0.5869 C   0  0  0  0  0  0  0  0  0  0  0  0
    8.4026    1.3724    0.7790 H   0  0  0  0  0  0  0  0  0  0  0  0
    9.4242   -0.5147    0.9038 C   0  0  0  0  0  0  0  0  0  0  0  0
   10.3327   -0.0562    1.2929 H   0  0  0  0  0  0  0  0  0  0  0  0
   14.3067   -2.5659    1.3925 C   0  0  0  0  0  0  0  0  0  0  0  0
   14.5099   -2.2144    2.7009 N   0  0  0  0  0  0  0  0  0  0  0  0
   13.7012   -2.1531    3.3171 H   0  0  0  0  0  0  0  0  0  0  0  0
   15.4335   -2.3745    3.1021 H   0  0  0  0  0  0  0  0  0  0  0  0
   15.3100   -2.8908    0.6372 N   0  0  0  0  0  4  0  0  0  0  0  0
   16.2710   -2.9896    0.9728 H   0  0  0  0  0  0  0  0  0  0  0  0
   15.3499   -0.8479   -1.4915 C   0  0  0  0  0  0  0  0  0  0  0  0
   14.9111   -0.5151   -0.5562 H   0  0  0  0  0  0  0  0  0  0  0  0
   15.4683    2.0014   -0.7958 C   0  0  0  0  0  0  0  0  0  0  0  0
   15.3541    1.2835    0.0104 H   0  0  0  0  0  0  0  0  0  0  0  0
   15.3979    3.3722   -0.5551 C   0  0  0  0  0  0  0  0  0  0  0  0
   15.2059    3.7485    0.4423 H   0  0  0  0  0  0  0  0  0  0  0  0
  1  2  1  0
  2  3  2  0
  3  4  1  0
  4  5  1  0
  4  6  2  0
  6  7  1  0
  7  8  2  0
  8  9  1  0
  8 10  1  0
 10 11  1  0
 10 12  2  0
 12 13  1  0
 12 14  1  0
 15 14  1  6
 15 16  1  0
 16 17  2  0
 17 18  1  0
 17 19  1  0
 19 20  1  0
 19 21  2  0
 21 22  1  0
 21 23  1  0
 23 24  1  0
 23 25  2  0
 25 26  1  0
 15 27  1  0
 27 28  2  0
 27 29  1  0
 29 30  1  0
 30 31  1  0
 30 32  1  0
 32 33  2  0
 32 34  1  0
 34 35  2  0
 35 36  1  0
 35 37  1  0
 37 38  1  0
 37 39  2  0
 39 40  1  0
 40 41  1  0
 41 42  1  0
 41 43  1  0
 41 44  1  0
 39 45  1  0
 45 46  1  0
 45 47  2  0
 47 48  1  0
 29 49  1  0
 49 50  1  0
 50 51  1  0
 50 52  1  0
 49 53  2  0
 53 54  1  0
 14 55  2  0
 55 56  1  0
  6 57  1  0
 57 58  1  0
 57 59  2  0
 59 60  1  0
 59  2  1  0
 55  7  1  0
 53 15  1  0
 25 16  1  0
 47 34  1  0
M  CHG  1  53   1
M  END
>  <score>  (110) 
5.7585

$$$$

     RDKit          3D

 55 59  0  0  0  0  0  0  0  0999 V2000
    7.9220   -5.8414    4.0296 H   0  0  0  0  0  0  0  0  0  0  0  0
    8.3805   -4.9510    3.6127 C   0  0  0  0  0  0  0  0  0  0  0  0
    9.5568   -5.0706    2.9684 N   0  0  0  0  0  0  0  0  0  0  0  0
   10.1707   -3.9596    2.4795 C   0  0  0  0  0  0  0  0  0  0  0  0
   11.4692   -3.9685    1.7358 C   0  0  0  0  0  0  0  0  0  0  0  0
   12.0580   -4.9925    1.3748 O   0  0  0  0  0  0  0  0  0  0  0  0
   12.0089   -2.7298    1.3615 N   0  0  0  0  0  0  0  0  0  0  0  0
   11.5238   -1.8840    1.6724 H   0  0  0  0  0  0  0  0  0  0  0  0
   13.2624   -2.5677    0.6752 N   0  0  0  0  0  0  0  0  0  0  0  0
   13.5131   -2.9766   -0.6259 C   0  0  0  0  0  0  0  0  0  0  0  0
   12.6425   -3.1666   -1.4784 O   0  0  0  0  0  0  0  0  0  0  0  0
   15.0226   -3.2152   -0.7801 C   0  0  1  0  0  0  0  0  0  0  0  0
   15.3252   -4.6759   -1.0740 C   0  0  0  0  0  0  0  0  0  0  0  0
   16.5135   -5.2685   -0.6207 C   0  0  0  0  0  0  0  0  0  0  0  0
   17.2352   -4.6672   -0.0736 H   0  0  0  0  0  0  0  0  0  0  0  0
   16.7609   -6.6258   -0.8461 C   0  0  0  0  0  0  0  0  0  0  0  0
   17.6813   -7.0678   -0.4777 H   0  0  0  0  0  0  0  0  0  0  0  0
   15.8238   -7.4045   -1.5339 C   0  0  0  0  0  0  0  0  0  0  0  0
   16.0160   -8.4596   -1.6998 H   0  0  0  0  0  0  0  0  0  0  0  0
   14.6379   -6.8259   -1.9962 C   0  0  0  0  0  0  0  0  0  0  0  0
   13.9069   -7.4299   -2.5254 H   0  0  0  0  0  0  0  0  0  0  0  0
   14.3917   -5.4686   -1.7680 C   0  0  0  0  0  0  0  0  0  0  0  0
   13.4593   -5.0338   -2.1183 H   0  0  0  0  0  0  0  0  0  0  0  0
   15.5593   -2.2289   -1.7924 C   0  0  0  0  0  0  0  0  0  0  0  0
   16.0576   -2.6359   -3.0362 C   0  0  0  0  0  0  0  0  0  0  0  0
   16.1149   -3.6950   -3.2756 H   0  0  0  0  0  0  0  0  0  0  0  0
   16.4711   -1.6801   -3.9673 C   0  0  0  0  0  0  0  0  0  0  0  0
   16.8548   -1.9981   -4.9299 H   0  0  0  0  0  0  0  0  0  0  0  0
   16.3890   -0.3159   -3.6615 C   0  0  0  0  0  0  0  0  0  0  0  0
   16.7217    0.4144   -4.3901 H   0  0  0  0  0  0  0  0  0  0  0  0
   15.8896    0.1168   -2.4246 C   0  0  0  0  0  0  0  0  0  0  0  0
   15.7840    1.5516   -2.0978 C   0  0  0  0  0  0  0  0  0  0  0  0
   15.9454    2.5289   -3.0926 C   0  0  0  0  0  0  0  0  0  0  0  0
   16.1524    2.2041   -4.1076 H   0  0  0  0  0  0  0  0  0  0  0  0
   15.8422    3.8501   -2.8577 N   0  0  0  0  0  0  0  0  0  0  0  0
   15.5759    4.2563   -1.6075 C   0  0  0  0  0  0  0  0  0  0  0  0
   15.4910    5.3215   -1.4112 H   0  0  0  0  0  0  0  0  0  0  0  0
   15.4055    3.3546   -0.5555 C   0  0  0  0  0  0  0  0  0  0  0  0
   15.1934    3.7333    0.4373 H   0  0  0  0  0  0  0  0  0  0  0  0
   15.5129    1.9848   -0.7950 C   0  0  0  0  0  0  0  0  0  0  0  0
   15.3992    1.2674    0.0132 H   0  0  0  0  0  0  0  0  0  0  0  0
   15.4758   -0.8540   -1.5067 C   0  0  0  0  0  0  0  0  0  0  0  0
   15.0668   -0.5301   -0.5540 H   0  0  0  0  0  0  0  0  0  0  0  0
   15.4775   -2.8551    0.5770 N   0  0  0  0  0  4  0  0  0  0  0  0
   16.4251   -3.0157    0.9208 H   0  0  0  0  0  0  0  0  0  0  0  0
   14.4834   -2.5179    1.3254 C   0  0  0  0  0  0  0  0  0  0  0  0
   14.6265   -2.1814    2.6424 N   0  0  0  0  0  0  0  0  0  0  0  0
   13.7842   -2.1380    3.2088 H   0  0  0  0  0  0  0  0  0  0  0  0
   15.5293   -2.3400    3.0886 H   0  0  0  0  0  0  0  0  0  0  0  0
    9.5701   -2.7014    2.6638 C   0  0  0  0  0  0  0  0  0  0  0  0
   10.0808   -1.8130    2.3112 H   0  0  0  0  0  0  0  0  0  0  0  0
    8.3547   -2.5607    3.2998 C   0  0  0  0  0  0  0  0  0  0  0  0
    7.9407   -1.5577    3.3701 H   0  0  0  0  0  0  0  0  0  0  0  0
    7.7470   -3.7151    3.7949 C   0  0  0  0  0  0  0  0  0  0  0  0
    6.7948   -3.6650    4.3123 H   0  0  0  0  0  0  0  0  0  0  0  0
  1  2  1  0
  2  3  2  0
  3  4  1  0
  4  5  1  0
  5  6  2  0
  5  7  1  0
  7  8  1  0
  7  9  1  0
  9 10  1  0
 10 11  2  0
 10 12  1  0
 12 13  1  6
 13 14  2  0
 14 15  1  0
 14 16  1  0
 16 17  1  0
 16 18  2  0
 18 19  1  0
 18 20  1  0
 20 21  1  0
 20 22  2  0
 22 23  1  0
 12 24  1  0
 24 25  2  0
 25 26  1  0
 25 27  1  0
 27 28  1  0
 27 29  2  0
 29 30  1  0
 29 31  1  0
 31 32  1  0
 32 33  2  0
 33 34  1  0
 33 35  1  0
 35 36  2  0
 36 37  1  0
 36 38  1  0
 38 39  1  0
 38 40  2  0
 40 41  1  0
 31 42  2  0
 42 43  1  0
 12 44  1  0
 44 45  1  0
 44 46  2  0
 46 47  1  0
 47 48  1  0
 47 49  1  0
  4 50  2  0
 50 51  1  0
 50 52  1  0
 52 53  1  0
 52 54  2  0
 54 55  1  0
 54  2  1  0
 46  9  1  0
 22 13  1  0
 42 24  1  0
 40 32  1  0
M  CHG  1  44   1
M  END
>  <score>  (111) 
5.7556

$$$$

     RDKit          3D

 62 67  0  0  0  0  0  0  0  0999 V2000
   15.5223    5.3208   -1.4183 H   0  0  0  0  0  0  0  0  0  0  0  0
   15.5829    4.2547   -1.6142 C   0  0  0  0  0  0  0  0  0  0  0  0
   15.8355    3.8411   -2.8652 N   0  0  0  0  0  0  0  0  0  0  0  0
   15.9031    2.5176   -3.0971 C   0  0  0  0  0  0  0  0  0  0  0  0
   16.1037    2.1919   -4.1138 H   0  0  0  0  0  0  0  0  0  0  0  0
   15.7129    1.5509   -2.0932 C   0  0  0  0  0  0  0  0  0  0  0  0
   15.7813    0.1142   -2.3905 C   0  0  0  0  0  0  0  0  0  0  0  0
   16.3254   -0.3231   -3.6017 C   0  0  0  0  0  0  0  0  0  0  0  0
   16.6954    0.4060   -4.3162 H   0  0  0  0  0  0  0  0  0  0  0  0
   16.4118   -1.6863   -3.8848 C   0  0  0  0  0  0  0  0  0  0  0  0
   16.8377   -2.0059   -4.8292 H   0  0  0  0  0  0  0  0  0  0  0  0
   15.9436   -2.6267   -2.9599 C   0  0  0  0  0  0  0  0  0  0  0  0
   15.9949   -3.6837   -3.1985 H   0  0  0  0  0  0  0  0  0  0  0  0
   15.3922   -2.2211   -1.7333 C   0  0  0  0  0  0  0  0  0  0  0  0
   14.8257   -3.2261   -0.7331 C   0  0  2  0  0  0  0  0  0  0  0  0
   15.1920   -4.6744   -1.0371 C   0  0  0  0  0  0  0  0  0  0  0  0
   16.4144   -5.2024   -0.5867 C   0  0  0  0  0  0  0  0  0  0  0  0
   17.1073   -4.5639   -0.0441 H   0  0  0  0  0  0  0  0  0  0  0  0
   16.7395   -6.5459   -0.7999 C   0  0  0  0  0  0  0  0  0  0  0  0
   17.6790   -6.9378   -0.4204 H   0  0  0  0  0  0  0  0  0  0  0  0
   15.8496   -7.3804   -1.4839 C   0  0  0  0  0  0  0  0  0  0  0  0
   16.0968   -8.4258   -1.6420 H   0  0  0  0  0  0  0  0  0  0  0  0
   14.6396   -6.8651   -1.9606 C   0  0  0  0  0  0  0  0  0  0  0  0
   13.9485   -7.5088   -2.4971 H   0  0  0  0  0  0  0  0  0  0  0  0
   14.3144   -5.5202   -1.7406 C   0  0  0  0  0  0  0  0  0  0  0  0
   13.3651   -5.1358   -2.1013 H   0  0  0  0  0  0  0  0  0  0  0  0
   13.3126   -2.9976   -0.5930 C   0  0  0  0  0  0  0  0  0  0  0  0
   12.5077   -3.0951   -1.5197 O   0  0  0  0  0  0  0  0  0  0  0  0
   13.0082   -2.6290    0.7019 N   0  0  0  0  0  0  0  0  0  0  0  0
   11.8801   -1.8811    1.0223 C   0  0  0  0  0  0  0  0  0  0  0  0
   10.9077   -2.3908    1.8795 C   0  0  0  0  0  0  0  0  0  0  0  0
   11.0946   -3.3302    2.3937 H   0  0  0  0  0  0  0  0  0  0  0  0
    9.6829   -1.7258    2.0260 C   0  0  0  0  0  0  0  0  0  0  0  0
    8.9138   -2.1405    2.6743 H   0  0  0  0  0  0  0  0  0  0  0  0
    9.4700   -0.5114    1.3548 C   0  0  0  0  0  0  0  0  0  0  0  0
    8.5192   -0.0006    1.4603 H   0  0  0  0  0  0  0  0  0  0  0  0
   10.5127    0.1007    0.6328 C   0  0  0  0  0  0  0  0  0  0  0  0
   10.3714    1.4795    0.1189 C   0  0  0  0  0  0  0  0  0  0  0  0
   11.5116    2.2732   -0.1036 C   0  0  0  0  0  0  0  0  0  0  0  0
   12.4974    1.8680    0.1029 H   0  0  0  0  0  0  0  0  0  0  0  0
   11.3975    3.5936   -0.5479 C   0  0  0  0  0  0  0  0  0  0  0  0
   12.2834    4.2106   -0.6718 H   0  0  0  0  0  0  0  0  0  0  0  0
   10.1381    4.1272   -0.8298 C   0  0  0  0  0  0  0  0  0  0  0  0
   10.0522    5.1396   -1.2109 H   0  0  0  0  0  0  0  0  0  0  0  0
    8.9907    3.3593   -0.6051 C   0  0  0  0  0  0  0  0  0  0  0  0
    8.0089    3.7803   -0.8067 H   0  0  0  0  0  0  0  0  0  0  0  0
    9.1071    2.0525   -0.1133 C   0  0  0  0  0  0  0  0  0  0  0  0
    8.2100    1.4728    0.0831 H   0  0  0  0  0  0  0  0  0  0  0  0
   11.7017   -0.6244    0.4380 C   0  0  0  0  0  0  0  0  0  0  0  0
   12.4775   -0.2400   -0.2144 H   0  0  0  0  0  0  0  0  0  0  0  0
   14.2068   -2.5561    1.3800 C   0  0  0  0  0  0  0  0  0  0  0  0
   14.4166   -2.1624    2.6697 N   0  0  0  0  0  0  0  0  0  0  0  0
   15.3466   -2.3205    3.0597 H   0  0  0  0  0  0  0  0  0  0  0  0
   13.6133   -2.0937    3.2893 H   0  0  0  0  0  0  0  0  0  0  0  0
   15.2119   -2.9067    0.6549 N   0  0  0  0  0  4  0  0  0  0  0  0
   16.1697   -2.9749    1.0067 H   0  0  0  0  0  0  0  0  0  0  0  0
   15.3133   -0.8407   -1.4701 C   0  0  0  0  0  0  0  0  0  0  0  0
   14.8665   -0.5010   -0.5395 H   0  0  0  0  0  0  0  0  0  0  0  0
   15.4730    1.9913   -0.7925 C   0  0  0  0  0  0  0  0  0  0  0  0
   15.3683    1.2735    0.0160 H   0  0  0  0  0  0  0  0  0  0  0  0
   15.4008    3.3603   -0.5565 C   0  0  0  0  0  0  0  0  0  0  0  0
   15.2098    3.7329    0.4421 H   0  0  0  0  0  0  0  0  0  0  0  0
  1  2  1  0
  2  3  2  0
  3  4  1  0
  4  5  1  0
  4  6  2  0
  6  7  1  0
  7  8  2  0
  8  9  1  0
  8 10  1  0
 10 11  1  0
 10 12  2  0
 12 13  1  0
 12 14  1  0
 15 14  1  6
 15 16  1  0
 16 17  2  0
 17 18  1  0
 17 19  1  0
 19 20  1  0
 19 21  2  0
 21 22  1  0
 21 23  1  0
 23 24  1  0
 23 25  2  0
 25 26  1  0
 15 27  1  0
 27 28  2  0
 27 29  1  0
 29 30  1  0
 30 31  2  0
 31 32  1  0
 31 33  1  0
 33 34  1  0
 33 35  2  0
 35 36  1  0
 35 37  1  0
 37 38  1  0
 38 39  2  0
 39 40  1  0
 39 41  1  0
 41 42  1  0
 41 43  2  0
 43 44  1  0
 43 45  1  0
 45 46  1  0
 45 47  2  0
 47 48  1  0
 37 49  2  0
 49 50  1  0
 29 51  1  0
 51 52  1  0
 52 53  1  0
 52 54  1  0
 51 55  2  0
 55 56  1  0
 14 57  2  0
 57 58  1  0
  6 59  1  0
 59 60  1  0
 59 61  2  0
 61 62  1  0
 61  2  1  0
 57  7  1  0
 55 15  1  0
 25 16  1  0
 49 30  1  0
 47 38  1  0
M  CHG  1  55   1
M  END
>  <score>  (112) 
5.75286

$$$$

     RDKit          3D

 48 51  0  0  0  0  0  0  0  0999 V2000
   15.5535    5.3508   -1.3961 H   0  0  0  0  0  0  0  0  0  0  0  0
   15.5870    4.2846   -1.6046 C   0  0  0  0  0  0  0  0  0  0  0  0
   15.8248    3.8690   -2.8583 N   0  0  0  0  0  0  0  0  0  0  0  0
   15.8788    2.5429   -3.0935 C   0  0  0  0  0  0  0  0  0  0  0  0
   16.0684    2.2074   -4.1078 H   0  0  0  0  0  0  0  0  0  0  0  0
   15.6967    1.5692   -2.0965 C   0  0  0  0  0  0  0  0  0  0  0  0
   15.7753    0.1233   -2.4034 C   0  0  0  0  0  0  0  0  0  0  0  0
   16.3330   -0.3179   -3.6087 C   0  0  0  0  0  0  0  0  0  0  0  0
   16.7131    0.4201   -4.3064 H   0  0  0  0  0  0  0  0  0  0  0  0
   16.4191   -1.6842   -3.9036 C   0  0  0  0  0  0  0  0  0  0  0  0
   16.8637   -2.0063   -4.8386 H   0  0  0  0  0  0  0  0  0  0  0  0
   15.9360   -2.6333   -2.9954 C   0  0  0  0  0  0  0  0  0  0  0  0
   15.9957   -3.6925   -3.2319 H   0  0  0  0  0  0  0  0  0  0  0  0
   15.3754   -2.2278   -1.7730 C   0  0  0  0  0  0  0  0  0  0  0  0
   14.8109   -3.2385   -0.7723 C   0  0  2  0  0  0  0  0  0  0  0  0
   15.1726   -4.6996   -1.0711 C   0  0  0  0  0  0  0  0  0  0  0  0
   16.3901   -5.2222   -0.6028 C   0  0  0  0  0  0  0  0  0  0  0  0
   17.0684   -4.5708   -0.0594 H   0  0  0  0  0  0  0  0  0  0  0  0
   16.7301   -6.5645   -0.8006 C   0  0  0  0  0  0  0  0  0  0  0  0
   17.6699   -6.9479   -0.4157 H   0  0  0  0  0  0  0  0  0  0  0  0
   15.8548   -7.4144   -1.4791 C   0  0  0  0  0  0  0  0  0  0  0  0
   16.1084   -8.4617   -1.6151 H   0  0  0  0  0  0  0  0  0  0  0  0
   14.6424   -6.9152   -1.9645 C   0  0  0  0  0  0  0  0  0  0  0  0
   13.9641   -7.5817   -2.4888 H   0  0  0  0  0  0  0  0  0  0  0  0
   14.3013   -5.5671   -1.7633 C   0  0  0  0  0  0  0  0  0  0  0  0
   13.3491   -5.1987   -2.1345 H   0  0  0  0  0  0  0  0  0  0  0  0
   13.2932   -3.0275   -0.5844 C   0  0  0  0  0  0  0  0  0  0  0  0
   12.3798   -3.1099   -1.4010 O   0  0  0  0  0  0  0  0  0  0  0  0
   13.0443   -2.7706    0.7305 N   0  0  0  0  0  0  0  0  0  0  0  0
   11.7939   -2.5172    1.2037 C   0  0  0  0  0  0  0  0  0  0  0  0
   11.0145   -1.9733    0.4318 O   0  0  0  0  0  0  0  0  0  0  0  0
   11.4320   -3.0392    2.4463 N   0  0  0  0  0  0  0  0  0  0  0  0
   12.1567   -3.6241    2.8689 H   0  0  0  0  0  0  0  0  0  0  0  0
   10.1580   -2.9246    3.1506 N   0  0  0  0  0  0  0  0  0  0  0  0
    9.3622   -3.2957    2.6241 H   0  0  0  0  0  0  0  0  0  0  0  0
    9.9668   -1.9733    3.4836 H   0  0  0  0  0  0  0  0  0  0  0  0
   14.2215   -2.7061    1.4033 C   0  0  0  0  0  0  0  0  0  0  0  0
   14.3647   -2.4193    2.7261 N   0  0  0  0  0  0  0  0  0  0  0  0
   13.5845   -1.9965    3.2283 H   0  0  0  0  0  0  0  0  0  0  0  0
   15.3095   -2.3278    3.1004 H   0  0  0  0  0  0  0  0  0  0  0  0
   15.2286   -2.9226    0.6187 N   0  0  0  0  0  4  0  0  0  0  0  0
   16.2012   -2.9364    0.9369 H   0  0  0  0  0  0  0  0  0  0  0  0
   15.3018   -0.8441   -1.4993 C   0  0  0  0  0  0  0  0  0  0  0  0
   14.8607   -0.5048   -0.5668 H   0  0  0  0  0  0  0  0  0  0  0  0
   15.4455    2.0129   -0.7986 C   0  0  0  0  0  0  0  0  0  0  0  0
   15.3305    1.2805   -0.0061 H   0  0  0  0  0  0  0  0  0  0  0  0
   15.3822    3.3865   -0.5554 C   0  0  0  0  0  0  0  0  0  0  0  0
   15.1816    3.7712    0.4369 H   0  0  0  0  0  0  0  0  0  0  0  0
  1  2  1  0
  2  3  2  0
  3  4  1  0
  4  5  1  0
  4  6  2  0
  6  7  1  0
  7  8  2  0
  8  9  1  0
  8 10  1  0
 10 11  1  0
 10 12  2  0
 12 13  1  0
 12 14  1  0
 15 14  1  6
 15 16  1  0
 16 17  2  0
 17 18  1  0
 17 19  1  0
 19 20  1  0
 19 21  2  0
 21 22  1  0
 21 23  1  0
 23 24  1  0
 23 25  2  0
 25 26  1  0
 15 27  1  0
 27 28  2  0
 27 29  1  0
 29 30  1  0
 30 31  2  0
 30 32  1  0
 32 33  1  0
 32 34  1  0
 34 35  1  0
 34 36  1  0
 29 37  1  0
 37 38  1  0
 38 39  1  0
 38 40  1  0
 37 41  2  0
 41 42  1  0
 14 43  2  0
 43 44  1  0
  6 45  1  0
 45 46  1  0
 45 47  2  0
 47 48  1  0
 47  2  1  0
 43  7  1  0
 41 15  1  0
 25 16  1  0
M  CHG  1  41   1
M  END
>  <score>  (113) 
5.75236

$$$$

     RDKit          3D

 51 55  0  0  0  0  0  0  0  0999 V2000
   11.5168   -3.8993    1.9098 H   0  0  0  0  0  0  0  0  0  0  0  0
   11.7734   -2.9807    1.3758 C   0  0  0  0  0  0  0  0  0  0  0  0
   10.8186   -2.0148    1.1723 C   0  0  0  0  0  0  0  0  0  0  0  0
    9.1447   -2.1057    1.6924 S   0  0  0  0  0  0  0  0  0  0  0  0
    8.9462   -0.4068    1.2592 C   0  0  0  0  0  0  0  0  0  0  0  0
    7.9945    0.2858    1.5613 O   0  0  0  0  0  0  0  0  0  0  0  0
    9.9897    0.1274    0.5635 N   0  0  0  0  0  0  0  0  0  0  0  0
   10.1558    1.1252    0.5617 H   0  0  0  0  0  0  0  0  0  0  0  0
   11.0645   -0.7009    0.5802 C   0  0  0  0  0  0  0  0  0  0  0  0
   12.0963   -0.2001    0.1914 O   0  0  0  0  0  0  0  0  0  0  0  0
   13.0375   -2.7865    0.8202 N   0  0  0  0  0  0  0  0  0  0  0  0
   13.3186   -3.0526   -0.5022 C   0  0  0  0  0  0  0  0  0  0  0  0
   12.4480   -3.2501   -1.3510 O   0  0  0  0  0  0  0  0  0  0  0  0
   14.8416   -3.1991   -0.6829 C   0  0  1  0  0  0  0  0  0  0  0  0
   15.2193   -4.6440   -0.9963 C   0  0  0  0  0  0  0  0  0  0  0  0
   16.4422   -5.1750   -0.5558 C   0  0  0  0  0  0  0  0  0  0  0  0
   17.1348   -4.5407   -0.0092 H   0  0  0  0  0  0  0  0  0  0  0  0
   16.7688   -6.5117   -0.7999 C   0  0  0  0  0  0  0  0  0  0  0  0
   17.7123   -6.9071   -0.4376 H   0  0  0  0  0  0  0  0  0  0  0  0
   15.8796   -7.3336   -1.4973 C   0  0  0  0  0  0  0  0  0  0  0  0
   16.1290   -8.3744   -1.6728 H   0  0  0  0  0  0  0  0  0  0  0  0
   14.6717   -6.8134   -1.9686 C   0  0  0  0  0  0  0  0  0  0  0  0
   13.9863   -7.4509   -2.5183 H   0  0  0  0  0  0  0  0  0  0  0  0
   14.3457   -5.4751   -1.7247 C   0  0  0  0  0  0  0  0  0  0  0  0
   13.4025   -5.0845   -2.0969 H   0  0  0  0  0  0  0  0  0  0  0  0
   15.3838   -2.2092   -1.7107 C   0  0  0  0  0  0  0  0  0  0  0  0
   15.9169   -2.6372   -2.9386 C   0  0  0  0  0  0  0  0  0  0  0  0
   15.9627   -3.6987   -3.1615 H   0  0  0  0  0  0  0  0  0  0  0  0
   16.3910   -1.7134   -3.8763 C   0  0  0  0  0  0  0  0  0  0  0  0
   16.8005   -2.0568   -4.8200 H   0  0  0  0  0  0  0  0  0  0  0  0
   16.3378   -0.3441   -3.6003 C   0  0  0  0  0  0  0  0  0  0  0  0
   16.7110    0.3715   -4.3266 H   0  0  0  0  0  0  0  0  0  0  0  0
   15.8054    0.1152   -2.3875 C   0  0  0  0  0  0  0  0  0  0  0  0
   15.7479    1.5563   -2.0842 C   0  0  0  0  0  0  0  0  0  0  0  0
   15.9283    2.5234   -3.0872 C   0  0  0  0  0  0  0  0  0  0  0  0
   16.1218    2.1919   -4.1022 H   0  0  0  0  0  0  0  0  0  0  0  0
   15.8621    3.8485   -2.8587 N   0  0  0  0  0  0  0  0  0  0  0  0
   15.6156    4.2660   -1.6076 C   0  0  0  0  0  0  0  0  0  0  0  0
   15.5527    5.3324   -1.4118 H   0  0  0  0  0  0  0  0  0  0  0  0
   15.4391    3.3745   -0.5473 C   0  0  0  0  0  0  0  0  0  0  0  0
   15.2486    3.7552    0.4491 H   0  0  0  0  0  0  0  0  0  0  0  0
   15.5118    2.0029   -0.7816 C   0  0  0  0  0  0  0  0  0  0  0  0
   15.3997    1.2882    0.0292 H   0  0  0  0  0  0  0  0  0  0  0  0
   15.3232   -0.8268   -1.4623 C   0  0  0  0  0  0  0  0  0  0  0  0
   14.8908   -0.4728   -0.5305 H   0  0  0  0  0  0  0  0  0  0  0  0
   15.2574   -2.8539    0.6972 N   0  0  0  0  0  4  0  0  0  0  0  0
   16.2223   -2.9264    1.0290 H   0  0  0  0  0  0  0  0  0  0  0  0
   14.2420   -2.7017    1.4889 C   0  0  0  0  0  0  0  0  0  0  0  0
   14.4081   -2.4804    2.8292 N   0  0  0  0  0  0  0  0  0  0  0  0
   13.6097   -2.1249    3.3556 H   0  0  0  0  0  0  0  0  0  0  0  0
   15.3477   -2.2511    3.1522 H   0  0  0  0  0  0  0  0  0  0  0  0
  1  2  1  0
  2  3  2  3
  3  4  1  0
  4  5  1  0
  5  6  2  0
  5  7  1  0
  7  8  1  0
  7  9  1  0
  9 10  2  0
  2 11  1  0
 11 12  1  0
 12 13  2  0
 12 14  1  0
 14 15  1  6
 15 16  2  0
 16 17  1  0
 16 18  1  0
 18 19  1  0
 18 20  2  0
 20 21  1  0
 20 22  1  0
 22 23  1  0
 22 24  2  0
 24 25  1  0
 14 26  1  0
 26 27  2  0
 27 28  1  0
 27 29  1  0
 29 30  1  0
 29 31  2  0
 31 32  1  0
 31 33  1  0
 33 34  1  0
 34 35  2  0
 35 36  1  0
 35 37  1  0
 37 38  2  0
 38 39  1  0
 38 40  1  0
 40 41  1  0
 40 42  2  0
 42 43  1  0
 33 44  2  0
 44 45  1  0
 14 46  1  0
 46 47  1  0
 46 48  2  0
 48 49  1  0
 49 50  1  0
 49 51  1  0
  9  3  1  0
 48 11  1  0
 24 15  1  0
 44 26  1  0
 42 34  1  0
M  CHG  1  46   1
M  END
>  <score>  (114) 
5.75167

$$$$

     RDKit          3D

 45 48  0  0  0  0  0  0  0  0999 V2000
   15.5697    5.3720   -1.3877 H   0  0  0  0  0  0  0  0  0  0  0  0
   15.5836    4.3031   -1.5953 C   0  0  0  0  0  0  0  0  0  0  0  0
   15.8194    3.8804   -2.8471 N   0  0  0  0  0  0  0  0  0  0  0  0
   15.8636    2.5529   -3.0876 C   0  0  0  0  0  0  0  0  0  0  0  0
   16.0458    2.2248   -4.1058 H   0  0  0  0  0  0  0  0  0  0  0  0
   15.6856    1.5713   -2.0955 C   0  0  0  0  0  0  0  0  0  0  0  0
   15.7715    0.1188   -2.4107 C   0  0  0  0  0  0  0  0  0  0  0  0
   16.3480   -0.3216   -3.6113 C   0  0  0  0  0  0  0  0  0  0  0  0
   16.7255    0.4071   -4.3220 H   0  0  0  0  0  0  0  0  0  0  0  0
   16.4316   -1.6896   -3.9086 C   0  0  0  0  0  0  0  0  0  0  0  0
   16.8648   -2.0085   -4.8521 H   0  0  0  0  0  0  0  0  0  0  0  0
   15.9432   -2.6446   -3.0059 C   0  0  0  0  0  0  0  0  0  0  0  0
   16.0047   -3.7002   -3.2592 H   0  0  0  0  0  0  0  0  0  0  0  0
   15.3742   -2.2449   -1.7839 C   0  0  0  0  0  0  0  0  0  0  0  0
   14.8080   -3.2548   -0.7828 C   0  0  2  0  0  0  0  0  0  0  0  0
   15.1725   -4.7172   -1.0723 C   0  0  0  0  0  0  0  0  0  0  0  0
   16.3919   -5.2379   -0.6096 C   0  0  0  0  0  0  0  0  0  0  0  0
   17.0677   -4.5868   -0.0634 H   0  0  0  0  0  0  0  0  0  0  0  0
   16.7296   -6.5821   -0.8027 C   0  0  0  0  0  0  0  0  0  0  0  0
   17.6725   -6.9560   -0.4166 H   0  0  0  0  0  0  0  0  0  0  0  0
   15.8540   -7.4404   -1.4725 C   0  0  0  0  0  0  0  0  0  0  0  0
   16.1210   -8.4861   -1.6114 H   0  0  0  0  0  0  0  0  0  0  0  0
   14.6434   -6.9391   -1.9617 C   0  0  0  0  0  0  0  0  0  0  0  0
   13.9722   -7.6118   -2.4880 H   0  0  0  0  0  0  0  0  0  0  0  0
   14.3040   -5.5887   -1.7672 C   0  0  0  0  0  0  0  0  0  0  0  0
   13.3539   -5.2326   -2.1559 H   0  0  0  0  0  0  0  0  0  0  0  0
   13.2948   -3.0456   -0.5839 C   0  0  0  0  0  0  0  0  0  0  0  0
   12.4083   -3.0896   -1.4302 O   0  0  0  0  0  0  0  0  0  0  0  0
   13.0307   -2.6697    0.7098 N   0  0  0  0  0  0  0  0  0  0  0  0
   11.7168   -2.4983    1.3054 C   0  0  0  0  0  0  0  0  0  0  0  0
   10.9364   -2.3666    0.5481 H   0  0  0  0  0  0  0  0  0  0  0  0
   11.6878   -1.6197    1.9577 H   0  0  0  0  0  0  0  0  0  0  0  0
   11.4503   -3.6111    2.0210 F   0  0  0  0  0  0  0  0  0  0  0  0
   14.2221   -2.6345    1.3702 C   0  0  0  0  0  0  0  0  0  0  0  0
   14.3871   -2.3410    2.6874 N   0  0  0  0  0  0  0  0  0  0  0  0
   15.3255   -2.3505    3.0856 H   0  0  0  0  0  0  0  0  0  0  0  0
   13.5710   -2.1522    3.2651 H   0  0  0  0  0  0  0  0  0  0  0  0
   15.2138   -2.8984    0.5929 N   0  0  0  0  0  4  0  0  0  0  0  0
   16.1805   -2.9146    0.9077 H   0  0  0  0  0  0  0  0  0  0  0  0
   15.2963   -0.8590   -1.5155 C   0  0  0  0  0  0  0  0  0  0  0  0
   14.8707   -0.5257   -0.5762 H   0  0  0  0  0  0  0  0  0  0  0  0
   15.4351    2.0256   -0.7967 C   0  0  0  0  0  0  0  0  0  0  0  0
   15.2978    1.3097    0.0048 H   0  0  0  0  0  0  0  0  0  0  0  0
   15.3719    3.4016   -0.5511 C   0  0  0  0  0  0  0  0  0  0  0  0
   15.1681    3.7874    0.4412 H   0  0  0  0  0  0  0  0  0  0  0  0
  1  2  1  0
  2  3  2  0
  3  4  1  0
  4  5  1  0
  4  6  2  0
  6  7  1  0
  7  8  2  0
  8  9  1  0
  8 10  1  0
 10 11  1  0
 10 12  2  0
 12 13  1  0
 12 14  1  0
 15 14  1  6
 15 16  1  0
 16 17  2  0
 17 18  1  0
 17 19  1  0
 19 20  1  0
 19 21  2  0
 21 22  1  0
 21 23  1  0
 23 24  1  0
 23 25  2  0
 25 26  1  0
 15 27  1  0
 27 28  2  0
 27 29  1  0
 29 30  1  0
 30 31  1  0
 30 32  1  0
 30 33  1  0
 29 34  1  0
 34 35  1  0
 35 36  1  0
 35 37  1  0
 34 38  2  0
 38 39  1  0
 14 40  2  0
 40 41  1  0
  6 42  1  0
 42 43  1  0
 42 44  2  0
 44 45  1  0
 44  2  1  0
 40  7  1  0
 38 15  1  0
 25 16  1  0
M  CHG  1  38   1
M  END
>  <score>  (115) 
5.74869

$$$$

     RDKit          3D

 42 45  0  0  0  0  0  0  0  0999 V2000
   15.5691    5.3723   -1.3874 H   0  0  0  0  0  0  0  0  0  0  0  0
   15.5827    4.3030   -1.5956 C   0  0  0  0  0  0  0  0  0  0  0  0
   15.8190    3.8803   -2.8473 N   0  0  0  0  0  0  0  0  0  0  0  0
   15.8640    2.5522   -3.0885 C   0  0  0  0  0  0  0  0  0  0  0  0
   16.0488    2.2207   -4.1053 H   0  0  0  0  0  0  0  0  0  0  0  0
   15.6869    1.5707   -2.0963 C   0  0  0  0  0  0  0  0  0  0  0  0
   15.7691    0.1178   -2.4109 C   0  0  0  0  0  0  0  0  0  0  0  0
   16.3488   -0.3215   -3.6095 C   0  0  0  0  0  0  0  0  0  0  0  0
   16.7220    0.4123   -4.3181 H   0  0  0  0  0  0  0  0  0  0  0  0
   16.4322   -1.6895   -3.9080 C   0  0  0  0  0  0  0  0  0  0  0  0
   16.8647   -2.0061   -4.8522 H   0  0  0  0  0  0  0  0  0  0  0  0
   15.9447   -2.6451   -3.0057 C   0  0  0  0  0  0  0  0  0  0  0  0
   16.0035   -3.7018   -3.2549 H   0  0  0  0  0  0  0  0  0  0  0  0
   15.3797   -2.2452   -1.7839 C   0  0  0  0  0  0  0  0  0  0  0  0
   14.8160   -3.2541   -0.7852 C   0  0  2  0  0  0  0  0  0  0  0  0
   15.1761   -4.7166   -1.0744 C   0  0  0  0  0  0  0  0  0  0  0  0
   16.3946   -5.2373   -0.6113 C   0  0  0  0  0  0  0  0  0  0  0  0
   17.0663   -4.5847   -0.0617 H   0  0  0  0  0  0  0  0  0  0  0  0
   16.7297   -6.5816   -0.8036 C   0  0  0  0  0  0  0  0  0  0  0  0
   17.6714   -6.9558   -0.4161 H   0  0  0  0  0  0  0  0  0  0  0  0
   15.8534   -7.4389   -1.4735 C   0  0  0  0  0  0  0  0  0  0  0  0
   16.1200   -8.4852   -1.6114 H   0  0  0  0  0  0  0  0  0  0  0  0
   14.6432   -6.9367   -1.9622 C   0  0  0  0  0  0  0  0  0  0  0  0
   13.9723   -7.6100   -2.4877 H   0  0  0  0  0  0  0  0  0  0  0  0
   14.3044   -5.5865   -1.7667 C   0  0  0  0  0  0  0  0  0  0  0  0
   13.3533   -5.2296   -2.1535 H   0  0  0  0  0  0  0  0  0  0  0  0
   13.3011   -3.0320   -0.6069 C   0  0  0  0  0  0  0  0  0  0  0  0
   12.4351   -3.0922   -1.4752 O   0  0  0  0  0  0  0  0  0  0  0  0
   13.0314   -2.6833    0.6957 N   0  0  0  0  0  0  0  0  0  0  0  0
   11.1546   -2.1964    1.4975 I   0  0  0  0  0  0  0  0  0  0  0  0
   14.2255   -2.6287    1.3645 C   0  0  0  0  0  0  0  0  0  0  0  0
   14.3971   -2.3286    2.6859 N   0  0  0  0  0  0  0  0  0  0  0  0
   15.3332   -2.3488    3.0922 H   0  0  0  0  0  0  0  0  0  0  0  0
   13.5827   -2.1368    3.2663 H   0  0  0  0  0  0  0  0  0  0  0  0
   15.2219   -2.9035    0.5924 N   0  0  0  0  0  4  0  0  0  0  0  0
   16.1895   -2.9181    0.9086 H   0  0  0  0  0  0  0  0  0  0  0  0
   15.2932   -0.8597   -1.5162 C   0  0  0  0  0  0  0  0  0  0  0  0
   14.8706   -0.5255   -0.5754 H   0  0  0  0  0  0  0  0  0  0  0  0
   15.4394    2.0242   -0.7975 C   0  0  0  0  0  0  0  0  0  0  0  0
   15.3009    1.3027   -0.0009 H   0  0  0  0  0  0  0  0  0  0  0  0
   15.3734    3.4006   -0.5518 C   0  0  0  0  0  0  0  0  0  0  0  0
   15.1682    3.7874    0.4395 H   0  0  0  0  0  0  0  0  0  0  0  0
  1  2  1  0
  2  3  2  0
  3  4  1  0
  4  5  1  0
  4  6  2  0
  6  7  1  0
  7  8  2  0
  8  9  1  0
  8 10  1  0
 10 11  1  0
 10 12  2  0
 12 13  1  0
 12 14  1  0
 15 14  1  6
 15 16  1  0
 16 17  2  0
 17 18  1  0
 17 19  1  0
 19 20  1  0
 19 21  2  0
 21 22  1  0
 21 23  1  0
 23 24  1  0
 23 25  2  0
 25 26  1  0
 15 27  1  0
 27 28  2  0
 27 29  1  0
 29 30  1  0
 29 31  1  0
 31 32  1  0
 32 33  1  0
 32 34  1  0
 31 35  2  0
 35 36  1  0
 14 37  2  0
 37 38  1  0
  6 39  1  0
 39 40  1  0
 39 41  2  0
 41 42  1  0
 41  2  1  0
 37  7  1  0
 35 15  1  0
 25 16  1  0
M  CHG  1  35   1
M  END
>  <score>  (116) 
5.74655

$$$$

     RDKit          3D

 55 59  0  0  0  0  0  0  0  0999 V2000
   15.5693    5.3719   -1.3875 H   0  0  0  0  0  0  0  0  0  0  0  0
   15.5838    4.3028   -1.5959 C   0  0  0  0  0  0  0  0  0  0  0  0
   15.8192    3.8801   -2.8482 N   0  0  0  0  0  0  0  0  0  0  0  0
   15.8645    2.5521   -3.0875 C   0  0  0  0  0  0  0  0  0  0  0  0
   16.0467    2.2237   -4.1051 H   0  0  0  0  0  0  0  0  0  0  0  0
   15.6853    1.5699   -2.0961 C   0  0  0  0  0  0  0  0  0  0  0  0
   15.7712    0.1179   -2.4099 C   0  0  0  0  0  0  0  0  0  0  0  0
   16.3459   -0.3216   -3.6110 C   0  0  0  0  0  0  0  0  0  0  0  0
   16.7249    0.4076   -4.3204 H   0  0  0  0  0  0  0  0  0  0  0  0
   16.4313   -1.6898   -3.9070 C   0  0  0  0  0  0  0  0  0  0  0  0
   16.8644   -2.0082   -4.8514 H   0  0  0  0  0  0  0  0  0  0  0  0
   15.9420   -2.6452   -3.0033 C   0  0  0  0  0  0  0  0  0  0  0  0
   16.0037   -3.7011   -3.2578 H   0  0  0  0  0  0  0  0  0  0  0  0
   15.3708   -2.2456   -1.7810 C   0  0  0  0  0  0  0  0  0  0  0  0
   14.7996   -3.2536   -0.7786 C   0  0  2  0  0  0  0  0  0  0  0  0
   15.1675   -4.7167   -1.0692 C   0  0  0  0  0  0  0  0  0  0  0  0
   16.3896   -5.2370   -0.6090 C   0  0  0  0  0  0  0  0  0  0  0  0
   17.0663   -4.5859   -0.0637 H   0  0  0  0  0  0  0  0  0  0  0  0
   16.7301   -6.5809   -0.8038 C   0  0  0  0  0  0  0  0  0  0  0  0
   17.6724   -6.9563   -0.4165 H   0  0  0  0  0  0  0  0  0  0  0  0
   15.8541   -7.4398   -1.4726 C   0  0  0  0  0  0  0  0  0  0  0  0
   16.1205   -8.4857   -1.6116 H   0  0  0  0  0  0  0  0  0  0  0  0
   14.6433   -6.9389   -1.9619 C   0  0  0  0  0  0  0  0  0  0  0  0
   13.9719   -7.6113   -2.4884 H   0  0  0  0  0  0  0  0  0  0  0  0
   14.3027   -5.5886   -1.7667 C   0  0  0  0  0  0  0  0  0  0  0  0
   13.3535   -5.2307   -2.1543 H   0  0  0  0  0  0  0  0  0  0  0  0
   13.2860   -3.0219   -0.5843 C   0  0  0  0  0  0  0  0  0  0  0  0
   12.4244   -3.0614   -1.4589 O   0  0  0  0  0  0  0  0  0  0  0  0
   13.0085   -2.6636    0.7168 N   0  0  0  0  0  0  0  0  0  0  0  0
   11.7846   -2.0134    1.1801 C   0  0  0  0  0  0  0  0  0  0  0  0
   11.8440   -1.8865    2.2625 H   0  0  0  0  0  0  0  0  0  0  0  0
   10.5344   -2.8285    0.8566 C   0  0  0  0  0  0  0  0  0  0  0  0
   10.0070   -3.0644    1.7849 H   0  0  0  0  0  0  0  0  0  0  0  0
   10.7852   -3.7702    0.3639 H   0  0  0  0  0  0  0  0  0  0  0  0
    9.6476   -1.9670   -0.0386 C   0  0  0  0  0  0  0  0  0  0  0  0
    9.8104   -2.2346   -1.0864 H   0  0  0  0  0  0  0  0  0  0  0  0
    8.5850   -2.1023    0.1828 H   0  0  0  0  0  0  0  0  0  0  0  0
   10.0963   -0.5373    0.2073 C   0  0  0  0  0  0  0  0  0  0  0  0
    9.5611   -0.1147    1.0626 H   0  0  0  0  0  0  0  0  0  0  0  0
    9.9075    0.1057   -0.6571 H   0  0  0  0  0  0  0  0  0  0  0  0
   11.5823   -0.6497    0.5241 C   0  0  0  0  0  0  0  0  0  0  0  0
   12.1685   -0.5797   -0.3942 H   0  0  0  0  0  0  0  0  0  0  0  0
   11.9016    0.1572    1.1848 H   0  0  0  0  0  0  0  0  0  0  0  0
   14.2150   -2.6102    1.3642 C   0  0  0  0  0  0  0  0  0  0  0  0
   14.4019   -2.3040    2.6804 N   0  0  0  0  0  0  0  0  0  0  0  0
   15.3472   -2.3030    3.0673 H   0  0  0  0  0  0  0  0  0  0  0  0
   13.5892   -2.2854    3.2927 H   0  0  0  0  0  0  0  0  0  0  0  0
   15.2072   -2.9017    0.5964 N   0  0  0  0  0  4  0  0  0  0  0  0
   16.1760   -2.9167    0.9090 H   0  0  0  0  0  0  0  0  0  0  0  0
   15.2964   -0.8593   -1.5138 C   0  0  0  0  0  0  0  0  0  0  0  0
   14.8700   -0.5265   -0.5752 H   0  0  0  0  0  0  0  0  0  0  0  0
   15.4345    2.0243   -0.7976 C   0  0  0  0  0  0  0  0  0  0  0  0
   15.2987    1.3078    0.0036 H   0  0  0  0  0  0  0  0  0  0  0  0
   15.3720    3.4010   -0.5512 C   0  0  0  0  0  0  0  0  0  0  0  0
   15.1678    3.7874    0.4415 H   0  0  0  0  0  0  0  0  0  0  0  0
  1  2  1  0
  2  3  2  0
  3  4  1  0
  4  5  1  0
  4  6  2  0
  6  7  1  0
  7  8  2  0
  8  9  1  0
  8 10  1  0
 10 11  1  0
 10 12  2  0
 12 13  1  0
 12 14  1  0
 15 14  1  6
 15 16  1  0
 16 17  2  0
 17 18  1  0
 17 19  1  0
 19 20  1  0
 19 21  2  0
 21 22  1  0
 21 23  1  0
 23 24  1  0
 23 25  2  0
 25 26  1  0
 15 27  1  0
 27 28  2  0
 27 29  1  0
 29 30  1  0
 30 31  1  0
 30 32  1  0
 32 33  1  0
 32 34  1  0
 32 35  1  0
 35 36  1  0
 35 37  1  0
 35 38  1  0
 38 39  1  0
 38 40  1  0
 38 41  1  0
 41 42  1  0
 41 43  1  0
 29 44  1  0
 44 45  1  0
 45 46  1  0
 45 47  1  0
 44 48  2  0
 48 49  1  0
 14 50  2  0
 50 51  1  0
  6 52  1  0
 52 53  1  0
 52 54  2  0
 54 55  1  0
 54  2  1  0
 50  7  1  0
 48 15  1  0
 25 16  1  0
 41 30  1  0
M  CHG  1  48   1
M  END
>  <score>  (117) 
5.74447

$$$$

     RDKit          3D

 52 56  0  0  0  0  0  0  0  0999 V2000
   15.5352    5.3269   -1.4119 H   0  0  0  0  0  0  0  0  0  0  0  0
   15.5861    4.2622   -1.6125 C   0  0  0  0  0  0  0  0  0  0  0  0
   15.8390    3.8526   -2.8641 N   0  0  0  0  0  0  0  0  0  0  0  0
   15.8949    2.5293   -3.0989 C   0  0  0  0  0  0  0  0  0  0  0  0
   16.0898    2.2041   -4.1160 H   0  0  0  0  0  0  0  0  0  0  0  0
   15.7065    1.5595   -2.0979 C   0  0  0  0  0  0  0  0  0  0  0  0
   15.7789    0.1208   -2.4009 C   0  0  0  0  0  0  0  0  0  0  0  0
   16.3286   -0.3148   -3.6114 C   0  0  0  0  0  0  0  0  0  0  0  0
   16.7075    0.4179   -4.3168 H   0  0  0  0  0  0  0  0  0  0  0  0
   16.4091   -1.6780   -3.9074 C   0  0  0  0  0  0  0  0  0  0  0  0
   16.8615   -1.9987   -4.8403 H   0  0  0  0  0  0  0  0  0  0  0  0
   15.9339   -2.6230   -2.9912 C   0  0  0  0  0  0  0  0  0  0  0  0
   16.0021   -3.6805   -3.2240 H   0  0  0  0  0  0  0  0  0  0  0  0
   15.3849   -2.2216   -1.7652 C   0  0  0  0  0  0  0  0  0  0  0  0
   14.8299   -3.2319   -0.7696 C   0  0  2  0  0  0  0  0  0  0  0  0
   15.1978   -4.6868   -1.0593 C   0  0  0  0  0  0  0  0  0  0  0  0
   16.4148   -5.2158   -0.5972 C   0  0  0  0  0  0  0  0  0  0  0  0
   17.1013   -4.5721   -0.0556 H   0  0  0  0  0  0  0  0  0  0  0  0
   16.7424   -6.5610   -0.7984 C   0  0  0  0  0  0  0  0  0  0  0  0
   17.6813   -6.9502   -0.4129 H   0  0  0  0  0  0  0  0  0  0  0  0
   15.8566   -7.3989   -1.4823 C   0  0  0  0  0  0  0  0  0  0  0  0
   16.1026   -8.4469   -1.6258 H   0  0  0  0  0  0  0  0  0  0  0  0
   14.6478   -6.8877   -1.9667 C   0  0  0  0  0  0  0  0  0  0  0  0
   13.9552   -7.5433   -2.4875 H   0  0  0  0  0  0  0  0  0  0  0  0
   14.3206   -5.5408   -1.7555 C   0  0  0  0  0  0  0  0  0  0  0  0
   13.3684   -5.1647   -2.1176 H   0  0  0  0  0  0  0  0  0  0  0  0
   13.3079   -3.0351   -0.6162 C   0  0  0  0  0  0  0  0  0  0  0  0
   12.4254   -3.2550   -1.4468 O   0  0  0  0  0  0  0  0  0  0  0  0
   13.0538   -2.6035    0.6660 N   0  0  0  0  0  0  0  0  0  0  0  0
   11.7544   -2.6517    1.3004 C   0  0  0  0  0  0  0  0  0  0  0  0
   11.7163   -1.9901    2.1750 H   0  0  0  0  0  0  0  0  0  0  0  0
   10.9632   -2.3347    0.6122 H   0  0  0  0  0  0  0  0  0  0  0  0
   11.5191   -4.0567    1.7445 C   0  0  0  0  0  0  0  0  0  0  0  0
   11.2784   -5.4505    0.6942 S   0  0  0  0  0  0  0  0  0  0  0  0
   11.0177   -6.4806    2.1031 C   0  0  0  0  0  0  0  0  0  0  0  0
   10.7748   -7.5402    2.0459 H   0  0  0  0  0  0  0  0  0  0  0  0
   11.1327   -5.7821    3.2814 C   0  0  0  0  0  0  0  0  0  0  0  0
   10.9665   -6.2207    4.2575 H   0  0  0  0  0  0  0  0  0  0  0  0
   11.4893   -4.3840    3.0728 C   0  0  0  0  0  0  0  0  0  0  0  0
   11.7406   -3.6662    3.8562 H   0  0  0  0  0  0  0  0  0  0  0  0
   14.2434   -2.6085    1.3595 C   0  0  0  0  0  0  0  0  0  0  0  0
   14.3957   -2.3973    2.6992 N   0  0  0  0  0  0  0  0  0  0  0  0
   15.3410   -2.3109    3.0728 H   0  0  0  0  0  0  0  0  0  0  0  0
   13.5972   -2.1023    3.2580 H   0  0  0  0  0  0  0  0  0  0  0  0
   15.2507   -2.8838    0.6039 N   0  0  0  0  0  4  0  0  0  0  0  0
   16.2082   -2.9912    0.9480 H   0  0  0  0  0  0  0  0  0  0  0  0
   15.3050   -0.8414   -1.4917 C   0  0  0  0  0  0  0  0  0  0  0  0
   14.8581   -0.5078   -0.5594 H   0  0  0  0  0  0  0  0  0  0  0  0
   15.4631    1.9986   -0.7973 C   0  0  0  0  0  0  0  0  0  0  0  0
   15.3558    1.2765    0.0062 H   0  0  0  0  0  0  0  0  0  0  0  0
   15.3926    3.3677   -0.5582 C   0  0  0  0  0  0  0  0  0  0  0  0
   15.2042    3.7453    0.4391 H   0  0  0  0  0  0  0  0  0  0  0  0
  1  2  1  0
  2  3  2  0
  3  4  1  0
  4  5  1  0
  4  6  2  0
  6  7  1  0
  7  8  2  0
  8  9  1  0
  8 10  1  0
 10 11  1  0
 10 12  2  0
 12 13  1  0
 12 14  1  0
 15 14  1  6
 15 16  1  0
 16 17  2  0
 17 18  1  0
 17 19  1  0
 19 20  1  0
 19 21  2  0
 21 22  1  0
 21 23  1  0
 23 24  1  0
 23 25  2  0
 25 26  1  0
 15 27  1  0
 27 28  2  0
 27 29  1  0
 29 30  1  0
 30 31  1  0
 30 32  1  0
 30 33  1  0
 33 34  1  0
 34 35  1  0
 35 36  1  0
 35 37  2  0
 37 38  1  0
 37 39  1  0
 39 40  1  0
 29 41  1  0
 41 42  1  0
 42 43  1  0
 42 44  1  0
 41 45  2  0
 45 46  1  0
 14 47  2  0
 47 48  1  0
  6 49  1  0
 49 50  1  0
 49 51  2  0
 51 52  1  0
 51  2  1  0
 47  7  1  0
 45 15  1  0
 25 16  1  0
 39 33  2  0
M  CHG  1  45   1
M  END
>  <score>  (118) 
5.74437

$$$$

     RDKit          3D

 52 56  0  0  0  0  0  0  0  0999 V2000
    8.7755   -1.2613    0.8697 H   0  0  0  0  0  0  0  0  0  0  0  0
    9.5818   -1.8225    1.3272 C   0  0  0  0  0  0  0  0  0  0  0  0
    9.3466   -2.4657    2.4586 N   0  0  0  0  0  0  0  0  0  0  0  0
   10.3527   -3.1856    2.8783 C   0  0  0  0  0  0  0  0  0  0  0  0
   10.1156   -3.8575    3.9638 N   0  0  0  0  0  0  0  0  0  0  0  0
   10.9982   -3.9395    4.4497 H   0  0  0  0  0  0  0  0  0  0  0  0
    9.3468   -3.3946    4.4196 H   0  0  0  0  0  0  0  0  0  0  0  0
   11.5807   -3.2306    2.4528 N   0  0  0  0  0  0  0  0  0  0  0  0
   11.7822   -2.5814    1.3428 C   0  0  0  0  0  0  0  0  0  0  0  0
   13.0068   -2.6750    0.7941 N   0  0  0  0  0  0  0  0  0  0  0  0
   13.2335   -3.0198   -0.5026 C   0  0  0  0  0  0  0  0  0  0  0  0
   12.3347   -3.1606   -1.3255 O   0  0  0  0  0  0  0  0  0  0  0  0
   14.7476   -3.2170   -0.7137 C   0  0  1  0  0  0  0  0  0  0  0  0
   15.1332   -4.6661   -1.0230 C   0  0  0  0  0  0  0  0  0  0  0  0
   16.3653   -5.1791   -0.5790 C   0  0  0  0  0  0  0  0  0  0  0  0
   17.0515   -4.5348   -0.0364 H   0  0  0  0  0  0  0  0  0  0  0  0
   16.7156   -6.5163   -0.7976 C   0  0  0  0  0  0  0  0  0  0  0  0
   17.6626   -6.8935   -0.4215 H   0  0  0  0  0  0  0  0  0  0  0  0
   15.8397   -7.3657   -1.4795 C   0  0  0  0  0  0  0  0  0  0  0  0
   16.1073   -8.4071   -1.6403 H   0  0  0  0  0  0  0  0  0  0  0  0
   14.6239   -6.8656   -1.9595 C   0  0  0  0  0  0  0  0  0  0  0  0
   13.9496   -7.5210   -2.5041 H   0  0  0  0  0  0  0  0  0  0  0  0
   14.2741   -5.5244   -1.7364 C   0  0  0  0  0  0  0  0  0  0  0  0
   13.3214   -5.1579   -2.1071 H   0  0  0  0  0  0  0  0  0  0  0  0
   15.3132   -2.2164   -1.7244 C   0  0  0  0  0  0  0  0  0  0  0  0
   15.8865   -2.6339   -2.9384 C   0  0  0  0  0  0  0  0  0  0  0  0
   15.9439   -3.6909   -3.1761 H   0  0  0  0  0  0  0  0  0  0  0  0
   16.3883   -1.7042   -3.8569 C   0  0  0  0  0  0  0  0  0  0  0  0
   16.8318   -2.0306   -4.7915 H   0  0  0  0  0  0  0  0  0  0  0  0
   16.3131   -0.3386   -3.5853 C   0  0  0  0  0  0  0  0  0  0  0  0
   16.7052    0.3820   -4.2970 H   0  0  0  0  0  0  0  0  0  0  0  0
   15.7577    0.1121   -2.3832 C   0  0  0  0  0  0  0  0  0  0  0  0
   15.7089    1.5520   -2.0887 C   0  0  0  0  0  0  0  0  0  0  0  0
   15.9028    2.5180   -3.0922 C   0  0  0  0  0  0  0  0  0  0  0  0
   16.0967    2.1917   -4.1098 H   0  0  0  0  0  0  0  0  0  0  0  0
   15.8406    3.8428   -2.8635 N   0  0  0  0  0  0  0  0  0  0  0  0
   15.5898    4.2611   -1.6129 C   0  0  0  0  0  0  0  0  0  0  0  0
   15.5307    5.3283   -1.4185 H   0  0  0  0  0  0  0  0  0  0  0  0
   15.4062    3.3686   -0.5544 C   0  0  0  0  0  0  0  0  0  0  0  0
   15.2105    3.7420    0.4437 H   0  0  0  0  0  0  0  0  0  0  0  0
   15.4740    1.9986   -0.7886 C   0  0  0  0  0  0  0  0  0  0  0  0
   15.3623    1.2866    0.0226 H   0  0  0  0  0  0  0  0  0  0  0  0
   15.2616   -0.8338   -1.4655 C   0  0  0  0  0  0  0  0  0  0  0  0
   14.8276   -0.4846   -0.5331 H   0  0  0  0  0  0  0  0  0  0  0  0
   15.1733   -2.8985    0.6657 N   0  0  0  0  0  4  0  0  0  0  0  0
   16.1396   -2.9851    0.9769 H   0  0  0  0  0  0  0  0  0  0  0  0
   14.1833   -2.6875    1.4693 C   0  0  0  0  0  0  0  0  0  0  0  0
   14.3418   -2.4717    2.8035 N   0  0  0  0  0  0  0  0  0  0  0  0
   15.2864   -2.2625    3.1322 H   0  0  0  0  0  0  0  0  0  0  0  0
   13.5398   -2.0945    3.3084 H   0  0  0  0  0  0  0  0  0  0  0  0
   10.7977   -1.9029    0.6819 C   0  0  0  0  0  0  0  0  0  0  0  0
   10.9877   -1.4480   -0.2792 H   0  0  0  0  0  0  0  0  0  0  0  0
  1  2  1  0
  2  3  2  0
  3  4  1  0
  4  5  1  0
  5  6  1  0
  5  7  1  0
  4  8  2  0
  8  9  1  0
  9 10  1  0
 10 11  1  0
 11 12  2  0
 11 13  1  0
 13 14  1  6
 14 15  2  0
 15 16  1  0
 15 17  1  0
 17 18  1  0
 17 19  2  0
 19 20  1  0
 19 21  1  0
 21 22  1  0
 21 23  2  0
 23 24  1  0
 13 25  1  0
 25 26  2  0
 26 27  1  0
 26 28  1  0
 28 29  1  0
 28 30  2  0
 30 31  1  0
 30 32  1  0
 32 33  1  0
 33 34  2  0
 34 35  1  0
 34 36  1  0
 36 37  2  0
 37 38  1  0
 37 39  1  0
 39 40  1  0
 39 41  2  0
 41 42  1  0
 32 43  2  0
 43 44  1  0
 13 45  1  0
 45 46  1  0
 45 47  2  0
 47 48  1  0
 48 49  1  0
 48 50  1  0
  9 51  2  0
 51 52  1  0
 51  2  1  0
 47 10  1  0
 23 14  1  0
 43 25  1  0
 41 33  1  0
M  CHG  1  45   1
M  END
>  <score>  (119) 
5.74374

$$$$

     RDKit          3D

 60 64  0  0  0  0  0  0  0  0999 V2000
   15.4782    5.3233   -1.4239 H   0  0  0  0  0  0  0  0  0  0  0  0
   15.5750    4.2584   -1.6149 C   0  0  0  0  0  0  0  0  0  0  0  0
   15.8280    3.8450   -2.8665 N   0  0  0  0  0  0  0  0  0  0  0  0
   15.9296    2.5225   -3.0944 C   0  0  0  0  0  0  0  0  0  0  0  0
   16.1305    2.1881   -4.1079 H   0  0  0  0  0  0  0  0  0  0  0  0
   15.7654    1.5569   -2.0918 C   0  0  0  0  0  0  0  0  0  0  0  0
   15.8327    0.1219   -2.4007 C   0  0  0  0  0  0  0  0  0  0  0  0
   16.3469   -0.3454   -3.6191 C   0  0  0  0  0  0  0  0  0  0  0  0
   16.7069    0.3661   -4.3552 H   0  0  0  0  0  0  0  0  0  0  0  0
   16.4090   -1.7190   -3.8833 C   0  0  0  0  0  0  0  0  0  0  0  0
   16.8103   -2.0692   -4.8294 H   0  0  0  0  0  0  0  0  0  0  0  0
   15.9508   -2.6367   -2.9310 C   0  0  0  0  0  0  0  0  0  0  0  0
   15.9934   -3.7016   -3.1417 H   0  0  0  0  0  0  0  0  0  0  0  0
   15.4203   -2.1892   -1.7095 C   0  0  0  0  0  0  0  0  0  0  0  0
   14.8416   -3.1397   -0.6755 C   0  0  2  0  0  0  0  0  0  0  0  0
   15.1864   -4.5868   -0.9602 C   0  0  0  0  0  0  0  0  0  0  0  0
   16.4088   -5.1264   -0.5339 C   0  0  0  0  0  0  0  0  0  0  0  0
   17.1136   -4.5023    0.0083 H   0  0  0  0  0  0  0  0  0  0  0  0
   16.7257   -6.4623   -0.7961 C   0  0  0  0  0  0  0  0  0  0  0  0
   17.6717   -6.8700   -0.4507 H   0  0  0  0  0  0  0  0  0  0  0  0
   15.8244   -7.2687   -1.5004 C   0  0  0  0  0  0  0  0  0  0  0  0
   16.0622   -8.3087   -1.7020 H   0  0  0  0  0  0  0  0  0  0  0  0
   14.6115   -6.7337   -1.9484 C   0  0  0  0  0  0  0  0  0  0  0  0
   13.9093   -7.3479   -2.5037 H   0  0  0  0  0  0  0  0  0  0  0  0
   14.2971   -5.3989   -1.6798 C   0  0  0  0  0  0  0  0  0  0  0  0
   13.3569   -4.9839   -2.0312 H   0  0  0  0  0  0  0  0  0  0  0  0
   13.3284   -2.9069   -0.5355 C   0  0  0  0  0  0  0  0  0  0  0  0
   12.4759   -3.0350   -1.4106 O   0  0  0  0  0  0  0  0  0  0  0  0
   13.0310   -2.5246    0.7506 N   0  0  0  0  0  0  0  0  0  0  0  0
   11.8060   -1.8471    1.0588 C   0  0  0  0  0  0  0  0  0  0  0  0
   10.9330   -2.4831    0.8564 H   0  0  0  0  0  0  0  0  0  0  0  0
   11.7534   -1.5279    2.1076 H   0  0  0  0  0  0  0  0  0  0  0  0
   11.9178   -0.7304    0.1296 N   0  0  0  0  0  0  0  0  0  0  0  0
   12.7474   -0.1719    0.3506 H   0  0  0  0  0  0  0  0  0  0  0  0
   10.7521    0.1189   -0.1757 C   0  0  0  0  0  0  0  0  0  0  0  0
   10.2496    0.3815    0.7604 H   0  0  0  0  0  0  0  0  0  0  0  0
   10.0418   -0.3986   -0.8359 H   0  0  0  0  0  0  0  0  0  0  0  0
   11.2379    1.3785   -0.8310 C   0  0  0  0  0  0  0  0  0  0  0  0
   11.2610    2.5503   -0.0763 C   0  0  0  0  0  0  0  0  0  0  0  0
   10.7803    2.5908    0.8942 H   0  0  0  0  0  0  0  0  0  0  0  0
   11.8762    3.6852   -0.5682 C   0  0  0  0  0  0  0  0  0  0  0  0
   11.9092    4.5447    0.0724 H   0  0  0  0  0  0  0  0  0  0  0  0
   12.4438    3.6972   -1.8396 C   0  0  0  0  0  0  0  0  0  0  0  0
   12.9481    4.5953   -2.1819 H   0  0  0  0  0  0  0  0  0  0  0  0
   12.3472    2.5577   -2.6457 C   0  0  0  0  0  0  0  0  0  0  0  0
   12.7600    2.5919   -3.6472 H   0  0  0  0  0  0  0  0  0  0  0  0
   11.7174    1.4060   -2.1527 C   0  0  0  0  0  0  0  0  0  0  0  0
   11.6271    0.5278   -2.7908 H   0  0  0  0  0  0  0  0  0  0  0  0
   14.2228   -2.3878    1.4142 C   0  0  0  0  0  0  0  0  0  0  0  0
   14.4004   -1.9571    2.6945 N   0  0  0  0  0  0  0  0  0  0  0  0
   13.5810   -1.9310    3.3028 H   0  0  0  0  0  0  0  0  0  0  0  0
   15.3167   -2.1188    3.1126 H   0  0  0  0  0  0  0  0  0  0  0  0
   15.2324   -2.7670    0.6988 N   0  0  0  0  0  4  0  0  0  0  0  0
   16.1892   -2.8241    1.0478 H   0  0  0  0  0  0  0  0  0  0  0  0
   15.3614   -0.8111   -1.4714 C   0  0  0  0  0  0  0  0  0  0  0  0
   14.9270   -0.4569   -0.5419 H   0  0  0  0  0  0  0  0  0  0  0  0
   15.5255    1.9965   -0.7870 C   0  0  0  0  0  0  0  0  0  0  0  0
   15.4334    1.2804    0.0253 H   0  0  0  0  0  0  0  0  0  0  0  0
   15.4268    3.3648   -0.5531 C   0  0  0  0  0  0  0  0  0  0  0  0
   15.2357    3.7398    0.4448 H   0  0  0  0  0  0  0  0  0  0  0  0
  1  2  1  0
  2  3  2  0
  3  4  1  0
  4  5  1  0
  4  6  2  0
  6  7  1  0
  7  8  2  0
  8  9  1  0
  8 10  1  0
 10 11  1  0
 10 12  2  0
 12 13  1  0
 12 14  1  0
 15 14  1  6
 15 16  1  0
 16 17  2  0
 17 18  1  0
 17 19  1  0
 19 20  1  0
 19 21  2  0
 21 22  1  0
 21 23  1  0
 23 24  1  0
 23 25  2  0
 25 26  1  0
 15 27  1  0
 27 28  2  0
 27 29  1  0
 29 30  1  0
 30 31  1  0
 30 32  1  0
 30 33  1  0
 33 34  1  0
 33 35  1  0
 35 36  1  0
 35 37  1  0
 35 38  1  0
 38 39  2  0
 39 40  1  0
 39 41  1  0
 41 42  1  0
 41 43  2  0
 43 44  1  0
 43 45  1  0
 45 46  1  0
 45 47  2  0
 47 48  1  0
 29 49  1  0
 49 50  1  0
 50 51  1  0
 50 52  1  0
 49 53  2  0
 53 54  1  0
 14 55  2  0
 55 56  1  0
  6 57  1  0
 57 58  1  0
 57 59  2  0
 59 60  1  0
 59  2  1  0
 55  7  1  0
 53 15  1  0
 25 16  1  0
 47 38  1  0
M  CHG  1  53   1
M  END
>  <score>  (120) 
5.74356

$$$$

     RDKit          3D

 50 53  0  0  0  0  0  0  0  0999 V2000
   15.5225    5.3204   -1.4196 H   0  0  0  0  0  0  0  0  0  0  0  0
   15.5885    4.2552   -1.6159 C   0  0  0  0  0  0  0  0  0  0  0  0
   15.8410    3.8442   -2.8680 N   0  0  0  0  0  0  0  0  0  0  0  0
   15.9119    2.5212   -3.0998 C   0  0  0  0  0  0  0  0  0  0  0  0
   16.1130    2.1880   -4.1139 H   0  0  0  0  0  0  0  0  0  0  0  0
   15.7276    1.5565   -2.0962 C   0  0  0  0  0  0  0  0  0  0  0  0
   15.7913    0.1234   -2.3978 C   0  0  0  0  0  0  0  0  0  0  0  0
   16.3337   -0.3196   -3.6075 C   0  0  0  0  0  0  0  0  0  0  0  0
   16.7023    0.4085   -4.3226 H   0  0  0  0  0  0  0  0  0  0  0  0
   16.4101   -1.6845   -3.8904 C   0  0  0  0  0  0  0  0  0  0  0  0
   16.8430   -2.0109   -4.8302 H   0  0  0  0  0  0  0  0  0  0  0  0
   15.9306   -2.6201   -2.9658 C   0  0  0  0  0  0  0  0  0  0  0  0
   15.9860   -3.6792   -3.1960 H   0  0  0  0  0  0  0  0  0  0  0  0
   15.3745   -2.2039   -1.7447 C   0  0  0  0  0  0  0  0  0  0  0  0
   14.7939   -3.1914   -0.7393 C   0  0  2  0  0  0  0  0  0  0  0  0
   15.1670   -4.6459   -1.0244 C   0  0  0  0  0  0  0  0  0  0  0  0
   16.3919   -5.1722   -0.5762 C   0  0  0  0  0  0  0  0  0  0  0  0
   17.0860   -4.5325   -0.0388 H   0  0  0  0  0  0  0  0  0  0  0  0
   16.7241   -6.5145   -0.7934 C   0  0  0  0  0  0  0  0  0  0  0  0
   17.6669   -6.9055   -0.4205 H   0  0  0  0  0  0  0  0  0  0  0  0
   15.8410   -7.3513   -1.4808 C   0  0  0  0  0  0  0  0  0  0  0  0
   16.0935   -8.3958   -1.6405 H   0  0  0  0  0  0  0  0  0  0  0  0
   14.6297   -6.8390   -1.9569 C   0  0  0  0  0  0  0  0  0  0  0  0
   13.9457   -7.4876   -2.4959 H   0  0  0  0  0  0  0  0  0  0  0  0
   14.2954   -5.4962   -1.7306 C   0  0  0  0  0  0  0  0  0  0  0  0
   13.3474   -5.1156   -2.0994 H   0  0  0  0  0  0  0  0  0  0  0  0
   13.2739   -2.9687   -0.5971 C   0  0  0  0  0  0  0  0  0  0  0  0
   12.4078   -3.1110   -1.4566 O   0  0  0  0  0  0  0  0  0  0  0  0
   12.9951   -2.6616    0.7104 N   0  0  0  0  0  0  0  0  0  0  0  0
   11.7114   -2.2547    1.1590 C   0  0  0  0  0  0  0  0  0  0  0  0
   10.9133   -2.8755    0.7286 H   0  0  0  0  0  0  0  0  0  0  0  0
   11.6340   -2.2563    2.2527 H   0  0  0  0  0  0  0  0  0  0  0  0
   11.6650   -0.9157    0.6311 N   0  0  0  0  0  0  0  0  0  0  0  0
   12.2710   -0.2962    1.1731 H   0  0  0  0  0  0  0  0  0  0  0  0
   10.3227   -0.3528    0.4454 C   0  0  0  0  0  0  0  0  0  0  0  0
    9.6584   -0.6386    1.2638 H   0  0  0  0  0  0  0  0  0  0  0  0
   10.3805    0.7354    0.4191 H   0  0  0  0  0  0  0  0  0  0  0  0
    9.8887   -0.7117   -0.4957 H   0  0  0  0  0  0  0  0  0  0  0  0
   14.1766   -2.5021    1.3728 C   0  0  0  0  0  0  0  0  0  0  0  0
   14.3566   -2.0951    2.6623 N   0  0  0  0  0  0  0  0  0  0  0  0
   13.5467   -2.1214    3.2757 H   0  0  0  0  0  0  0  0  0  0  0  0
   15.2685   -2.3057    3.0642 H   0  0  0  0  0  0  0  0  0  0  0  0
   15.1842   -2.8350    0.6427 N   0  0  0  0  0  4  0  0  0  0  0  0
   16.1306   -2.9535    1.0068 H   0  0  0  0  0  0  0  0  0  0  0  0
   15.3095   -0.8246   -1.4829 C   0  0  0  0  0  0  0  0  0  0  0  0
   14.8690   -0.4780   -0.5525 H   0  0  0  0  0  0  0  0  0  0  0  0
   15.4881    1.9925   -0.7946 C   0  0  0  0  0  0  0  0  0  0  0  0
   15.3813    1.2698    0.0093 H   0  0  0  0  0  0  0  0  0  0  0  0
   15.4111    3.3604   -0.5582 C   0  0  0  0  0  0  0  0  0  0  0  0
   15.2189    3.7327    0.4398 H   0  0  0  0  0  0  0  0  0  0  0  0
  1  2  1  0
  2  3  2  0
  3  4  1  0
  4  5  1  0
  4  6  2  0
  6  7  1  0
  7  8  2  0
  8  9  1  0
  8 10  1  0
 10 11  1  0
 10 12  2  0
 12 13  1  0
 12 14  1  0
 15 14  1  6
 15 16  1  0
 16 17  2  0
 17 18  1  0
 17 19  1  0
 19 20  1  0
 19 21  2  0
 21 22  1  0
 21 23  1  0
 23 24  1  0
 23 25  2  0
 25 26  1  0
 15 27  1  0
 27 28  2  0
 27 29  1  0
 29 30  1  0
 30 31  1  0
 30 32  1  0
 30 33  1  0
 33 34  1  0
 33 35  1  0
 35 36  1  0
 35 37  1  0
 35 38  1  0
 29 39  1  0
 39 40  1  0
 40 41  1  0
 40 42  1  0
 39 43  2  0
 43 44  1  0
 14 45  2  0
 45 46  1  0
  6 47  1  0
 47 48  1  0
 47 49  2  0
 49 50  1  0
 49  2  1  0
 45  7  1  0
 43 15  1  0
 25 16  1  0
M  CHG  1  43   1
M  END
>  <score>  (121) 
5.74355

$$$$

     RDKit          3D

 57 62  0  0  0  0  0  0  0  0999 V2000
   15.5262    5.3171   -1.4174 H   0  0  0  0  0  0  0  0  0  0  0  0
   15.5837    4.2514   -1.6177 C   0  0  0  0  0  0  0  0  0  0  0  0
   15.8411    3.8405   -2.8691 N   0  0  0  0  0  0  0  0  0  0  0  0
   15.9032    2.5167   -3.1011 C   0  0  0  0  0  0  0  0  0  0  0  0
   16.1071    2.1854   -4.1146 H   0  0  0  0  0  0  0  0  0  0  0  0
   15.7123    1.5502   -2.0985 C   0  0  0  0  0  0  0  0  0  0  0  0
   15.7762    0.1148   -2.3913 C   0  0  0  0  0  0  0  0  0  0  0  0
   16.3232   -0.3177   -3.6001 C   0  0  0  0  0  0  0  0  0  0  0  0
   16.6904    0.4224   -4.3044 H   0  0  0  0  0  0  0  0  0  0  0  0
   16.4068   -1.6795   -3.8910 C   0  0  0  0  0  0  0  0  0  0  0  0
   16.8477   -1.9986   -4.8291 H   0  0  0  0  0  0  0  0  0  0  0  0
   15.9394   -2.6225   -2.9688 C   0  0  0  0  0  0  0  0  0  0  0  0
   15.9976   -3.6805   -3.2004 H   0  0  0  0  0  0  0  0  0  0  0  0
   15.4032   -2.2220   -1.7376 C   0  0  0  0  0  0  0  0  0  0  0  0
   14.8532   -3.2377   -0.7451 C   0  0  2  0  0  0  0  0  0  0  0  0
   15.2104   -4.6859   -1.0501 C   0  0  0  0  0  0  0  0  0  0  0  0
   16.4257   -5.2155   -0.5963 C   0  0  0  0  0  0  0  0  0  0  0  0
   17.1061   -4.5684   -0.0504 H   0  0  0  0  0  0  0  0  0  0  0  0
   16.7457   -6.5589   -0.8052 C   0  0  0  0  0  0  0  0  0  0  0  0
   17.6797   -6.9496   -0.4150 H   0  0  0  0  0  0  0  0  0  0  0  0
   15.8537   -7.3903   -1.4887 C   0  0  0  0  0  0  0  0  0  0  0  0
   16.0971   -8.4389   -1.6333 H   0  0  0  0  0  0  0  0  0  0  0  0
   14.6467   -6.8719   -1.9686 C   0  0  0  0  0  0  0  0  0  0  0  0
   13.9533   -7.5230   -2.4921 H   0  0  0  0  0  0  0  0  0  0  0  0
   14.3232   -5.5263   -1.7490 C   0  0  0  0  0  0  0  0  0  0  0  0
   13.3692   -5.1432   -2.1024 H   0  0  0  0  0  0  0  0  0  0  0  0
   13.3384   -3.0222   -0.6257 C   0  0  0  0  0  0  0  0  0  0  0  0
   12.5029   -3.1456   -1.5226 O   0  0  0  0  0  0  0  0  0  0  0  0
   13.0344   -2.6171    0.6620 N   0  0  0  0  0  0  0  0  0  0  0  0
   11.7815   -2.1056    1.0803 C   0  0  0  0  0  0  0  0  0  0  0  0
   11.2922   -0.8818    0.5664 C   0  0  0  0  0  0  0  0  0  0  0  0
   11.9251   -0.3226   -0.1131 H   0  0  0  0  0  0  0  0  0  0  0  0
   10.0810   -0.3693    0.8459 N   0  0  0  0  0  0  0  0  0  0  0  0
    9.3251   -1.0461    1.7188 C   0  0  0  0  0  0  0  0  0  0  0  0
    8.3634   -0.6251    1.9972 H   0  0  0  0  0  0  0  0  0  0  0  0
    9.7326   -2.2310    2.3367 C   0  0  0  0  0  0  0  0  0  0  0  0
    8.9179   -2.8407    3.2952 C   0  0  0  0  0  0  0  0  0  0  0  0
    7.9618   -2.4028    3.5476 H   0  0  0  0  0  0  0  0  0  0  0  0
    9.3251   -4.0199    3.9173 C   0  0  0  0  0  0  0  0  0  0  0  0
    8.7109   -4.4632    4.6964 H   0  0  0  0  0  0  0  0  0  0  0  0
   10.5308   -4.6231    3.5410 C   0  0  0  0  0  0  0  0  0  0  0  0
   10.8396   -5.5518    4.0115 H   0  0  0  0  0  0  0  0  0  0  0  0
   11.3607   -4.0072    2.5924 C   0  0  0  0  0  0  0  0  0  0  0  0
   12.3121   -4.4645    2.3293 H   0  0  0  0  0  0  0  0  0  0  0  0
   10.9766   -2.7945    1.9992 C   0  0  0  0  0  0  0  0  0  0  0  0
   14.2292   -2.5928    1.3749 C   0  0  0  0  0  0  0  0  0  0  0  0
   14.4306   -2.2588    2.6932 N   0  0  0  0  0  0  0  0  0  0  0  0
   15.3712   -2.3264    3.0820 H   0  0  0  0  0  0  0  0  0  0  0  0
   13.6328   -2.1008    3.3055 H   0  0  0  0  0  0  0  0  0  0  0  0
   15.2430   -2.9182    0.6445 N   0  0  0  0  0  4  0  0  0  0  0  0
   16.1991   -3.0158    0.9976 H   0  0  0  0  0  0  0  0  0  0  0  0
   15.3090   -0.8416   -1.4727 C   0  0  0  0  0  0  0  0  0  0  0  0
   14.8637   -0.4982   -0.5425 H   0  0  0  0  0  0  0  0  0  0  0  0
   15.4796    1.9867   -0.7983 C   0  0  0  0  0  0  0  0  0  0  0  0
   15.3772    1.2578    0.0002 H   0  0  0  0  0  0  0  0  0  0  0  0
   15.4022    3.3560   -0.5606 C   0  0  0  0  0  0  0  0  0  0  0  0
   15.2124    3.7353    0.4362 H   0  0  0  0  0  0  0  0  0  0  0  0
  1  2  1  0
  2  3  2  0
  3  4  1  0
  4  5  1  0
  4  6  2  0
  6  7  1  0
  7  8  2  0
  8  9  1  0
  8 10  1  0
 10 11  1  0
 10 12  2  0
 12 13  1  0
 12 14  1  0
 15 14  1  6
 15 16  1  0
 16 17  2  0
 17 18  1  0
 17 19  1  0
 19 20  1  0
 19 21  2  0
 21 22  1  0
 21 23  1  0
 23 24  1  0
 23 25  2  0
 25 26  1  0
 15 27  1  0
 27 28  2  0
 27 29  1  0
 29 30  1  0
 30 31  2  0
 31 32  1  0
 31 33  1  0
 33 34  2  0
 34 35  1  0
 34 36  1  0
 36 37  2  0
 37 38  1  0
 37 39  1  0
 39 40  1  0
 39 41  2  0
 41 42  1  0
 41 43  1  0
 43 44  1  0
 43 45  2  0
 29 46  1  0
 46 47  1  0
 47 48  1  0
 47 49  1  0
 46 50  2  0
 50 51  1  0
 14 52  2  0
 52 53  1  0
  6 54  1  0
 54 55  1  0
 54 56  2  0
 56 57  1  0
 56  2  1  0
 52  7  1  0
 50 15  1  0
 25 16  1  0
 45 30  1  0
 45 36  1  0
M  CHG  1  50   1
M  END
>  <score>  (122) 
5.74248

$$$$

     RDKit          3D

 54 58  0  0  0  0  0  0  0  0999 V2000
   15.5507    5.3474   -1.3970 H   0  0  0  0  0  0  0  0  0  0  0  0
   15.5873    4.2814   -1.6061 C   0  0  0  0  0  0  0  0  0  0  0  0
   15.8253    3.8669   -2.8600 N   0  0  0  0  0  0  0  0  0  0  0  0
   15.8812    2.5408   -3.0947 C   0  0  0  0  0  0  0  0  0  0  0  0
   16.0733    2.2019   -4.1078 H   0  0  0  0  0  0  0  0  0  0  0  0
   15.6996    1.5686   -2.0971 C   0  0  0  0  0  0  0  0  0  0  0  0
   15.7759    0.1233   -2.4011 C   0  0  0  0  0  0  0  0  0  0  0  0
   16.3312   -0.3191   -3.6062 C   0  0  0  0  0  0  0  0  0  0  0  0
   16.7089    0.4236   -4.3012 H   0  0  0  0  0  0  0  0  0  0  0  0
   16.4167   -1.6855   -3.8971 C   0  0  0  0  0  0  0  0  0  0  0  0
   16.8624   -2.0063   -4.8327 H   0  0  0  0  0  0  0  0  0  0  0  0
   15.9295   -2.6325   -2.9856 C   0  0  0  0  0  0  0  0  0  0  0  0
   15.9912   -3.6915   -3.2225 H   0  0  0  0  0  0  0  0  0  0  0  0
   15.3586   -2.2245   -1.7665 C   0  0  0  0  0  0  0  0  0  0  0  0
   14.7696   -3.2274   -0.7663 C   0  0  2  0  0  0  0  0  0  0  0  0
   15.1541   -4.6897   -1.0590 C   0  0  0  0  0  0  0  0  0  0  0  0
   16.3796   -5.2105   -0.5985 C   0  0  0  0  0  0  0  0  0  0  0  0
   17.0642   -4.5634   -0.0572 H   0  0  0  0  0  0  0  0  0  0  0  0
   16.7266   -6.5543   -0.8005 C   0  0  0  0  0  0  0  0  0  0  0  0
   17.6658   -6.9429   -0.4174 H   0  0  0  0  0  0  0  0  0  0  0  0
   15.8543   -7.4063   -1.4804 C   0  0  0  0  0  0  0  0  0  0  0  0
   16.1057   -8.4554   -1.6153 H   0  0  0  0  0  0  0  0  0  0  0  0
   14.6422   -6.9075   -1.9646 C   0  0  0  0  0  0  0  0  0  0  0  0
   13.9644   -7.5744   -2.4890 H   0  0  0  0  0  0  0  0  0  0  0  0
   14.2948   -5.5607   -1.7580 C   0  0  0  0  0  0  0  0  0  0  0  0
   13.3444   -5.1917   -2.1299 H   0  0  0  0  0  0  0  0  0  0  0  0
   13.2432   -3.0013   -0.5819 C   0  0  0  0  0  0  0  0  0  0  0  0
   12.3446   -3.1109   -1.4132 O   0  0  0  0  0  0  0  0  0  0  0  0
   12.9930   -2.7179    0.7327 N   0  0  0  0  0  0  0  0  0  0  0  0
   11.7478   -2.5164    1.2570 C   0  0  0  0  0  0  0  0  0  0  0  0
   10.9005   -1.7608    0.5466 N   0  0  0  0  0  0  0  0  0  0  0  0
    9.6456   -1.5163    1.0109 C   0  0  0  0  0  0  0  0  0  0  0  0
    8.6310   -0.6010    0.2732 C   0  0  0  0  0  0  0  0  0  0  0  0
    9.1320   -0.0061   -0.8527 F   0  0  0  0  0  0  0  0  0  0  0  0
    7.5378   -1.3376   -0.0872 F   0  0  0  0  0  0  0  0  0  0  0  0
    8.1866    0.3861    1.1102 F   0  0  0  0  0  0  0  0  0  0  0  0
    9.2416   -2.1362    2.2153 C   0  0  0  0  0  0  0  0  0  0  0  0
    8.2427   -1.9745    2.5927 H   0  0  0  0  0  0  0  0  0  0  0  0
   10.0989   -2.9591    2.9471 C   0  0  0  0  0  0  0  0  0  0  0  0
    9.7626   -3.4415    3.8686 H   0  0  0  0  0  0  0  0  0  0  0  0
   11.3903   -3.1289    2.4552 C   0  0  0  0  0  0  0  0  0  0  0  0
   12.1206   -3.7435    2.9678 H   0  0  0  0  0  0  0  0  0  0  0  0
   14.1788   -2.6712    1.4001 C   0  0  0  0  0  0  0  0  0  0  0  0
   14.3584   -2.3936    2.7247 N   0  0  0  0  0  0  0  0  0  0  0  0
   15.3135   -2.3242    3.0726 H   0  0  0  0  0  0  0  0  0  0  0  0
   13.5911   -1.9974    3.2648 H   0  0  0  0  0  0  0  0  0  0  0  0
   15.1814   -2.9099    0.6221 N   0  0  0  0  0  4  0  0  0  0  0  0
   16.1523   -2.9410    0.9472 H   0  0  0  0  0  0  0  0  0  0  0  0
   15.2973   -0.8406   -1.4955 C   0  0  0  0  0  0  0  0  0  0  0  0
   14.8563   -0.4977   -0.5644 H   0  0  0  0  0  0  0  0  0  0  0  0
   15.4487    2.0104   -0.7994 C   0  0  0  0  0  0  0  0  0  0  0  0
   15.3372    1.2722   -0.0114 H   0  0  0  0  0  0  0  0  0  0  0  0
   15.3843    3.3837   -0.5567 C   0  0  0  0  0  0  0  0  0  0  0  0
   15.1834    3.7686    0.4350 H   0  0  0  0  0  0  0  0  0  0  0  0
  1  2  1  0
  2  3  2  0
  3  4  1  0
  4  5  1  0
  4  6  2  0
  6  7  1  0
  7  8  2  0
  8  9  1  0
  8 10  1  0
 10 11  1  0
 10 12  2  0
 12 13  1  0
 12 14  1  0
 15 14  1  6
 15 16  1  0
 16 17  2  0
 17 18  1  0
 17 19  1  0
 19 20  1  0
 19 21  2  0
 21 22  1  0
 21 23  1  0
 23 24  1  0
 23 25  2  0
 25 26  1  0
 15 27  1  0
 27 28  2  0
 27 29  1  0
 29 30  1  0
 30 31  2  0
 31 32  1  0
 32 33  1  0
 33 34  1  0
 33 35  1  0
 33 36  1  0
 32 37  2  0
 37 38  1  0
 37 39  1  0
 39 40  1  0
 39 41  2  0
 41 42  1  0
 29 43  1  0
 43 44  1  0
 44 45  1  0
 44 46  1  0
 43 47  2  0
 47 48  1  0
 14 49  2  0
 49 50  1  0
  6 51  1  0
 51 52  1  0
 51 53  2  0
 53 54  1  0
 53  2  1  0
 49  7  1  0
 47 15  1  0
 25 16  1  0
 41 30  1  0
M  CHG  1  47   1
M  END
>  <score>  (123) 
5.7408

$$$$

     RDKit          3D

 46 49  0  0  0  0  0  0  0  0999 V2000
   15.5553    5.3543   -1.3933 H   0  0  0  0  0  0  0  0  0  0  0  0
   15.5878    4.2872   -1.6047 C   0  0  0  0  0  0  0  0  0  0  0  0
   15.8216    3.8700   -2.8594 N   0  0  0  0  0  0  0  0  0  0  0  0
   15.8772    2.5435   -3.0926 C   0  0  0  0  0  0  0  0  0  0  0  0
   16.0665    2.2049   -4.1045 H   0  0  0  0  0  0  0  0  0  0  0  0
   15.6932    1.5688   -2.0985 C   0  0  0  0  0  0  0  0  0  0  0  0
   15.7779    0.1247   -2.4101 C   0  0  0  0  0  0  0  0  0  0  0  0
   16.3312   -0.3141   -3.6165 C   0  0  0  0  0  0  0  0  0  0  0  0
   16.7146    0.4286   -4.3058 H   0  0  0  0  0  0  0  0  0  0  0  0
   16.4282   -1.6813   -3.9147 C   0  0  0  0  0  0  0  0  0  0  0  0
   16.8648   -2.0032   -4.8535 H   0  0  0  0  0  0  0  0  0  0  0  0
   15.9577   -2.6353   -3.0066 C   0  0  0  0  0  0  0  0  0  0  0  0
   16.0063   -3.6955   -3.2481 H   0  0  0  0  0  0  0  0  0  0  0  0
   15.4096   -2.2286   -1.7829 C   0  0  0  0  0  0  0  0  0  0  0  0
   14.8576   -3.2360   -0.7858 C   0  0  2  0  0  0  0  0  0  0  0  0
   15.1945   -4.7038   -1.0829 C   0  0  0  0  0  0  0  0  0  0  0  0
   16.4056   -5.2340   -0.6104 C   0  0  0  0  0  0  0  0  0  0  0  0
   17.0806   -4.5843   -0.0623 H   0  0  0  0  0  0  0  0  0  0  0  0
   16.7407   -6.5789   -0.8040 C   0  0  0  0  0  0  0  0  0  0  0  0
   17.6772   -6.9646   -0.4101 H   0  0  0  0  0  0  0  0  0  0  0  0
   15.8585   -7.4274   -1.4790 C   0  0  0  0  0  0  0  0  0  0  0  0
   16.1082   -8.4764   -1.6152 H   0  0  0  0  0  0  0  0  0  0  0  0
   14.6468   -6.9250   -1.9650 C   0  0  0  0  0  0  0  0  0  0  0  0
   13.9619   -7.5893   -2.4872 H   0  0  0  0  0  0  0  0  0  0  0  0
   14.3171   -5.5713   -1.7709 C   0  0  0  0  0  0  0  0  0  0  0  0
   13.3627   -5.2020   -2.1339 H   0  0  0  0  0  0  0  0  0  0  0  0
   13.3475   -2.9799   -0.6381 C   0  0  0  0  0  0  0  0  0  0  0  0
   12.5171   -3.1192   -1.5357 O   0  0  0  0  0  0  0  0  0  0  0  0
   13.0685   -2.6033    0.6671 N   0  0  0  0  0  0  0  0  0  0  0  0
   11.7763   -2.1854    1.1899 O   0  0  0  0  0  0  0  0  0  0  0  0
   10.9470   -3.2408    1.7444 C   0  0  0  0  0  0  0  0  0  0  0  0
   10.6059   -4.1077    0.7484 F   0  0  0  0  0  0  0  0  0  0  0  0
   11.6142   -3.9240    2.7163 F   0  0  0  0  0  0  0  0  0  0  0  0
    9.8031   -2.7283    2.2732 F   0  0  0  0  0  0  0  0  0  0  0  0
   14.2884   -2.5748    1.3460 C   0  0  0  0  0  0  0  0  0  0  0  0
   14.4456   -2.2952    2.6794 N   0  0  0  0  0  0  0  0  0  0  0  0
   13.6247   -2.0991    3.2498 H   0  0  0  0  0  0  0  0  0  0  0  0
   15.3726   -2.3466    3.1080 H   0  0  0  0  0  0  0  0  0  0  0  0
   15.2921   -2.9021    0.5896 N   0  0  0  0  0  4  0  0  0  0  0  0
   16.2657   -2.9741    0.9084 H   0  0  0  0  0  0  0  0  0  0  0  0
   15.3219   -0.8459   -1.5050 C   0  0  0  0  0  0  0  0  0  0  0  0
   14.8721   -0.5120   -0.5759 H   0  0  0  0  0  0  0  0  0  0  0  0
   15.4429    2.0124   -0.8001 C   0  0  0  0  0  0  0  0  0  0  0  0
   15.3309    1.2795   -0.0079 H   0  0  0  0  0  0  0  0  0  0  0  0
   15.3830    3.3876   -0.5551 C   0  0  0  0  0  0  0  0  0  0  0  0
   15.1785    3.7746    0.4376 H   0  0  0  0  0  0  0  0  0  0  0  0
  1  2  1  0
  2  3  2  0
  3  4  1  0
  4  5  1  0
  4  6  2  0
  6  7  1  0
  7  8  2  0
  8  9  1  0
  8 10  1  0
 10 11  1  0
 10 12  2  0
 12 13  1  0
 12 14  1  0
 15 14  1  6
 15 16  1  0
 16 17  2  0
 17 18  1  0
 17 19  1  0
 19 20  1  0
 19 21  2  0
 21 22  1  0
 21 23  1  0
 23 24  1  0
 23 25  2  0
 25 26  1  0
 15 27  1  0
 27 28  2  0
 27 29  1  0
 29 30  1  0
 30 31  1  0
 31 32  1  0
 31 33  1  0
 31 34  1  0
 29 35  1  0
 35 36  1  0
 36 37  1  0
 36 38  1  0
 35 39  2  0
 39 40  1  0
 14 41  2  0
 41 42  1  0
  6 43  1  0
 43 44  1  0
 43 45  2  0
 45 46  1  0
 45  2  1  0
 41  7  1  0
 39 15  1  0
 25 16  1  0
M  CHG  1  39   1
M  END
>  <score>  (124) 
5.73987

$$$$

     RDKit          3D

 63 67  0  0  0  0  0  0  0  0999 V2000
   15.5184    5.3149   -1.4228 H   0  0  0  0  0  0  0  0  0  0  0  0
   15.5883    4.2498   -1.6174 C   0  0  0  0  0  0  0  0  0  0  0  0
   15.8430    3.8402   -2.8691 N   0  0  0  0  0  0  0  0  0  0  0  0
   15.9143    2.5180   -3.1027 C   0  0  0  0  0  0  0  0  0  0  0  0
   16.1149    2.1919   -4.1194 H   0  0  0  0  0  0  0  0  0  0  0  0
   15.7267    1.5516   -2.0999 C   0  0  0  0  0  0  0  0  0  0  0  0
   15.7892    0.1197   -2.4052 C   0  0  0  0  0  0  0  0  0  0  0  0
   16.3317   -0.3146   -3.6181 C   0  0  0  0  0  0  0  0  0  0  0  0
   16.6992    0.4164   -4.3315 H   0  0  0  0  0  0  0  0  0  0  0  0
   16.4165   -1.6765   -3.9052 C   0  0  0  0  0  0  0  0  0  0  0  0
   16.8460   -1.9935   -4.8482 H   0  0  0  0  0  0  0  0  0  0  0  0
   15.9484   -2.6179   -2.9829 C   0  0  0  0  0  0  0  0  0  0  0  0
   16.0085   -3.6751   -3.2157 H   0  0  0  0  0  0  0  0  0  0  0  0
   15.3974   -2.2112   -1.7595 C   0  0  0  0  0  0  0  0  0  0  0  0
   14.8495   -3.2105   -0.7529 C   0  0  2  0  0  0  0  0  0  0  0  0
   15.2190   -4.6619   -1.0425 C   0  0  0  0  0  0  0  0  0  0  0  0
   16.4358   -5.1974   -0.5889 C   0  0  0  0  0  0  0  0  0  0  0  0
   17.1349   -4.5647   -0.0482 H   0  0  0  0  0  0  0  0  0  0  0  0
   16.7501   -6.5441   -0.7999 C   0  0  0  0  0  0  0  0  0  0  0  0
   17.6841   -6.9436   -0.4177 H   0  0  0  0  0  0  0  0  0  0  0  0
   15.8558   -7.3726   -1.4846 C   0  0  0  0  0  0  0  0  0  0  0  0
   16.0939   -8.4210   -1.6400 H   0  0  0  0  0  0  0  0  0  0  0  0
   14.6502   -6.8491   -1.9599 C   0  0  0  0  0  0  0  0  0  0  0  0
   13.9518   -7.4876   -2.4917 H   0  0  0  0  0  0  0  0  0  0  0  0
   14.3338   -5.5030   -1.7417 C   0  0  0  0  0  0  0  0  0  0  0  0
   13.3871   -5.1157   -2.1050 H   0  0  0  0  0  0  0  0  0  0  0  0
   13.3344   -3.0059   -0.5854 C   0  0  0  0  0  0  0  0  0  0  0  0
   12.4637   -3.2712   -1.4136 O   0  0  0  0  0  0  0  0  0  0  0  0
   13.0576   -2.5564    0.6953 N   0  0  0  0  0  0  0  0  0  0  0  0
   11.7346   -2.5949    1.3349 C   0  0  0  0  0  0  0  0  0  0  0  0
   11.6951   -1.8992    2.1823 H   0  0  0  0  0  0  0  0  0  0  0  0
   10.9730   -2.2748    0.6171 H   0  0  0  0  0  0  0  0  0  0  0  0
   11.4133   -4.0158    1.8188 C   0  0  0  0  0  0  0  0  0  0  0  0
   12.1747   -4.3162    2.5477 H   0  0  0  0  0  0  0  0  0  0  0  0
   11.4920   -4.6982    0.9656 H   0  0  0  0  0  0  0  0  0  0  0  0
   10.0691   -4.1440    2.4235 N   0  0  0  0  0  0  0  0  0  0  0  0
    9.9596   -3.8646    3.8690 C   0  0  0  0  0  0  0  0  0  0  0  0
    9.2883   -4.6056    4.3194 H   0  0  0  0  0  0  0  0  0  0  0  0
   10.9434   -3.9794    4.3470 H   0  0  0  0  0  0  0  0  0  0  0  0
    9.4203   -2.4437    4.1252 C   0  0  0  0  0  0  0  0  0  0  0  0
    9.0611   -2.3957    5.1590 H   0  0  0  0  0  0  0  0  0  0  0  0
   10.2404   -1.7245    4.0115 H   0  0  0  0  0  0  0  0  0  0  0  0
    8.2805   -2.0292    3.1657 C   0  0  0  0  0  0  0  0  0  0  0  0
    7.3727   -2.5995    3.4061 H   0  0  0  0  0  0  0  0  0  0  0  0
    8.0499   -0.9657    3.2960 H   0  0  0  0  0  0  0  0  0  0  0  0
    8.6565   -2.3023    1.7134 C   0  0  0  0  0  0  0  0  0  0  0  0
    9.5404   -1.7251    1.4183 H   0  0  0  0  0  0  0  0  0  0  0  0
    7.8391   -1.9933    1.0641 H   0  0  0  0  0  0  0  0  0  0  0  0
    8.8925   -3.8061    1.5999 C   0  0  0  0  0  0  0  0  0  0  0  0
    8.0041   -4.3386    1.9665 H   0  0  0  0  0  0  0  0  0  0  0  0
    9.0432   -4.1041    0.5590 H   0  0  0  0  0  0  0  0  0  0  0  0
   14.2594   -2.5721    1.3705 C   0  0  0  0  0  0  0  0  0  0  0  0
   14.4282   -2.3759    2.7115 N   0  0  0  0  0  0  0  0  0  0  0  0
   15.3746   -2.3003    3.0784 H   0  0  0  0  0  0  0  0  0  0  0  0
   13.6309   -2.0845    3.2740 H   0  0  0  0  0  0  0  0  0  0  0  0
   15.2665   -2.8585    0.6183 N   0  0  0  0  0  4  0  0  0  0  0  0
   16.2029   -3.0359    0.9804 H   0  0  0  0  0  0  0  0  0  0  0  0
   15.3162   -0.8340   -1.4900 C   0  0  0  0  0  0  0  0  0  0  0  0
   14.8763   -0.4978   -0.5543 H   0  0  0  0  0  0  0  0  0  0  0  0
   15.4905    1.9868   -0.7964 C   0  0  0  0  0  0  0  0  0  0  0  0
   15.3864    1.2686    0.0122 H   0  0  0  0  0  0  0  0  0  0  0  0
   15.4142    3.3544   -0.5596 C   0  0  0  0  0  0  0  0  0  0  0  0
   15.2240    3.7238    0.4399 H   0  0  0  0  0  0  0  0  0  0  0  0
  1  2  1  0
  2  3  2  0
  3  4  1  0
  4  5  1  0
  4  6  2  0
  6  7  1  0
  7  8  2  0
  8  9  1  0
  8 10  1  0
 10 11  1  0
 10 12  2  0
 12 13  1  0
 12 14  1  0
 15 14  1  6
 15 16  1  0
 16 17  2  0
 17 18  1  0
 17 19  1  0
 19 20  1  0
 19 21  2  0
 21 22  1  0
 21 23  1  0
 23 24  1  0
 23 25  2  0
 25 26  1  0
 15 27  1  0
 27 28  2  0
 27 29  1  0
 29 30  1  0
 30 31  1  0
 30 32  1  0
 30 33  1  0
 33 34  1  0
 33 35  1  0
 33 36  1  0
 36 37  1  0
 37 38  1  0
 37 39  1  0
 37 40  1  0
 40 41  1  0
 40 42  1  0
 40 43  1  0
 43 44  1  0
 43 45  1  0
 43 46  1  0
 46 47  1  0
 46 48  1  0
 46 49  1  0
 49 50  1  0
 49 51  1  0
 29 52  1  0
 52 53  1  0
 53 54  1  0
 53 55  1  0
 52 56  2  0
 56 57  1  0
 14 58  2  0
 58 59  1  0
  6 60  1  0
 60 61  1  0
 60 62  2  0
 62 63  1  0
 62  2  1  0
 58  7  1  0
 56 15  1  0
 25 16  1  0
 49 36  1  0
M  CHG  1  56   1
M  END
>  <score>  (125) 
5.73714

$$$$

     RDKit          3D

 62 66  0  0  0  0  0  0  0  0999 V2000
   15.5354    5.3278   -1.4123 H   0  0  0  0  0  0  0  0  0  0  0  0
   15.5842    4.2618   -1.6124 C   0  0  0  0  0  0  0  0  0  0  0  0
   15.8368    3.8501   -2.8637 N   0  0  0  0  0  0  0  0  0  0  0  0
   15.8941    2.5264   -3.0991 C   0  0  0  0  0  0  0  0  0  0  0  0
   16.0922    2.1991   -4.1151 H   0  0  0  0  0  0  0  0  0  0  0  0
   15.7083    1.5563   -2.0983 C   0  0  0  0  0  0  0  0  0  0  0  0
   15.7859    0.1177   -2.3992 C   0  0  0  0  0  0  0  0  0  0  0  0
   16.3349   -0.3152   -3.6102 C   0  0  0  0  0  0  0  0  0  0  0  0
   16.7002    0.4208   -4.3198 H   0  0  0  0  0  0  0  0  0  0  0  0
   16.4181   -1.6782   -3.9048 C   0  0  0  0  0  0  0  0  0  0  0  0
   16.8522   -1.9966   -4.8470 H   0  0  0  0  0  0  0  0  0  0  0  0
   15.9543   -2.6251   -2.9841 C   0  0  0  0  0  0  0  0  0  0  0  0
   16.0135   -3.6814   -3.2254 H   0  0  0  0  0  0  0  0  0  0  0  0
   15.4168   -2.2266   -1.7511 C   0  0  0  0  0  0  0  0  0  0  0  0
   14.8631   -3.2382   -0.7525 C   0  0  2  0  0  0  0  0  0  0  0  0
   15.2166   -4.6929   -1.0543 C   0  0  0  0  0  0  0  0  0  0  0  0
   16.4319   -5.2285   -0.6014 C   0  0  0  0  0  0  0  0  0  0  0  0
   17.1203   -4.5879   -0.0587 H   0  0  0  0  0  0  0  0  0  0  0  0
   16.7497   -6.5746   -0.8058 C   0  0  0  0  0  0  0  0  0  0  0  0
   17.6840   -6.9673   -0.4163 H   0  0  0  0  0  0  0  0  0  0  0  0
   15.8588   -7.4087   -1.4869 C   0  0  0  0  0  0  0  0  0  0  0  0
   16.1002   -8.4588   -1.6293 H   0  0  0  0  0  0  0  0  0  0  0  0
   14.6528   -6.8877   -1.9671 C   0  0  0  0  0  0  0  0  0  0  0  0
   13.9575   -7.5403   -2.4867 H   0  0  0  0  0  0  0  0  0  0  0  0
   14.3316   -5.5392   -1.7523 C   0  0  0  0  0  0  0  0  0  0  0  0
   13.3795   -5.1602   -2.1145 H   0  0  0  0  0  0  0  0  0  0  0  0
   13.3502   -3.0214   -0.6065 C   0  0  0  0  0  0  0  0  0  0  0  0
   12.5245   -3.1371   -1.5144 O   0  0  0  0  0  0  0  0  0  0  0  0
   13.0396   -2.6312    0.6925 N   0  0  0  0  0  0  0  0  0  0  0  0
   11.7555   -2.1316    1.1845 N   0  0  0  0  0  0  0  0  0  0  0  0
   11.7445   -1.2517    1.6950 H   0  0  0  0  0  0  0  0  0  0  0  0
   10.4778   -2.6234    0.9262 C   0  0  0  0  0  0  0  0  0  0  0  0
   10.3162   -3.6548    0.2885 O   0  0  0  0  0  0  0  0  0  0  0  0
    9.2808   -1.7544    1.3431 C   0  0  0  0  0  0  0  0  0  0  0  0
    9.6201   -0.7170    1.2982 H   0  0  0  0  0  0  0  0  0  0  0  0
    8.0887   -1.9025    0.3778 C   0  0  0  0  0  0  0  0  0  0  0  0
    8.4478   -1.8133   -0.6548 H   0  0  0  0  0  0  0  0  0  0  0  0
    7.3859   -1.0778    0.5334 H   0  0  0  0  0  0  0  0  0  0  0  0
    7.3861   -3.2625    0.5327 C   0  0  0  0  0  0  0  0  0  0  0  0
    6.4453   -3.2445   -0.0249 H   0  0  0  0  0  0  0  0  0  0  0  0
    8.0342   -4.0138    0.0745 H   0  0  0  0  0  0  0  0  0  0  0  0
    7.1102   -3.7218    1.9753 C   0  0  0  0  0  0  0  0  0  0  0  0
    6.8928   -4.7942    1.9659 H   0  0  0  0  0  0  0  0  0  0  0  0
    6.2258   -3.2276    2.3742 H   0  0  0  0  0  0  0  0  0  0  0  0
    8.3066   -3.4888    2.9046 C   0  0  0  0  0  0  0  0  0  0  0  0
    9.0989   -4.1969    2.6376 H   0  0  0  0  0  0  0  0  0  0  0  0
    8.0192   -3.6843    3.9452 H   0  0  0  0  0  0  0  0  0  0  0  0
    8.8654   -2.0694    2.7883 C   0  0  0  0  0  0  0  0  0  0  0  0
    9.7324   -1.9608    3.4512 H   0  0  0  0  0  0  0  0  0  0  0  0
    8.1108   -1.3491    3.1152 H   0  0  0  0  0  0  0  0  0  0  0  0
   14.2639   -2.5831    1.3713 C   0  0  0  0  0  0  0  0  0  0  0  0
   14.4746   -2.2363    2.6802 N   0  0  0  0  0  0  0  0  0  0  0  0
   13.6711   -2.1581    3.3011 H   0  0  0  0  0  0  0  0  0  0  0  0
   15.4078   -2.3642    3.0751 H   0  0  0  0  0  0  0  0  0  0  0  0
   15.2712   -2.9064    0.6240 N   0  0  0  0  0  4  0  0  0  0  0  0
   16.2341   -2.9937    0.9571 H   0  0  0  0  0  0  0  0  0  0  0  0
   15.3238   -0.8457   -1.4850 C   0  0  0  0  0  0  0  0  0  0  0  0
   14.8780   -0.5097   -0.5534 H   0  0  0  0  0  0  0  0  0  0  0  0
   15.4680    1.9962   -0.7975 C   0  0  0  0  0  0  0  0  0  0  0  0
   15.3590    1.2744    0.0059 H   0  0  0  0  0  0  0  0  0  0  0  0
   15.3947    3.3660   -0.5584 C   0  0  0  0  0  0  0  0  0  0  0  0
   15.2056    3.7448    0.4383 H   0  0  0  0  0  0  0  0  0  0  0  0
  1  2  1  0
  2  3  2  0
  3  4  1  0
  4  5  1  0
  4  6  2  0
  6  7  1  0
  7  8  2  0
  8  9  1  0
  8 10  1  0
 10 11  1  0
 10 12  2  0
 12 13  1  0
 12 14  1  0
 15 14  1  6
 15 16  1  0
 16 17  2  0
 17 18  1  0
 17 19  1  0
 19 20  1  0
 19 21  2  0
 21 22  1  0
 21 23  1  0
 23 24  1  0
 23 25  2  0
 25 26  1  0
 15 27  1  0
 27 28  2  0
 27 29  1  0
 29 30  1  0
 30 31  1  0
 30 32  1  0
 32 33  2  0
 32 34  1  0
 34 35  1  0
 34 36  1  0
 36 37  1  0
 36 38  1  0
 36 39  1  0
 39 40  1  0
 39 41  1  0
 39 42  1  0
 42 43  1  0
 42 44  1  0
 42 45  1  0
 45 46  1  0
 45 47  1  0
 45 48  1  0
 48 49  1  0
 48 50  1  0
 29 51  1  0
 51 52  1  0
 52 53  1  0
 52 54  1  0
 51 55  2  0
 55 56  1  0
 14 57  2  0
 57 58  1  0
  6 59  1  0
 59 60  1  0
 59 61  2  0
 61 62  1  0
 61  2  1  0
 57  7  1  0
 55 15  1  0
 25 16  1  0
 48 34  1  0
M  CHG  1  55   1
M  END
>  <score>  (126) 
5.73517

$$$$

     RDKit          3D

 48 51  0  0  0  0  0  0  0  0999 V2000
   15.5417    5.3341   -1.4038 H   0  0  0  0  0  0  0  0  0  0  0  0
   15.5864    4.2696   -1.6109 C   0  0  0  0  0  0  0  0  0  0  0  0
   15.8306    3.8582   -2.8648 N   0  0  0  0  0  0  0  0  0  0  0  0
   15.8877    2.5333   -3.0981 C   0  0  0  0  0  0  0  0  0  0  0  0
   16.0870    2.1940   -4.1101 H   0  0  0  0  0  0  0  0  0  0  0  0
   15.7017    1.5636   -2.0981 C   0  0  0  0  0  0  0  0  0  0  0  0
   15.7759    0.1214   -2.3996 C   0  0  0  0  0  0  0  0  0  0  0  0
   16.3257   -0.3147   -3.6078 C   0  0  0  0  0  0  0  0  0  0  0  0
   16.7024    0.4310   -4.2994 H   0  0  0  0  0  0  0  0  0  0  0  0
   16.4115   -1.6803   -3.9046 C   0  0  0  0  0  0  0  0  0  0  0  0
   16.8640   -1.9995   -4.8386 H   0  0  0  0  0  0  0  0  0  0  0  0
   15.9362   -2.6286   -2.9882 C   0  0  0  0  0  0  0  0  0  0  0  0
   15.9993   -3.6880   -3.2200 H   0  0  0  0  0  0  0  0  0  0  0  0
   15.3834   -2.2254   -1.7612 C   0  0  0  0  0  0  0  0  0  0  0  0
   14.8181   -3.2381   -0.7625 C   0  0  2  0  0  0  0  0  0  0  0  0
   15.1889   -4.6925   -1.0634 C   0  0  0  0  0  0  0  0  0  0  0  0
   16.4067   -5.2184   -0.6018 C   0  0  0  0  0  0  0  0  0  0  0  0
   17.0850   -4.5704   -0.0546 H   0  0  0  0  0  0  0  0  0  0  0  0
   16.7402   -6.5631   -0.8015 C   0  0  0  0  0  0  0  0  0  0  0  0
   17.6765   -6.9554   -0.4118 H   0  0  0  0  0  0  0  0  0  0  0  0
   15.8586   -7.4058   -1.4852 C   0  0  0  0  0  0  0  0  0  0  0  0
   16.1008   -8.4559   -1.6200 H   0  0  0  0  0  0  0  0  0  0  0  0
   14.6480   -6.8983   -1.9705 C   0  0  0  0  0  0  0  0  0  0  0  0
   13.9576   -7.5600   -2.4876 H   0  0  0  0  0  0  0  0  0  0  0  0
   14.3159   -5.5507   -1.7596 C   0  0  0  0  0  0  0  0  0  0  0  0
   13.3620   -5.1731   -2.1161 H   0  0  0  0  0  0  0  0  0  0  0  0
   13.2950   -3.0312   -0.6036 C   0  0  0  0  0  0  0  0  0  0  0  0
   12.4383   -3.0908   -1.4872 O   0  0  0  0  0  0  0  0  0  0  0  0
   13.0075   -2.6903    0.7024 N   0  0  0  0  0  0  0  0  0  0  0  0
   11.7345   -2.1311    1.1622 C   0  0  0  0  0  0  0  0  0  0  0  0
   10.8943   -2.5591    0.6005 H   0  0  0  0  0  0  0  0  0  0  0  0
   11.5660   -2.3658    2.2196 H   0  0  0  0  0  0  0  0  0  0  0  0
   11.7727   -0.6222    0.9911 C   0  0  0  0  0  0  0  0  0  0  0  0
   10.7759   -0.1932    1.1413 H   0  0  0  0  0  0  0  0  0  0  0  0
   12.4532   -0.2069    1.7352 H   0  0  0  0  0  0  0  0  0  0  0  0
   12.1346   -0.3424   -0.0016 H   0  0  0  0  0  0  0  0  0  0  0  0
   14.2198   -2.5971    1.3627 C   0  0  0  0  0  0  0  0  0  0  0  0
   14.4069   -2.2202    2.6607 N   0  0  0  0  0  0  0  0  0  0  0  0
   15.3367   -2.3383    3.0655 H   0  0  0  0  0  0  0  0  0  0  0  0
   13.5989   -2.1341    3.2736 H   0  0  0  0  0  0  0  0  0  0  0  0
   15.2313   -2.9082    0.6182 N   0  0  0  0  0  4  0  0  0  0  0  0
   16.1993   -2.9673    0.9547 H   0  0  0  0  0  0  0  0  0  0  0  0
   15.3059   -0.8431   -1.4914 C   0  0  0  0  0  0  0  0  0  0  0  0
   14.8609   -0.5031   -0.5609 H   0  0  0  0  0  0  0  0  0  0  0  0
   15.4575    2.0009   -0.8001 C   0  0  0  0  0  0  0  0  0  0  0  0
   15.3553    1.2607   -0.0118 H   0  0  0  0  0  0  0  0  0  0  0  0
   15.3889    3.3728   -0.5588 C   0  0  0  0  0  0  0  0  0  0  0  0
   15.1945    3.7570    0.4338 H   0  0  0  0  0  0  0  0  0  0  0  0
  1  2  1  0
  2  3  2  0
  3  4  1  0
  4  5  1  0
  4  6  2  0
  6  7  1  0
  7  8  2  0
  8  9  1  0
  8 10  1  0
 10 11  1  0
 10 12  2  0
 12 13  1  0
 12 14  1  0
 15 14  1  6
 15 16  1  0
 16 17  2  0
 17 18  1  0
 17 19  1  0
 19 20  1  0
 19 21  2  0
 21 22  1  0
 21 23  1  0
 23 24  1  0
 23 25  2  0
 25 26  1  0
 15 27  1  0
 27 28  2  0
 27 29  1  0
 29 30  1  0
 30 31  1  0
 30 32  1  0
 30 33  1  0
 33 34  1  0
 33 35  1  0
 33 36  1  0
 29 37  1  0
 37 38  1  0
 38 39  1  0
 38 40  1  0
 37 41  2  0
 41 42  1  0
 14 43  2  0
 43 44  1  0
  6 45  1  0
 45 46  1  0
 45 47  2  0
 47 48  1  0
 47  2  1  0
 43  7  1  0
 41 15  1  0
 25 16  1  0
M  CHG  1  41   1
M  END
>  <score>  (127) 
5.73357

$$$$

     RDKit          3D

 54 58  0  0  0  0  0  0  0  0999 V2000
   15.5304    5.3221   -1.4182 H   0  0  0  0  0  0  0  0  0  0  0  0
   15.5938    4.2550   -1.6091 C   0  0  0  0  0  0  0  0  0  0  0  0
   15.8420    3.8340   -2.8585 N   0  0  0  0  0  0  0  0  0  0  0  0
   15.9052    2.5080   -3.0831 C   0  0  0  0  0  0  0  0  0  0  0  0
   16.1034    2.1753   -4.0978 H   0  0  0  0  0  0  0  0  0  0  0  0
   15.7165    1.5435   -2.0759 C   0  0  0  0  0  0  0  0  0  0  0  0
   15.7737    0.0990   -2.3717 C   0  0  0  0  0  0  0  0  0  0  0  0
   16.3132   -0.3485   -3.5838 C   0  0  0  0  0  0  0  0  0  0  0  0
   16.6898    0.3749   -4.2998 H   0  0  0  0  0  0  0  0  0  0  0  0
   16.3880   -1.7133   -3.8710 C   0  0  0  0  0  0  0  0  0  0  0  0
   16.8169   -2.0383   -4.8141 H   0  0  0  0  0  0  0  0  0  0  0  0
   15.9129   -2.6496   -2.9471 C   0  0  0  0  0  0  0  0  0  0  0  0
   15.9732   -3.7073   -3.1853 H   0  0  0  0  0  0  0  0  0  0  0  0
   15.3617   -2.2402   -1.7213 C   0  0  0  0  0  0  0  0  0  0  0  0
   14.8234   -3.2615   -0.7224 C   0  0  2  0  0  0  0  0  0  0  0  0
   15.2279   -4.6947   -1.0413 C   0  0  0  0  0  0  0  0  0  0  0  0
   16.4490   -5.2199   -0.5925 C   0  0  0  0  0  0  0  0  0  0  0  0
   17.1376   -4.5848   -0.0435 H   0  0  0  0  0  0  0  0  0  0  0  0
   16.7744   -6.5637   -0.8104 C   0  0  0  0  0  0  0  0  0  0  0  0
   17.7121   -6.9586   -0.4291 H   0  0  0  0  0  0  0  0  0  0  0  0
   15.8842   -7.3987   -1.4955 C   0  0  0  0  0  0  0  0  0  0  0  0
   16.1255   -8.4469   -1.6496 H   0  0  0  0  0  0  0  0  0  0  0  0
   14.6787   -6.8802   -1.9800 C   0  0  0  0  0  0  0  0  0  0  0  0
   13.9797   -7.5200   -2.5112 H   0  0  0  0  0  0  0  0  0  0  0  0
   14.3592   -5.5364   -1.7601 C   0  0  0  0  0  0  0  0  0  0  0  0
   13.4123   -5.1502   -2.1257 H   0  0  0  0  0  0  0  0  0  0  0  0
   13.2963   -3.1880   -0.5675 C   0  0  0  0  0  0  0  0  0  0  0  0
   12.4729   -3.2401   -1.4842 O   0  0  0  0  0  0  0  0  0  0  0  0
   12.9674   -3.0847    0.7769 N   0  0  0  0  0  0  0  0  0  0  0  0
   11.6497   -2.7134    1.2404 N   0  0  0  0  0  0  0  0  0  0  0  0
   10.9944   -3.4001    1.6248 H   0  0  0  0  0  0  0  0  0  0  0  0
   11.1686   -1.4424    0.9574 C   0  0  0  0  0  0  0  0  0  0  0  0
    9.8303   -1.1214    1.1878 C   0  0  0  0  0  0  0  0  0  0  0  0
    9.1813   -1.8764    1.6179 H   0  0  0  0  0  0  0  0  0  0  0  0
    9.3686    0.1812    0.9472 C   0  0  0  0  0  0  0  0  0  0  0  0
    8.3275    0.4204    1.1476 H   0  0  0  0  0  0  0  0  0  0  0  0
   10.2765    1.1687    0.5234 C   0  0  0  0  0  0  0  0  0  0  0  0
    9.9842    2.2049    0.3961 H   0  0  0  0  0  0  0  0  0  0  0  0
   11.6132    0.8381    0.2855 C   0  0  0  0  0  0  0  0  0  0  0  0
   12.3538    1.5816    0.0049 H   0  0  0  0  0  0  0  0  0  0  0  0
   12.0428   -0.4668    0.4805 C   0  0  0  0  0  0  0  0  0  0  0  0
   13.0805   -0.7243    0.2954 H   0  0  0  0  0  0  0  0  0  0  0  0
   14.1687   -2.8430    1.4462 C   0  0  0  0  0  0  0  0  0  0  0  0
   14.3810   -2.5229    2.7640 N   0  0  0  0  0  0  0  0  0  0  0  0
   15.3294   -2.2643    3.0445 H   0  0  0  0  0  0  0  0  0  0  0  0
   13.5854   -2.2277    3.3318 H   0  0  0  0  0  0  0  0  0  0  0  0
   15.1967   -2.9315    0.6655 N   0  0  0  0  0  4  0  0  0  0  0  0
   16.1604   -2.7917    0.9731 H   0  0  0  0  0  0  0  0  0  0  0  0
   15.2947   -0.8576   -1.4554 C   0  0  0  0  0  0  0  0  0  0  0  0
   14.8603   -0.5150   -0.5221 H   0  0  0  0  0  0  0  0  0  0  0  0
   15.4845    1.9945   -0.7767 C   0  0  0  0  0  0  0  0  0  0  0  0
   15.3789    1.2798    0.0335 H   0  0  0  0  0  0  0  0  0  0  0  0
   15.4157    3.3659   -0.5470 C   0  0  0  0  0  0  0  0  0  0  0  0
   15.2284    3.7458    0.4495 H   0  0  0  0  0  0  0  0  0  0  0  0
  1  2  1  0
  2  3  2  0
  3  4  1  0
  4  5  1  0
  4  6  2  0
  6  7  1  0
  7  8  2  0
  8  9  1  0
  8 10  1  0
 10 11  1  0
 10 12  2  0
 12 13  1  0
 12 14  1  0
 15 14  1  6
 15 16  1  0
 16 17  2  0
 17 18  1  0
 17 19  1  0
 19 20  1  0
 19 21  2  0
 21 22  1  0
 21 23  1  0
 23 24  1  0
 23 25  2  0
 25 26  1  0
 15 27  1  0
 27 28  2  0
 27 29  1  0
 29 30  1  0
 30 31  1  0
 30 32  1  0
 32 33  2  0
 33 34  1  0
 33 35  1  0
 35 36  1  0
 35 37  2  0
 37 38  1  0
 37 39  1  0
 39 40  1  0
 39 41  2  0
 41 42  1  0
 29 43  1  0
 43 44  1  0
 44 45  1  0
 44 46  1  0
 43 47  2  0
 47 48  1  0
 14 49  2  0
 49 50  1  0
  6 51  1  0
 51 52  1  0
 51 53  2  0
 53 54  1  0
 53  2  1  0
 49  7  1  0
 47 15  1  0
 25 16  1  0
 41 32  1  0
M  CHG  1  47   1
M  END
>  <score>  (128) 
5.7324

$$$$

     RDKit          3D

 56 61  0  0  0  0  0  0  0  0999 V2000
   15.5527    5.3518   -1.3944 H   0  0  0  0  0  0  0  0  0  0  0  0
   15.5869    4.2852   -1.6052 C   0  0  0  0  0  0  0  0  0  0  0  0
   15.8229    3.8700   -2.8599 N   0  0  0  0  0  0  0  0  0  0  0  0
   15.8791    2.5436   -3.0947 C   0  0  0  0  0  0  0  0  0  0  0  0
   16.0720    2.2008   -4.1059 H   0  0  0  0  0  0  0  0  0  0  0  0
   15.6963    1.5701   -2.0997 C   0  0  0  0  0  0  0  0  0  0  0  0
   15.7758    0.1258   -2.4111 C   0  0  0  0  0  0  0  0  0  0  0  0
   16.3327   -0.3135   -3.6166 C   0  0  0  0  0  0  0  0  0  0  0  0
   16.7111    0.4345   -4.3043 H   0  0  0  0  0  0  0  0  0  0  0  0
   16.4262   -1.6804   -3.9144 C   0  0  0  0  0  0  0  0  0  0  0  0
   16.8659   -1.9992   -4.8526 H   0  0  0  0  0  0  0  0  0  0  0  0
   15.9540   -2.6326   -3.0055 C   0  0  0  0  0  0  0  0  0  0  0  0
   16.0053   -3.6935   -3.2379 H   0  0  0  0  0  0  0  0  0  0  0  0
   15.4048   -2.2248   -1.7837 C   0  0  0  0  0  0  0  0  0  0  0  0
   14.8644   -3.2325   -0.7816 C   0  0  2  0  0  0  0  0  0  0  0  0
   15.2043   -4.6972   -1.0775 C   0  0  0  0  0  0  0  0  0  0  0  0
   16.4118   -5.2280   -0.6069 C   0  0  0  0  0  0  0  0  0  0  0  0
   17.0838   -4.5775   -0.0553 H   0  0  0  0  0  0  0  0  0  0  0  0
   16.7407   -6.5736   -0.8031 C   0  0  0  0  0  0  0  0  0  0  0  0
   17.6748   -6.9629   -0.4100 H   0  0  0  0  0  0  0  0  0  0  0  0
   15.8588   -7.4198   -1.4809 C   0  0  0  0  0  0  0  0  0  0  0  0
   16.1048   -8.4698   -1.6153 H   0  0  0  0  0  0  0  0  0  0  0  0
   14.6484   -6.9142   -1.9653 C   0  0  0  0  0  0  0  0  0  0  0  0
   13.9622   -7.5790   -2.4846 H   0  0  0  0  0  0  0  0  0  0  0  0
   14.3220   -5.5612   -1.7660 C   0  0  0  0  0  0  0  0  0  0  0  0
   13.3662   -5.1909   -2.1262 H   0  0  0  0  0  0  0  0  0  0  0  0
   13.3529   -3.0367   -0.6346 C   0  0  0  0  0  0  0  0  0  0  0  0
   12.5379   -3.1824   -1.5484 O   0  0  0  0  0  0  0  0  0  0  0  0
   13.0404   -2.6937    0.6837 N   0  0  0  0  0  0  0  0  0  0  0  0
   11.7105   -2.7344    1.3101 N   0  0  0  0  0  0  0  0  0  0  0  0
   11.3014   -3.6811    2.2435 C   0  0  0  0  0  0  0  0  0  0  0  0
   12.0465   -4.4613    2.8180 O   0  0  0  0  0  0  0  0  0  0  0  0
    9.8538   -3.7477    2.3130 C   0  0  0  0  0  0  0  0  0  0  0  0
    8.9877   -4.5980    3.0128 C   0  0  0  0  0  0  0  0  0  0  0  0
    9.3680   -5.3575    3.6955 H   0  0  0  0  0  0  0  0  0  0  0  0
    7.6127   -4.4808    2.7931 C   0  0  0  0  0  0  0  0  0  0  0  0
    6.9159   -5.1103    3.3371 H   0  0  0  0  0  0  0  0  0  0  0  0
    7.1188   -3.5570    1.8679 C   0  0  0  0  0  0  0  0  0  0  0  0
    6.0471   -3.5529    1.7043 H   0  0  0  0  0  0  0  0  0  0  0  0
    7.9923   -2.6874    1.1883 C   0  0  0  0  0  0  0  0  0  0  0  0
    7.6275   -1.9599    0.4641 H   0  0  0  0  0  0  0  0  0  0  0  0
    9.3692   -2.7955    1.4269 C   0  0  0  0  0  0  0  0  0  0  0  0
   10.5372   -2.1486    0.8403 C   0  0  0  0  0  0  0  0  0  0  0  0
   10.4655   -1.3233   -0.0616 O   0  0  0  0  0  0  0  0  0  0  0  0
   14.2716   -2.6185    1.3542 C   0  0  0  0  0  0  0  0  0  0  0  0
   14.4438   -2.3296    2.6867 N   0  0  0  0  0  0  0  0  0  0  0  0
   15.3789   -2.3448    3.0925 H   0  0  0  0  0  0  0  0  0  0  0  0
   13.6314   -2.1177    3.2656 H   0  0  0  0  0  0  0  0  0  0  0  0
   15.2871   -2.8764    0.5911 N   0  0  0  0  0  4  0  0  0  0  0  0
   16.2528   -2.9529    0.9254 H   0  0  0  0  0  0  0  0  0  0  0  0
   15.3140   -0.8435   -1.5077 C   0  0  0  0  0  0  0  0  0  0  0  0
   14.8697   -0.5096   -0.5742 H   0  0  0  0  0  0  0  0  0  0  0  0
   15.4481    2.0109   -0.8009 C   0  0  0  0  0  0  0  0  0  0  0  0
   15.3361    1.2703   -0.0149 H   0  0  0  0  0  0  0  0  0  0  0  0
   15.3847    3.3854   -0.5563 C   0  0  0  0  0  0  0  0  0  0  0  0
   15.1809    3.7717    0.4350 H   0  0  0  0  0  0  0  0  0  0  0  0
  1  2  1  0
  2  3  2  0
  3  4  1  0
  4  5  1  0
  4  6  2  0
  6  7  1  0
  7  8  2  0
  8  9  1  0
  8 10  1  0
 10 11  1  0
 10 12  2  0
 12 13  1  0
 12 14  1  0
 15 14  1  6
 15 16  1  0
 16 17  2  0
 17 18  1  0
 17 19  1  0
 19 20  1  0
 19 21  2  0
 21 22  1  0
 21 23  1  0
 23 24  1  0
 23 25  2  0
 25 26  1  0
 15 27  1  0
 27 28  2  0
 27 29  1  0
 29 30  1  0
 30 31  1  0
 31 32  2  0
 31 33  1  0
 33 34  2  0
 34 35  1  0
 34 36  1  0
 36 37  1  0
 36 38  2  0
 38 39  1  0
 38 40  1  0
 40 41  1  0
 40 42  2  0
 42 43  1  0
 43 44  2  0
 29 45  1  0
 45 46  1  0
 46 47  1  0
 46 48  1  0
 45 49  2  0
 49 50  1  0
 14 51  2  0
 51 52  1  0
  6 53  1  0
 53 54  1  0
 53 55  2  0
 55 56  1  0
 55  2  1  0
 51  7  1  0
 49 15  1  0
 25 16  1  0
 43 30  1  0
 42 33  1  0
M  CHG  1  49   1
M  END
>  <score>  (129) 
5.72728

$$$$

     RDKit          3D

 51 55  0  0  0  0  0  0  0  0999 V2000
   15.5379    5.3315   -1.4085 H   0  0  0  0  0  0  0  0  0  0  0  0
   15.5855    4.2664   -1.6124 C   0  0  0  0  0  0  0  0  0  0  0  0
   15.8365    3.8564   -2.8650 N   0  0  0  0  0  0  0  0  0  0  0  0
   15.8935    2.5319   -3.0987 C   0  0  0  0  0  0  0  0  0  0  0  0
   16.0883    2.1999   -4.1139 H   0  0  0  0  0  0  0  0  0  0  0  0
   15.7077    1.5627   -2.0971 C   0  0  0  0  0  0  0  0  0  0  0  0
   15.7785    0.1228   -2.3954 C   0  0  0  0  0  0  0  0  0  0  0  0
   16.3294   -0.3158   -3.6034 C   0  0  0  0  0  0  0  0  0  0  0  0
   16.7072    0.4181   -4.3097 H   0  0  0  0  0  0  0  0  0  0  0  0
   16.4065   -1.6813   -3.8936 C   0  0  0  0  0  0  0  0  0  0  0  0
   16.8587   -2.0064   -4.8271 H   0  0  0  0  0  0  0  0  0  0  0  0
   15.9202   -2.6214   -2.9735 C   0  0  0  0  0  0  0  0  0  0  0  0
   15.9868   -3.6793   -3.2087 H   0  0  0  0  0  0  0  0  0  0  0  0
   15.3628   -2.2180   -1.7480 C   0  0  0  0  0  0  0  0  0  0  0  0
   14.7973   -3.2291   -0.7473 C   0  0  2  0  0  0  0  0  0  0  0  0
   15.1634   -4.6807   -1.0556 C   0  0  0  0  0  0  0  0  0  0  0  0
   16.3856   -5.2019   -0.5990 C   0  0  0  0  0  0  0  0  0  0  0  0
   17.0663   -4.5532   -0.0566 H   0  0  0  0  0  0  0  0  0  0  0  0
   16.7239   -6.5430   -0.7999 C   0  0  0  0  0  0  0  0  0  0  0  0
   17.6658   -6.9263   -0.4166 H   0  0  0  0  0  0  0  0  0  0  0  0
   15.8442   -7.3868   -1.4809 C   0  0  0  0  0  0  0  0  0  0  0  0
   16.1018   -8.4326   -1.6241 H   0  0  0  0  0  0  0  0  0  0  0  0
   14.6331   -6.8827   -1.9673 C   0  0  0  0  0  0  0  0  0  0  0  0
   13.9539   -7.5481   -2.4924 H   0  0  0  0  0  0  0  0  0  0  0  0
   14.2921   -5.5374   -1.7556 C   0  0  0  0  0  0  0  0  0  0  0  0
   13.3374   -5.1685   -2.1206 H   0  0  0  0  0  0  0  0  0  0  0  0
   13.2769   -3.0242   -0.5509 C   0  0  0  0  0  0  0  0  0  0  0  0
   12.3553   -3.0578   -1.3604 O   0  0  0  0  0  0  0  0  0  0  0  0
   13.0412   -2.7949    0.7722 N   0  0  0  0  0  0  0  0  0  0  0  0
   11.8183   -2.4395    1.2667 C   0  0  0  0  0  0  0  0  0  0  0  0
   11.0265   -1.9026    0.5040 O   0  0  0  0  0  0  0  0  0  0  0  0
   11.3080   -3.1782    2.4094 C   0  0  0  0  0  0  0  0  0  0  0  0
   12.1480   -4.6096    2.9925 S   0  0  0  0  0  0  0  0  0  0  0  0
   10.8498   -4.9283    4.1347 C   0  0  0  0  0  0  0  0  0  0  0  0
   10.8454   -5.7767    4.8144 H   0  0  0  0  0  0  0  0  0  0  0  0
    9.8624   -3.9744    4.0815 C   0  0  0  0  0  0  0  0  0  0  0  0
    8.9751   -3.9858    4.7100 H   0  0  0  0  0  0  0  0  0  0  0  0
   10.1292   -2.9430    3.0868 C   0  0  0  0  0  0  0  0  0  0  0  0
    9.4476   -2.1173    2.8797 H   0  0  0  0  0  0  0  0  0  0  0  0
   14.2258   -2.7415    1.4403 C   0  0  0  0  0  0  0  0  0  0  0  0
   14.3601   -2.4521    2.7648 N   0  0  0  0  0  0  0  0  0  0  0  0
   15.3002   -2.2709    3.1202 H   0  0  0  0  0  0  0  0  0  0  0  0
   13.5578   -2.0653    3.2584 H   0  0  0  0  0  0  0  0  0  0  0  0
   15.2234   -2.9322    0.6421 N   0  0  0  0  0  4  0  0  0  0  0  0
   16.1994   -2.9529    0.9478 H   0  0  0  0  0  0  0  0  0  0  0  0
   15.2967   -0.8352   -1.4831 C   0  0  0  0  0  0  0  0  0  0  0  0
   14.8547   -0.4888   -0.5548 H   0  0  0  0  0  0  0  0  0  0  0  0
   15.4634    2.0013   -0.7982 C   0  0  0  0  0  0  0  0  0  0  0  0
   15.3540    1.2737    0.0002 H   0  0  0  0  0  0  0  0  0  0  0  0
   15.3911    3.3709   -0.5586 C   0  0  0  0  0  0  0  0  0  0  0  0
   15.1988    3.7502    0.4378 H   0  0  0  0  0  0  0  0  0  0  0  0
  1  2  1  0
  2  3  2  0
  3  4  1  0
  4  5  1  0
  4  6  2  0
  6  7  1  0
  7  8  2  0
  8  9  1  0
  8 10  1  0
 10 11  1  0
 10 12  2  0
 12 13  1  0
 12 14  1  0
 15 14  1  6
 15 16  1  0
 16 17  2  0
 17 18  1  0
 17 19  1  0
 19 20  1  0
 19 21  2  0
 21 22  1  0
 21 23  1  0
 23 24  1  0
 23 25  2  0
 25 26  1  0
 15 27  1  0
 27 28  2  0
 27 29  1  0
 29 30  1  0
 30 31  2  0
 30 32  1  0
 32 33  1  0
 33 34  1  0
 34 35  1  0
 34 36  2  0
 36 37  1  0
 36 38  1  0
 38 39  1  0
 29 40  1  0
 40 41  1  0
 41 42  1  0
 41 43  1  0
 40 44  2  0
 44 45  1  0
 14 46  2  0
 46 47  1  0
  6 48  1  0
 48 49  1  0
 48 50  2  0
 50 51  1  0
 50  2  1  0
 46  7  1  0
 44 15  1  0
 25 16  1  0
 38 32  2  0
M  CHG  1  44   1
M  END
>  <score>  (130) 
5.72698

$$$$

     RDKit          3D

 45 48  0  0  0  0  0  0  0  0999 V2000
   15.5693    5.3718   -1.3876 H   0  0  0  0  0  0  0  0  0  0  0  0
   15.5834    4.3030   -1.5955 C   0  0  0  0  0  0  0  0  0  0  0  0
   15.8196    3.8801   -2.8473 N   0  0  0  0  0  0  0  0  0  0  0  0
   15.8638    2.5524   -3.0878 C   0  0  0  0  0  0  0  0  0  0  0  0
   16.0468    2.2231   -4.1055 H   0  0  0  0  0  0  0  0  0  0  0  0
   15.6861    1.5708   -2.0957 C   0  0  0  0  0  0  0  0  0  0  0  0
   15.7711    0.1180   -2.4102 C   0  0  0  0  0  0  0  0  0  0  0  0
   16.3482   -0.3216   -3.6104 C   0  0  0  0  0  0  0  0  0  0  0  0
   16.7241    0.4087   -4.3204 H   0  0  0  0  0  0  0  0  0  0  0  0
   16.4317   -1.6901   -3.9071 C   0  0  0  0  0  0  0  0  0  0  0  0
   16.8640   -2.0084   -4.8513 H   0  0  0  0  0  0  0  0  0  0  0  0
   15.9434   -2.6455   -3.0037 C   0  0  0  0  0  0  0  0  0  0  0  0
   16.0040   -3.7004   -3.2586 H   0  0  0  0  0  0  0  0  0  0  0  0
   15.3747   -2.2456   -1.7809 C   0  0  0  0  0  0  0  0  0  0  0  0
   14.7992   -3.2521   -0.7823 C   0  0  2  0  0  0  0  0  0  0  0  0
   15.1673   -4.7161   -1.0700 C   0  0  0  0  0  0  0  0  0  0  0  0
   16.3903   -5.2365   -0.6099 C   0  0  0  0  0  0  0  0  0  0  0  0
   17.0670   -4.5862   -0.0633 H   0  0  0  0  0  0  0  0  0  0  0  0
   16.7295   -6.5813   -0.8030 C   0  0  0  0  0  0  0  0  0  0  0  0
   17.6724   -6.9558   -0.4167 H   0  0  0  0  0  0  0  0  0  0  0  0
   15.8539   -7.4402   -1.4726 C   0  0  0  0  0  0  0  0  0  0  0  0
   16.1207   -8.4859   -1.6116 H   0  0  0  0  0  0  0  0  0  0  0  0
   14.6432   -6.9385   -1.9619 C   0  0  0  0  0  0  0  0  0  0  0  0
   13.9721   -7.6110   -2.4883 H   0  0  0  0  0  0  0  0  0  0  0  0
   14.3022   -5.5883   -1.7665 C   0  0  0  0  0  0  0  0  0  0  0  0
   13.3529   -5.2314   -2.1553 H   0  0  0  0  0  0  0  0  0  0  0  0
   13.2901   -3.0065   -0.5819 C   0  0  0  0  0  0  0  0  0  0  0  0
   12.4000   -3.0470   -1.4230 O   0  0  0  0  0  0  0  0  0  0  0  0
   13.0294   -2.6790    0.7247 N   0  0  0  0  0  0  0  0  0  0  0  0
   11.8006   -2.0989    1.2064 C   0  0  0  0  0  0  0  0  0  0  0  0
   11.6460   -2.3150    2.2712 H   0  0  0  0  0  0  0  0  0  0  0  0
   10.7599   -2.5861    0.4890 F   0  0  0  0  0  0  0  0  0  0  0  0
   11.8534   -0.7633    1.0189 F   0  0  0  0  0  0  0  0  0  0  0  0
   14.2172   -2.6158    1.3662 C   0  0  0  0  0  0  0  0  0  0  0  0
   14.3861   -2.3056    2.6745 N   0  0  0  0  0  0  0  0  0  0  0  0
   13.5728   -2.1216    3.2570 H   0  0  0  0  0  0  0  0  0  0  0  0
   15.3222   -2.3564    3.0742 H   0  0  0  0  0  0  0  0  0  0  0  0
   15.2014   -2.9070    0.5950 N   0  0  0  0  0  4  0  0  0  0  0  0
   16.1674   -2.9154    0.9079 H   0  0  0  0  0  0  0  0  0  0  0  0
   15.2961   -0.8595   -1.5145 C   0  0  0  0  0  0  0  0  0  0  0  0
   14.8697   -0.5236   -0.5766 H   0  0  0  0  0  0  0  0  0  0  0  0
   15.4365    2.0248   -0.7969 C   0  0  0  0  0  0  0  0  0  0  0  0
   15.2984    1.3076    0.0030 H   0  0  0  0  0  0  0  0  0  0  0  0
   15.3725    3.4011   -0.5514 C   0  0  0  0  0  0  0  0  0  0  0  0
   15.1679    3.7870    0.4403 H   0  0  0  0  0  0  0  0  0  0  0  0
  1  2  1  0
  2  3  2  0
  3  4  1  0
  4  5  1  0
  4  6  2  0
  6  7  1  0
  7  8  2  0
  8  9  1  0
  8 10  1  0
 10 11  1  0
 10 12  2  0
 12 13  1  0
 12 14  1  0
 15 14  1  6
 15 16  1  0
 16 17  2  0
 17 18  1  0
 17 19  1  0
 19 20  1  0
 19 21  2  0
 21 22  1  0
 21 23  1  0
 23 24  1  0
 23 25  2  0
 25 26  1  0
 15 27  1  0
 27 28  2  0
 27 29  1  0
 29 30  1  0
 30 31  1  0
 30 32  1  0
 30 33  1  0
 29 34  1  0
 34 35  1  0
 35 36  1  0
 35 37  1  0
 34 38  2  0
 38 39  1  0
 14 40  2  0
 40 41  1  0
  6 42  1  0
 42 43  1  0
 42 44  2  0
 44 45  1  0
 44  2  1  0
 40  7  1  0
 38 15  1  0
 25 16  1  0
M  CHG  1  38   1
M  END
>  <score>  (131) 
5.72628

$$$$

     RDKit          3D

 54 58  0  0  0  0  0  0  0  0999 V2000
   15.5693    5.3719   -1.3875 H   0  0  0  0  0  0  0  0  0  0  0  0
   15.5835    4.3029   -1.5957 C   0  0  0  0  0  0  0  0  0  0  0  0
   15.8194    3.8801   -2.8477 N   0  0  0  0  0  0  0  0  0  0  0  0
   15.8641    2.5521   -3.0877 C   0  0  0  0  0  0  0  0  0  0  0  0
   16.0468    2.2235   -4.1053 H   0  0  0  0  0  0  0  0  0  0  0  0
   15.6855    1.5702   -2.0958 C   0  0  0  0  0  0  0  0  0  0  0  0
   15.7706    0.1178   -2.4102 C   0  0  0  0  0  0  0  0  0  0  0  0
   16.3468   -0.3215   -3.6107 C   0  0  0  0  0  0  0  0  0  0  0  0
   16.7246    0.4080   -4.3205 H   0  0  0  0  0  0  0  0  0  0  0  0
   16.4313   -1.6897   -3.9075 C   0  0  0  0  0  0  0  0  0  0  0  0
   16.8644   -2.0082   -4.8514 H   0  0  0  0  0  0  0  0  0  0  0  0
   15.9421   -2.6452   -3.0043 C   0  0  0  0  0  0  0  0  0  0  0  0
   16.0042   -3.7008   -3.2580 H   0  0  0  0  0  0  0  0  0  0  0  0
   15.3713   -2.2468   -1.7817 C   0  0  0  0  0  0  0  0  0  0  0  0
   14.8048   -3.2579   -0.7782 C   0  0  2  0  0  0  0  0  0  0  0  0
   15.1715   -4.7187   -1.0709 C   0  0  0  0  0  0  0  0  0  0  0  0
   16.3921   -5.2382   -0.6095 C   0  0  0  0  0  0  0  0  0  0  0  0
   17.0668   -4.5861   -0.0633 H   0  0  0  0  0  0  0  0  0  0  0  0
   16.7303   -6.5821   -0.8034 C   0  0  0  0  0  0  0  0  0  0  0  0
   17.6726   -6.9564   -0.4165 H   0  0  0  0  0  0  0  0  0  0  0  0
   15.8539   -7.4401   -1.4727 C   0  0  0  0  0  0  0  0  0  0  0  0
   16.1206   -8.4857   -1.6116 H   0  0  0  0  0  0  0  0  0  0  0  0
   14.6432   -6.9392   -1.9620 C   0  0  0  0  0  0  0  0  0  0  0  0
   13.9720   -7.6114   -2.4883 H   0  0  0  0  0  0  0  0  0  0  0  0
   14.3037   -5.5891   -1.7670 C   0  0  0  0  0  0  0  0  0  0  0  0
   13.3540   -5.2310   -2.1544 H   0  0  0  0  0  0  0  0  0  0  0  0
   13.2903   -3.0451   -0.5812 C   0  0  0  0  0  0  0  0  0  0  0  0
   12.4316   -3.0687   -1.4592 O   0  0  0  0  0  0  0  0  0  0  0  0
   13.0158   -2.6716    0.7196 N   0  0  0  0  0  0  0  0  0  0  0  0
   11.7644   -2.0651    1.1964 C   0  0  1  0  0  0  0  0  0  0  0  0
   11.8650   -1.7977    2.2507 H   0  0  0  0  0  0  0  0  0  0  0  0
   11.3619   -0.8034    0.4202 C   0  0  0  0  0  0  0  0  0  0  0  0
   11.2253    0.0414    1.1069 H   0  0  0  0  0  0  0  0  0  0  0  0
   12.1369   -0.5243   -0.3006 H   0  0  0  0  0  0  0  0  0  0  0  0
   10.0964   -1.1302   -0.2660 N   0  0  0  0  0  0  0  0  0  0  0  0
   10.2789   -1.4101   -1.2312 H   0  0  0  0  0  0  0  0  0  0  0  0
    9.4386   -2.2145    0.4675 C   0  0  0  0  0  0  0  0  0  0  0  0
    8.7909   -2.8182   -0.1836 H   0  0  0  0  0  0  0  0  0  0  0  0
    8.8231   -1.8060    1.2775 H   0  0  0  0  0  0  0  0  0  0  0  0
   10.5930   -3.0269    1.0341 C   0  0  0  0  0  0  0  0  0  0  0  0
   10.8541   -3.8351    0.3501 H   0  0  0  0  0  0  0  0  0  0  0  0
   10.3141   -3.4706    1.9916 H   0  0  0  0  0  0  0  0  0  0  0  0
   14.2234   -2.6185    1.3671 C   0  0  0  0  0  0  0  0  0  0  0  0
   14.4064   -2.3087    2.6825 N   0  0  0  0  0  0  0  0  0  0  0  0
   15.3515   -2.2956    3.0707 H   0  0  0  0  0  0  0  0  0  0  0  0
   13.5941   -2.3081    3.2958 H   0  0  0  0  0  0  0  0  0  0  0  0
   15.2153   -2.9023    0.5951 N   0  0  0  0  0  4  0  0  0  0  0  0
   16.1845   -2.9173    0.9071 H   0  0  0  0  0  0  0  0  0  0  0  0
   15.2950   -0.8600   -1.5144 C   0  0  0  0  0  0  0  0  0  0  0  0
   14.8707   -0.5258   -0.5755 H   0  0  0  0  0  0  0  0  0  0  0  0
   15.4354    2.0246   -0.7972 C   0  0  0  0  0  0  0  0  0  0  0  0
   15.2990    1.3078    0.0034 H   0  0  0  0  0  0  0  0  0  0  0  0
   15.3721    3.4010   -0.5514 C   0  0  0  0  0  0  0  0  0  0  0  0
   15.1679    3.7873    0.4409 H   0  0  0  0  0  0  0  0  0  0  0  0
  1  2  1  0
  2  3  2  0
  3  4  1  0
  4  5  1  0
  4  6  2  0
  6  7  1  0
  7  8  2  0
  8  9  1  0
  8 10  1  0
 10 11  1  0
 10 12  2  0
 12 13  1  0
 12 14  1  0
 15 14  1  6
 15 16  1  0
 16 17  2  0
 17 18  1  0
 17 19  1  0
 19 20  1  0
 19 21  2  0
 21 22  1  0
 21 23  1  0
 23 24  1  0
 23 25  2  0
 25 26  1  0
 15 27  1  0
 27 28  2  0
 27 29  1  0
 29 30  1  0
 30 31  1  1
 30 32  1  0
 32 33  1  0
 32 34  1  0
 32 35  1  0
 35 36  1  0
 35 37  1  0
 37 38  1  0
 37 39  1  0
 37 40  1  0
 40 41  1  0
 40 42  1  0
 29 43  1  0
 43 44  1  0
 44 45  1  0
 44 46  1  0
 43 47  2  0
 47 48  1  0
 14 49  2  0
 49 50  1  0
  6 51  1  0
 51 52  1  0
 51 53  2  0
 53 54  1  0
 53  2  1  0
 49  7  1  0
 47 15  1  0
 25 16  1  0
 40 30  1  0
M  CHG  1  47   1
M  END
>  <score>  (132) 
5.72614

$$$$

     RDKit          3D

 48 51  0  0  0  0  0  0  0  0999 V2000
   15.5499    5.3465   -1.3973 H   0  0  0  0  0  0  0  0  0  0  0  0
   15.5876    4.2801   -1.6069 C   0  0  0  0  0  0  0  0  0  0  0  0
   15.8247    3.8669   -2.8614 N   0  0  0  0  0  0  0  0  0  0  0  0
   15.8813    2.5409   -3.0954 C   0  0  0  0  0  0  0  0  0  0  0  0
   16.0750    2.2008   -4.1072 H   0  0  0  0  0  0  0  0  0  0  0  0
   15.6977    1.5687   -2.0992 C   0  0  0  0  0  0  0  0  0  0  0  0
   15.7782    0.1254   -2.4082 C   0  0  0  0  0  0  0  0  0  0  0  0
   16.3304   -0.3141   -3.6158 C   0  0  0  0  0  0  0  0  0  0  0  0
   16.7100    0.4334   -4.3040 H   0  0  0  0  0  0  0  0  0  0  0  0
   16.4230   -1.6800   -3.9129 C   0  0  0  0  0  0  0  0  0  0  0  0
   16.8666   -1.9991   -4.8502 H   0  0  0  0  0  0  0  0  0  0  0  0
   15.9499   -2.6309   -3.0018 C   0  0  0  0  0  0  0  0  0  0  0  0
   16.0050   -3.6919   -3.2358 H   0  0  0  0  0  0  0  0  0  0  0  0
   15.3968   -2.2246   -1.7801 C   0  0  0  0  0  0  0  0  0  0  0  0
   14.8415   -3.2289   -0.7784 C   0  0  2  0  0  0  0  0  0  0  0  0
   15.1936   -4.6941   -1.0730 C   0  0  0  0  0  0  0  0  0  0  0  0
   16.4068   -5.2240   -0.6055 C   0  0  0  0  0  0  0  0  0  0  0  0
   17.0851   -4.5771   -0.0573 H   0  0  0  0  0  0  0  0  0  0  0  0
   16.7405   -6.5700   -0.8021 C   0  0  0  0  0  0  0  0  0  0  0  0
   17.6759   -6.9611   -0.4103 H   0  0  0  0  0  0  0  0  0  0  0  0
   15.8594   -7.4157   -1.4814 C   0  0  0  0  0  0  0  0  0  0  0  0
   16.1035   -8.4666   -1.6161 H   0  0  0  0  0  0  0  0  0  0  0  0
   14.6487   -6.9113   -1.9662 C   0  0  0  0  0  0  0  0  0  0  0  0
   13.9598   -7.5745   -2.4847 H   0  0  0  0  0  0  0  0  0  0  0  0
   14.3183   -5.5594   -1.7644 C   0  0  0  0  0  0  0  0  0  0  0  0
   13.3637   -5.1878   -2.1240 H   0  0  0  0  0  0  0  0  0  0  0  0
   13.3249   -3.0065   -0.6152 C   0  0  0  0  0  0  0  0  0  0  0  0
   12.4621   -3.1540   -1.4773 O   0  0  0  0  0  0  0  0  0  0  0  0
   13.0393   -2.6178    0.6857 N   0  0  0  0  0  0  0  0  0  0  0  0
   11.6929   -2.5587    1.3167 C   0  0  0  0  0  0  0  0  0  0  0  0
   10.9599   -2.1872    0.5854 H   0  0  0  0  0  0  0  0  0  0  0  0
   11.7120   -1.8388    2.1475 H   0  0  0  0  0  0  0  0  0  0  0  0
   11.1469   -3.9016    1.8694 C   0  0  0  0  0  0  0  0  0  0  0  0
   11.0706   -4.8183    0.8627 F   0  0  0  0  0  0  0  0  0  0  0  0
    9.8999   -3.7042    2.3743 F   0  0  0  0  0  0  0  0  0  0  0  0
   11.9669   -4.3576    2.8539 F   0  0  0  0  0  0  0  0  0  0  0  0
   14.2596   -2.5903    1.3495 C   0  0  0  0  0  0  0  0  0  0  0  0
   14.4180   -2.3325    2.6777 N   0  0  0  0  0  0  0  0  0  0  0  0
   13.6026   -2.1378    3.2544 H   0  0  0  0  0  0  0  0  0  0  0  0
   15.3528   -2.3447    3.0791 H   0  0  0  0  0  0  0  0  0  0  0  0
   15.2694   -2.8794    0.5947 N   0  0  0  0  0  4  0  0  0  0  0  0
   16.2303   -2.9740    0.9363 H   0  0  0  0  0  0  0  0  0  0  0  0
   15.3151   -0.8430   -1.5034 C   0  0  0  0  0  0  0  0  0  0  0  0
   14.8680   -0.5091   -0.5716 H   0  0  0  0  0  0  0  0  0  0  0  0
   15.4487    2.0090   -0.8005 C   0  0  0  0  0  0  0  0  0  0  0  0
   15.3419    1.2697   -0.0124 H   0  0  0  0  0  0  0  0  0  0  0  0
   15.3856    3.3823   -0.5571 C   0  0  0  0  0  0  0  0  0  0  0  0
   15.1852    3.7681    0.4354 H   0  0  0  0  0  0  0  0  0  0  0  0
  1  2  1  0
  2  3  2  0
  3  4  1  0
  4  5  1  0
  4  6  2  0
  6  7  1  0
  7  8  2  0
  8  9  1  0
  8 10  1  0
 10 11  1  0
 10 12  2  0
 12 13  1  0
 12 14  1  0
 15 14  1  6
 15 16  1  0
 16 17  2  0
 17 18  1  0
 17 19  1  0
 19 20  1  0
 19 21  2  0
 21 22  1  0
 21 23  1  0
 23 24  1  0
 23 25  2  0
 25 26  1  0
 15 27  1  0
 27 28  2  0
 27 29  1  0
 29 30  1  0
 30 31  1  0
 30 32  1  0
 30 33  1  0
 33 34  1  0
 33 35  1  0
 33 36  1  0
 29 37  1  0
 37 38  1  0
 38 39  1  0
 38 40  1  0
 37 41  2  0
 41 42  1  0
 14 43  2  0
 43 44  1  0
  6 45  1  0
 45 46  1  0
 45 47  2  0
 47 48  1  0
 47  2  1  0
 43  7  1  0
 41 15  1  0
 25 16  1  0
M  CHG  1  41   1
M  END
>  <score>  (133) 
5.72583

$$$$

     RDKit          3D

 59 63  0  0  0  0  0  0  0  0999 V2000
   15.5417    5.3355   -1.4063 H   0  0  0  0  0  0  0  0  0  0  0  0
   15.5851    4.2699   -1.6103 C   0  0  0  0  0  0  0  0  0  0  0  0
   15.8352    3.8580   -2.8625 N   0  0  0  0  0  0  0  0  0  0  0  0
   15.8896    2.5331   -3.0971 C   0  0  0  0  0  0  0  0  0  0  0  0
   16.0840    2.2013   -4.1128 H   0  0  0  0  0  0  0  0  0  0  0  0
   15.7032    1.5627   -2.0966 C   0  0  0  0  0  0  0  0  0  0  0  0
   15.7707    0.1208   -2.3947 C   0  0  0  0  0  0  0  0  0  0  0  0
   16.3272   -0.3185   -3.6009 C   0  0  0  0  0  0  0  0  0  0  0  0
   16.7076    0.4154   -4.3054 H   0  0  0  0  0  0  0  0  0  0  0  0
   16.4040   -1.6839   -3.8921 C   0  0  0  0  0  0  0  0  0  0  0  0
   16.8601   -2.0072   -4.8256 H   0  0  0  0  0  0  0  0  0  0  0  0
   15.9157   -2.6267   -2.9739 C   0  0  0  0  0  0  0  0  0  0  0  0
   15.9841   -3.6847   -3.2101 H   0  0  0  0  0  0  0  0  0  0  0  0
   15.3533   -2.2230   -1.7484 C   0  0  0  0  0  0  0  0  0  0  0  0
   14.7821   -3.2323   -0.7467 C   0  0  2  0  0  0  0  0  0  0  0  0
   15.1644   -4.6835   -1.0518 C   0  0  0  0  0  0  0  0  0  0  0  0
   16.3882   -5.2046   -0.5974 C   0  0  0  0  0  0  0  0  0  0  0  0
   17.0685   -4.5566   -0.0521 H   0  0  0  0  0  0  0  0  0  0  0  0
   16.7275   -6.5477   -0.7982 C   0  0  0  0  0  0  0  0  0  0  0  0
   17.6705   -6.9314   -0.4157 H   0  0  0  0  0  0  0  0  0  0  0  0
   15.8476   -7.3936   -1.4793 C   0  0  0  0  0  0  0  0  0  0  0  0
   16.1054   -8.4396   -1.6225 H   0  0  0  0  0  0  0  0  0  0  0  0
   14.6371   -6.8892   -1.9662 C   0  0  0  0  0  0  0  0  0  0  0  0
   13.9574   -7.5550   -2.4920 H   0  0  0  0  0  0  0  0  0  0  0  0
   14.2972   -5.5435   -1.7541 C   0  0  0  0  0  0  0  0  0  0  0  0
   13.3431   -5.1764   -2.1202 H   0  0  0  0  0  0  0  0  0  0  0  0
   13.2568   -3.0384   -0.5576 C   0  0  0  0  0  0  0  0  0  0  0  0
   12.3430   -3.1278   -1.3773 O   0  0  0  0  0  0  0  0  0  0  0  0
   13.0217   -2.7778    0.7595 N   0  0  0  0  0  0  0  0  0  0  0  0
   11.7761   -2.5824    1.2629 C   0  0  0  0  0  0  0  0  0  0  0  0
   10.9091   -2.0972    0.5577 O   0  0  0  0  0  0  0  0  0  0  0  0
   11.4956   -3.1135    2.4894 N   0  0  0  0  0  0  0  0  0  0  0  0
   12.2132   -3.7233    2.8618 H   0  0  0  0  0  0  0  0  0  0  0  0
   10.1717   -3.1260    3.1039 C   0  0  0  0  0  0  0  0  0  0  0  0
    9.7882   -2.1027    3.1421 H   0  0  0  0  0  0  0  0  0  0  0  0
   10.2614   -3.4739    4.1384 H   0  0  0  0  0  0  0  0  0  0  0  0
    9.1934   -4.0118    2.3621 C   0  0  0  0  0  0  0  0  0  0  0  0
    9.2673   -5.4098    2.4596 C   0  0  0  0  0  0  0  0  0  0  0  0
   10.0392   -5.8684    3.0690 H   0  0  0  0  0  0  0  0  0  0  0  0
    8.3521   -6.2257    1.7805 C   0  0  0  0  0  0  0  0  0  0  0  0
    8.4302   -7.3066    1.8513 H   0  0  0  0  0  0  0  0  0  0  0  0
    7.3371   -5.6533    1.0062 C   0  0  0  0  0  0  0  0  0  0  0  0
    6.6332   -6.2896    0.4734 H   0  0  0  0  0  0  0  0  0  0  0  0
    7.2295   -4.2609    0.9306 C   0  0  0  0  0  0  0  0  0  0  0  0
    6.4315   -3.8203    0.3395 H   0  0  0  0  0  0  0  0  0  0  0  0
    8.1505   -3.4477    1.6074 C   0  0  0  0  0  0  0  0  0  0  0  0
    8.0527   -2.3691    1.5469 H   0  0  0  0  0  0  0  0  0  0  0  0
   14.1976   -2.7350    1.4369 C   0  0  0  0  0  0  0  0  0  0  0  0
   14.3401   -2.4742    2.7665 N   0  0  0  0  0  0  0  0  0  0  0  0
   15.2858   -2.2787    3.0910 H   0  0  0  0  0  0  0  0  0  0  0  0
   13.5661   -2.0109    3.2377 H   0  0  0  0  0  0  0  0  0  0  0  0
   15.1996   -2.9234    0.6440 N   0  0  0  0  0  4  0  0  0  0  0  0
   16.1683   -2.9531    0.9597 H   0  0  0  0  0  0  0  0  0  0  0  0
   15.2875   -0.8400   -1.4861 C   0  0  0  0  0  0  0  0  0  0  0  0
   14.8485   -0.4950   -0.5560 H   0  0  0  0  0  0  0  0  0  0  0  0
   15.4606    2.0036   -0.7974 C   0  0  0  0  0  0  0  0  0  0  0  0
   15.3472    1.2745   -0.0014 H   0  0  0  0  0  0  0  0  0  0  0  0
   15.3890    3.3740   -0.5578 C   0  0  0  0  0  0  0  0  0  0  0  0
   15.1953    3.7553    0.4373 H   0  0  0  0  0  0  0  0  0  0  0  0
  1  2  1  0
  2  3  2  0
  3  4  1  0
  4  5  1  0
  4  6  2  0
  6  7  1  0
  7  8  2  0
  8  9  1  0
  8 10  1  0
 10 11  1  0
 10 12  2  0
 12 13  1  0
 12 14  1  0
 15 14  1  6
 15 16  1  0
 16 17  2  0
 17 18  1  0
 17 19  1  0
 19 20  1  0
 19 21  2  0
 21 22  1  0
 21 23  1  0
 23 24  1  0
 23 25  2  0
 25 26  1  0
 15 27  1  0
 27 28  2  0
 27 29  1  0
 29 30  1  0
 30 31  2  0
 30 32  1  0
 32 33  1  0
 32 34  1  0
 34 35  1  0
 34 36  1  0
 34 37  1  0
 37 38  2  0
 38 39  1  0
 38 40  1  0
 40 41  1  0
 40 42  2  0
 42 43  1  0
 42 44  1  0
 44 45  1  0
 44 46  2  0
 46 47  1  0
 29 48  1  0
 48 49  1  0
 49 50  1  0
 49 51  1  0
 48 52  2  0
 52 53  1  0
 14 54  2  0
 54 55  1  0
  6 56  1  0
 56 57  1  0
 56 58  2  0
 58 59  1  0
 58  2  1  0
 54  7  1  0
 52 15  1  0
 25 16  1  0
 46 37  1  0
M  CHG  1  52   1
M  END
>  <score>  (134) 
5.72338

$$$$

     RDKit          3D

 58 62  0  0  0  0  0  0  0  0999 V2000
   15.5485    5.3442   -1.3988 H   0  0  0  0  0  0  0  0  0  0  0  0
   15.5852    4.2780   -1.6073 C   0  0  0  0  0  0  0  0  0  0  0  0
   15.8265    3.8631   -2.8608 N   0  0  0  0  0  0  0  0  0  0  0  0
   15.8825    2.5368   -3.0956 C   0  0  0  0  0  0  0  0  0  0  0  0
   16.0787    2.1972   -4.1074 H   0  0  0  0  0  0  0  0  0  0  0  0
   15.6986    1.5643   -2.0978 C   0  0  0  0  0  0  0  0  0  0  0  0
   15.7718    0.1196   -2.4016 C   0  0  0  0  0  0  0  0  0  0  0  0
   16.3300   -0.3178   -3.6058 C   0  0  0  0  0  0  0  0  0  0  0  0
   16.7062    0.4267   -4.3001 H   0  0  0  0  0  0  0  0  0  0  0  0
   16.4154   -1.6846   -3.9000 C   0  0  0  0  0  0  0  0  0  0  0  0
   16.8624   -2.0038   -4.8365 H   0  0  0  0  0  0  0  0  0  0  0  0
   15.9312   -2.6340   -2.9878 C   0  0  0  0  0  0  0  0  0  0  0  0
   15.9961   -3.6925   -3.2251 H   0  0  0  0  0  0  0  0  0  0  0  0
   15.3655   -2.2315   -1.7655 C   0  0  0  0  0  0  0  0  0  0  0  0
   14.7948   -3.2415   -0.7631 C   0  0  2  0  0  0  0  0  0  0  0  0
   15.1739   -4.6971   -1.0611 C   0  0  0  0  0  0  0  0  0  0  0  0
   16.3971   -5.2187   -0.6022 C   0  0  0  0  0  0  0  0  0  0  0  0
   17.0744   -4.5697   -0.0550 H   0  0  0  0  0  0  0  0  0  0  0  0
   16.7356   -6.5638   -0.8029 C   0  0  0  0  0  0  0  0  0  0  0  0
   17.6728   -6.9530   -0.4141 H   0  0  0  0  0  0  0  0  0  0  0  0
   15.8565   -7.4117   -1.4824 C   0  0  0  0  0  0  0  0  0  0  0  0
   16.1054   -8.4612   -1.6179 H   0  0  0  0  0  0  0  0  0  0  0  0
   14.6458   -6.9078   -1.9682 C   0  0  0  0  0  0  0  0  0  0  0  0
   13.9622   -7.5729   -2.4888 H   0  0  0  0  0  0  0  0  0  0  0  0
   14.3080   -5.5602   -1.7598 C   0  0  0  0  0  0  0  0  0  0  0  0
   13.3559   -5.1870   -2.1240 H   0  0  0  0  0  0  0  0  0  0  0  0
   13.2709   -3.0232   -0.5804 C   0  0  0  0  0  0  0  0  0  0  0  0
   12.4116   -3.0825   -1.4542 O   0  0  0  0  0  0  0  0  0  0  0  0
   13.0004   -2.6281    0.7222 N   0  0  0  0  0  0  0  0  0  0  0  0
   11.7701   -1.9643    1.1874 C   0  0  0  0  0  0  0  0  0  0  0  0
   11.8542   -1.7302    2.2602 H   0  0  0  0  0  0  0  0  0  0  0  0
   11.5522   -0.6589    0.3881 C   0  0  0  0  0  0  0  0  0  0  0  0
   12.3633    0.0309    0.6225 H   0  0  0  0  0  0  0  0  0  0  0  0
   11.6272   -0.9228   -0.6678 H   0  0  0  0  0  0  0  0  0  0  0  0
   10.1975    0.0751    0.5773 C   0  0  0  0  0  0  0  0  0  0  0  0
   10.0387    0.7436   -0.2787 H   0  0  0  0  0  0  0  0  0  0  0  0
   10.2141    0.7282    1.4549 H   0  0  0  0  0  0  0  0  0  0  0  0
    9.0091   -0.8981    0.6529 C   0  0  0  0  0  0  0  0  0  0  0  0
    8.7527   -1.1864   -0.3699 H   0  0  0  0  0  0  0  0  0  0  0  0
    8.1380   -0.3850    1.0811 H   0  0  0  0  0  0  0  0  0  0  0  0
    9.2899   -2.1835    1.4547 C   0  0  0  0  0  0  0  0  0  0  0  0
    9.3762   -1.9425    2.5226 H   0  0  0  0  0  0  0  0  0  0  0  0
    8.4434   -2.8661    1.3301 H   0  0  0  0  0  0  0  0  0  0  0  0
   10.5722   -2.8890    0.9941 C   0  0  0  0  0  0  0  0  0  0  0  0
   10.4883   -3.1743   -0.0623 H   0  0  0  0  0  0  0  0  0  0  0  0
   10.7147   -3.8069    1.5749 H   0  0  0  0  0  0  0  0  0  0  0  0
   14.2161   -2.5746    1.3639 C   0  0  0  0  0  0  0  0  0  0  0  0
   14.4091   -2.2273    2.6650 N   0  0  0  0  0  0  0  0  0  0  0  0
   13.6041   -2.2658    3.2897 H   0  0  0  0  0  0  0  0  0  0  0  0
   15.3457   -2.3427    3.0479 H   0  0  0  0  0  0  0  0  0  0  0  0
   15.2146   -2.9025    0.6104 N   0  0  0  0  0  4  0  0  0  0  0  0
   16.1805   -2.9516    0.9375 H   0  0  0  0  0  0  0  0  0  0  0  0
   15.2952   -0.8467   -1.4968 C   0  0  0  0  0  0  0  0  0  0  0  0
   14.8607   -0.5040   -0.5638 H   0  0  0  0  0  0  0  0  0  0  0  0
   15.4540    2.0057   -0.7997 C   0  0  0  0  0  0  0  0  0  0  0  0
   15.3431    1.2682   -0.0115 H   0  0  0  0  0  0  0  0  0  0  0  0
   15.3859    3.3792   -0.5575 C   0  0  0  0  0  0  0  0  0  0  0  0
   15.1871    3.7646    0.4347 H   0  0  0  0  0  0  0  0  0  0  0  0
  1  2  1  0
  2  3  2  0
  3  4  1  0
  4  5  1  0
  4  6  2  0
  6  7  1  0
  7  8  2  0
  8  9  1  0
  8 10  1  0
 10 11  1  0
 10 12  2  0
 12 13  1  0
 12 14  1  0
 15 14  1  6
 15 16  1  0
 16 17  2  0
 17 18  1  0
 17 19  1  0
 19 20  1  0
 19 21  2  0
 21 22  1  0
 21 23  1  0
 23 24  1  0
 23 25  2  0
 25 26  1  0
 15 27  1  0
 27 28  2  0
 27 29  1  0
 29 30  1  0
 30 31  1  0
 30 32  1  0
 32 33  1  0
 32 34  1  0
 32 35  1  0
 35 36  1  0
 35 37  1  0
 35 38  1  0
 38 39  1  0
 38 40  1  0
 38 41  1  0
 41 42  1  0
 41 43  1  0
 41 44  1  0
 44 45  1  0
 44 46  1  0
 29 47  1  0
 47 48  1  0
 48 49  1  0
 48 50  1  0
 47 51  2  0
 51 52  1  0
 14 53  2  0
 53 54  1  0
  6 55  1  0
 55 56  1  0
 55 57  2  0
 57 58  1  0
 57  2  1  0
 53  7  1  0
 51 15  1  0
 25 16  1  0
 44 30  1  0
M  CHG  1  51   1
M  END
>  <score>  (135) 
5.72336

$$$$

     RDKit          3D

 62 66  0  0  0  0  0  0  0  0999 V2000
   15.5683    5.3098   -1.4062 H   0  0  0  0  0  0  0  0  0  0  0  0
   15.6230    4.2430   -1.6025 C   0  0  0  0  0  0  0  0  0  0  0  0
   15.8562    3.8270   -2.8562 N   0  0  0  0  0  0  0  0  0  0  0  0
   15.9238    2.5025   -3.0866 C   0  0  0  0  0  0  0  0  0  0  0  0
   16.1077    2.1735   -4.1043 H   0  0  0  0  0  0  0  0  0  0  0  0
   15.7599    1.5307   -2.0843 C   0  0  0  0  0  0  0  0  0  0  0  0
   15.8431    0.0897   -2.4014 C   0  0  0  0  0  0  0  0  0  0  0  0
   16.3423   -0.3453   -3.6383 C   0  0  0  0  0  0  0  0  0  0  0  0
   16.6798    0.3837   -4.3684 H   0  0  0  0  0  0  0  0  0  0  0  0
   16.4115   -1.7092   -3.9406 C   0  0  0  0  0  0  0  0  0  0  0  0
   16.7858   -2.0272   -4.9080 H   0  0  0  0  0  0  0  0  0  0  0  0
   16.0033   -2.6590   -2.9987 C   0  0  0  0  0  0  0  0  0  0  0  0
   16.0573   -3.7163   -3.2393 H   0  0  0  0  0  0  0  0  0  0  0  0
   15.5224   -2.2592   -1.7437 C   0  0  0  0  0  0  0  0  0  0  0  0
   15.0411   -3.2713   -0.7127 C   0  0  2  0  0  0  0  0  0  0  0  0
   15.3849   -4.7181   -1.0346 C   0  0  0  0  0  0  0  0  0  0  0  0
   16.5846   -5.2934   -0.5919 C   0  0  0  0  0  0  0  0  0  0  0  0
   17.2964   -4.6864   -0.0390 H   0  0  0  0  0  0  0  0  0  0  0  0
   16.8573   -6.6439   -0.8350 C   0  0  0  0  0  0  0  0  0  0  0  0
   17.7836   -7.0758   -0.4700 H   0  0  0  0  0  0  0  0  0  0  0  0
   15.9340   -7.4335   -1.5292 C   0  0  0  0  0  0  0  0  0  0  0  0
   16.1388   -8.4853   -1.7031 H   0  0  0  0  0  0  0  0  0  0  0  0
   14.7455   -6.8661   -1.9960 C   0  0  0  0  0  0  0  0  0  0  0  0
   14.0253   -7.4743   -2.5345 H   0  0  0  0  0  0  0  0  0  0  0  0
   14.4771   -5.5159   -1.7562 C   0  0  0  0  0  0  0  0  0  0  0  0
   13.5446   -5.0914   -2.1174 H   0  0  0  0  0  0  0  0  0  0  0  0
   13.5288   -3.1142   -0.5103 C   0  0  0  0  0  0  0  0  0  0  0  0
   12.6060   -3.2713   -1.3053 O   0  0  0  0  0  0  0  0  0  0  0  0
   13.3113   -2.7158    0.7638 N   0  0  0  0  0  0  0  0  0  0  0  0
   12.1498   -2.1604    1.1416 C   0  0  0  0  0  0  0  0  0  0  0  0
   12.1193   -1.3723    2.0571 O   0  0  0  0  0  0  0  0  0  0  0  0
   11.0473   -2.4850    0.4002 N   0  0  0  0  0  0  0  0  0  0  0  0
   11.2609   -3.1942   -0.2966 H   0  0  0  0  0  0  0  0  0  0  0  0
    9.7788   -2.6168    1.0868 C   0  0  0  0  0  0  0  0  0  0  0  0
    9.4585   -1.6472    1.4931 H   0  0  0  0  0  0  0  0  0  0  0  0
    9.9306   -3.6202    2.2453 C   0  0  0  0  0  0  0  0  0  0  0  0
   10.7583   -3.3088    2.8950 H   0  0  0  0  0  0  0  0  0  0  0  0
   10.1686   -4.5950    1.7965 H   0  0  0  0  0  0  0  0  0  0  0  0
    8.6354   -3.7326    3.0859 C   0  0  0  0  0  0  0  0  0  0  0  0
    8.4671   -4.7769    3.3821 H   0  0  0  0  0  0  0  0  0  0  0  0
    8.7327   -3.1528    4.0109 H   0  0  0  0  0  0  0  0  0  0  0  0
    7.4451   -3.2168    2.2641 C   0  0  0  0  0  0  0  0  0  0  0  0
    6.4995   -3.4700    2.7585 H   0  0  0  0  0  0  0  0  0  0  0  0
    7.5333   -2.1231    2.1790 H   0  0  0  0  0  0  0  0  0  0  0  0
    7.5489   -3.8289    0.8580 C   0  0  0  0  0  0  0  0  0  0  0  0
    7.7835   -4.8988    0.9608 H   0  0  0  0  0  0  0  0  0  0  0  0
    6.6075   -3.7376    0.3031 H   0  0  0  0  0  0  0  0  0  0  0  0
    8.7015   -3.1209    0.1090 C   0  0  0  0  0  0  0  0  0  0  0  0
    8.3201   -2.2749   -0.4755 H   0  0  0  0  0  0  0  0  0  0  0  0
    9.1492   -3.8285   -0.5909 H   0  0  0  0  0  0  0  0  0  0  0  0
   14.4835   -2.5489    1.4068 C   0  0  0  0  0  0  0  0  0  0  0  0
   14.5295   -2.0729    2.6806 N   0  0  0  0  0  0  0  0  0  0  0  0
   15.4011   -2.1722    3.1968 H   0  0  0  0  0  0  0  0  0  0  0  0
   13.6481   -2.0181    3.1906 H   0  0  0  0  0  0  0  0  0  0  0  0
   15.4723   -2.8943    0.6571 N   0  0  0  0  0  4  0  0  0  0  0  0
   16.4506   -2.8090    0.9369 H   0  0  0  0  0  0  0  0  0  0  0  0
   15.4258   -0.8795   -1.4737 C   0  0  0  0  0  0  0  0  0  0  0  0
   15.0136   -0.5498   -0.5243 H   0  0  0  0  0  0  0  0  0  0  0  0
   15.5242    1.9766   -0.7793 C   0  0  0  0  0  0  0  0  0  0  0  0
   15.4154    1.2654    0.0349 H   0  0  0  0  0  0  0  0  0  0  0  0
   15.4515    3.3491   -0.5436 C   0  0  0  0  0  0  0  0  0  0  0  0
   15.2672    3.7304    0.4537 H   0  0  0  0  0  0  0  0  0  0  0  0
  1  2  1  0
  2  3  2  0
  3  4  1  0
  4  5  1  0
  4  6  2  0
  6  7  1  0
  7  8  2  0
  8  9  1  0
  8 10  1  0
 10 11  1  0
 10 12  2  0
 12 13  1  0
 12 14  1  0
 15 14  1  6
 15 16  1  0
 16 17  2  0
 17 18  1  0
 17 19  1  0
 19 20  1  0
 19 21  2  0
 21 22  1  0
 21 23  1  0
 23 24  1  0
 23 25  2  0
 25 26  1  0
 15 27  1  0
 27 28  2  0
 27 29  1  0
 29 30  1  0
 30 31  2  0
 30 32  1  0
 32 33  1  0
 32 34  1  0
 34 35  1  0
 34 36  1  0
 36 37  1  0
 36 38  1  0
 36 39  1  0
 39 40  1  0
 39 41  1  0
 39 42  1  0
 42 43  1  0
 42 44  1  0
 42 45  1  0
 45 46  1  0
 45 47  1  0
 45 48  1  0
 48 49  1  0
 48 50  1  0
 29 51  1  0
 51 52  1  0
 52 53  1  0
 52 54  1  0
 51 55  2  0
 55 56  1  0
 14 57  2  0
 57 58  1  0
  6 59  1  0
 59 60  1  0
 59 61  2  0
 61 62  1  0
 61  2  1  0
 57  7  1  0
 55 15  1  0
 25 16  1  0
 48 34  1  0
M  CHG  1  55   1
M  END
>  <score>  (136) 
5.7232

$$$$

     RDKit          3D

 46 49  0  0  0  0  0  0  0  0999 V2000
   15.5586    5.3583   -1.3919 H   0  0  0  0  0  0  0  0  0  0  0  0
   15.5874    4.2909   -1.6029 C   0  0  0  0  0  0  0  0  0  0  0  0
   15.8210    3.8727   -2.8576 N   0  0  0  0  0  0  0  0  0  0  0  0
   15.8747    2.5457   -3.0912 C   0  0  0  0  0  0  0  0  0  0  0  0
   16.0609    2.2117   -4.1050 H   0  0  0  0  0  0  0  0  0  0  0  0
   15.6907    1.5691   -2.0977 C   0  0  0  0  0  0  0  0  0  0  0  0
   15.7752    0.1225   -2.4081 C   0  0  0  0  0  0  0  0  0  0  0  0
   16.3317   -0.3185   -3.6140 C   0  0  0  0  0  0  0  0  0  0  0  0
   16.7181    0.4190   -4.3079 H   0  0  0  0  0  0  0  0  0  0  0  0
   16.4261   -1.6861   -3.9081 C   0  0  0  0  0  0  0  0  0  0  0  0
   16.8642   -2.0053   -4.8467 H   0  0  0  0  0  0  0  0  0  0  0  0
   15.9479   -2.6390   -3.0009 C   0  0  0  0  0  0  0  0  0  0  0  0
   16.0022   -3.6978   -3.2436 H   0  0  0  0  0  0  0  0  0  0  0  0
   15.3880   -2.2320   -1.7786 C   0  0  0  0  0  0  0  0  0  0  0  0
   14.8180   -3.2386   -0.7781 C   0  0  2  0  0  0  0  0  0  0  0  0
   15.1764   -4.7048   -1.0723 C   0  0  0  0  0  0  0  0  0  0  0  0
   16.3936   -5.2308   -0.6038 C   0  0  0  0  0  0  0  0  0  0  0  0
   17.0732   -4.5811   -0.0616 H   0  0  0  0  0  0  0  0  0  0  0  0
   16.7352   -6.5739   -0.8037 C   0  0  0  0  0  0  0  0  0  0  0  0
   17.6730   -6.9583   -0.4142 H   0  0  0  0  0  0  0  0  0  0  0  0
   15.8575   -7.4262   -1.4781 C   0  0  0  0  0  0  0  0  0  0  0  0
   16.1107   -8.4743   -1.6138 H   0  0  0  0  0  0  0  0  0  0  0  0
   14.6451   -6.9265   -1.9639 C   0  0  0  0  0  0  0  0  0  0  0  0
   13.9656   -7.5933   -2.4882 H   0  0  0  0  0  0  0  0  0  0  0  0
   14.3078   -5.5754   -1.7670 C   0  0  0  0  0  0  0  0  0  0  0  0
   13.3559   -5.2089   -2.1392 H   0  0  0  0  0  0  0  0  0  0  0  0
   13.2997   -3.0046   -0.6141 C   0  0  0  0  0  0  0  0  0  0  0  0
   12.4691   -3.0818   -1.5226 O   0  0  0  0  0  0  0  0  0  0  0  0
   13.0003   -2.7022    0.7023 N   0  0  0  0  0  0  0  0  0  0  0  0
   11.8044   -2.0676    1.1536 N   0  0  0  0  0  0  0  0  0  0  0  0
   10.9304   -2.5395    0.8758 H   0  0  0  0  0  0  0  0  0  0  0  0
   11.8935   -0.7031    0.7729 N   0  0  0  0  0  0  0  0  0  0  0  0
   12.6431   -0.2614    1.3095 H   0  0  0  0  0  0  0  0  0  0  0  0
   12.0749   -0.5882   -0.2246 H   0  0  0  0  0  0  0  0  0  0  0  0
   14.2199   -2.6142    1.3613 C   0  0  0  0  0  0  0  0  0  0  0  0
   14.4067   -2.2745    2.6761 N   0  0  0  0  0  0  0  0  0  0  0  0
   13.5960   -2.1413    3.2798 H   0  0  0  0  0  0  0  0  0  0  0  0
   15.3425   -2.3473    3.0852 H   0  0  0  0  0  0  0  0  0  0  0  0
   15.2319   -2.9028    0.6034 N   0  0  0  0  0  4  0  0  0  0  0  0
   16.2055   -2.9350    0.9304 H   0  0  0  0  0  0  0  0  0  0  0  0
   15.3119   -0.8481   -1.5031 C   0  0  0  0  0  0  0  0  0  0  0  0
   14.8672   -0.5169   -0.5707 H   0  0  0  0  0  0  0  0  0  0  0  0
   15.4380    2.0154   -0.7995 C   0  0  0  0  0  0  0  0  0  0  0  0
   15.3236    1.2876   -0.0035 H   0  0  0  0  0  0  0  0  0  0  0  0
   15.3795    3.3911   -0.5537 C   0  0  0  0  0  0  0  0  0  0  0  0
   15.1762    3.7775    0.4395 H   0  0  0  0  0  0  0  0  0  0  0  0
  1  2  1  0
  2  3  2  0
  3  4  1  0
  4  5  1  0
  4  6  2  0
  6  7  1  0
  7  8  2  0
  8  9  1  0
  8 10  1  0
 10 11  1  0
 10 12  2  0
 12 13  1  0
 12 14  1  0
 15 14  1  6
 15 16  1  0
 16 17  2  0
 17 18  1  0
 17 19  1  0
 19 20  1  0
 19 21  2  0
 21 22  1  0
 21 23  1  0
 23 24  1  0
 23 25  2  0
 25 26  1  0
 15 27  1  0
 27 28  2  0
 27 29  1  0
 29 30  1  0
 30 31  1  0
 30 32  1  0
 32 33  1  0
 32 34  1  0
 29 35  1  0
 35 36  1  0
 36 37  1  0
 36 38  1  0
 35 39  2  0
 39 40  1  0
 14 41  2  0
 41 42  1  0
  6 43  1  0
 43 44  1  0
 43 45  2  0
 45 46  1  0
 45  2  1  0
 41  7  1  0
 39 15  1  0
 25 16  1  0
M  CHG  1  39   1
M  END
>  <score>  (137) 
5.72307

$$$$

     RDKit          3D

 56 61  0  0  0  0  0  0  0  0999 V2000
   15.5560    5.3539   -1.3939 H   0  0  0  0  0  0  0  0  0  0  0  0
   15.5881    4.2872   -1.6041 C   0  0  0  0  0  0  0  0  0  0  0  0
   15.8221    3.8704   -2.8585 N   0  0  0  0  0  0  0  0  0  0  0  0
   15.8768    2.5442   -3.0917 C   0  0  0  0  0  0  0  0  0  0  0  0
   16.0639    2.2106   -4.1059 H   0  0  0  0  0  0  0  0  0  0  0  0
   15.6925    1.5690   -2.0967 C   0  0  0  0  0  0  0  0  0  0  0  0
   15.7764    0.1222   -2.4048 C   0  0  0  0  0  0  0  0  0  0  0  0
   16.3295   -0.3196   -3.6118 C   0  0  0  0  0  0  0  0  0  0  0  0
   16.7157    0.4182   -4.3066 H   0  0  0  0  0  0  0  0  0  0  0  0
   16.4220   -1.6867   -3.9041 C   0  0  0  0  0  0  0  0  0  0  0  0
   16.8631   -2.0052   -4.8418 H   0  0  0  0  0  0  0  0  0  0  0  0
   15.9415   -2.6368   -2.9949 C   0  0  0  0  0  0  0  0  0  0  0  0
   15.9983   -3.6953   -3.2374 H   0  0  0  0  0  0  0  0  0  0  0  0
   15.3781   -2.2308   -1.7724 C   0  0  0  0  0  0  0  0  0  0  0  0
   14.8089   -3.2408   -0.7703 C   0  0  2  0  0  0  0  0  0  0  0  0
   15.1693   -4.7031   -1.0684 C   0  0  0  0  0  0  0  0  0  0  0  0
   16.3889   -5.2267   -0.6021 C   0  0  0  0  0  0  0  0  0  0  0  0
   17.0706   -4.5772   -0.0620 H   0  0  0  0  0  0  0  0  0  0  0  0
   16.7332   -6.5687   -0.8030 C   0  0  0  0  0  0  0  0  0  0  0  0
   17.6716   -6.9550   -0.4156 H   0  0  0  0  0  0  0  0  0  0  0  0
   15.8576   -7.4207   -1.4792 C   0  0  0  0  0  0  0  0  0  0  0  0
   16.1090   -8.4693   -1.6145 H   0  0  0  0  0  0  0  0  0  0  0  0
   14.6446   -6.9224   -1.9646 C   0  0  0  0  0  0  0  0  0  0  0  0
   13.9646   -7.5885   -2.4888 H   0  0  0  0  0  0  0  0  0  0  0  0
   14.3041   -5.5728   -1.7653 C   0  0  0  0  0  0  0  0  0  0  0  0
   13.3524   -5.2035   -2.1363 H   0  0  0  0  0  0  0  0  0  0  0  0
   13.2937   -3.0167   -0.5961 C   0  0  0  0  0  0  0  0  0  0  0  0
   12.4531   -3.0804   -1.4935 O   0  0  0  0  0  0  0  0  0  0  0  0
   13.0127   -2.7047    0.7168 N   0  0  0  0  0  0  0  0  0  0  0  0
   11.7924   -2.1897    1.1632 C   0  0  0  0  0  0  0  0  0  0  0  0
   11.0827   -2.6106    2.2570 C   0  0  0  0  0  0  0  0  0  0  0  0
   11.4080   -3.3736    2.9552 H   0  0  0  0  0  0  0  0  0  0  0  0
    9.9158   -1.8498    2.3229 N   0  0  0  0  0  0  0  0  0  0  0  0
    9.2866   -1.8253    3.1217 H   0  0  0  0  0  0  0  0  0  0  0  0
    9.9137   -0.8851    1.3204 C   0  0  0  0  0  0  0  0  0  0  0  0
    9.0687    0.2087    1.0827 C   0  0  0  0  0  0  0  0  0  0  0  0
    8.2192    0.3905    1.7285 H   0  0  0  0  0  0  0  0  0  0  0  0
    9.3551    1.1046    0.0390 C   0  0  0  0  0  0  0  0  0  0  0  0
    8.7104    1.9598   -0.1652 H   0  0  0  0  0  0  0  0  0  0  0  0
   10.5111    0.9124   -0.7373 C   0  0  0  0  0  0  0  0  0  0  0  0
   10.7541    1.5955   -1.5476 H   0  0  0  0  0  0  0  0  0  0  0  0
   11.3750   -0.1633   -0.4570 C   0  0  0  0  0  0  0  0  0  0  0  0
   12.3047   -0.2840   -1.0037 H   0  0  0  0  0  0  0  0  0  0  0  0
   11.0691   -1.0652    0.5696 C   0  0  0  0  0  0  0  0  0  0  0  0
   14.2226   -2.6493    1.3866 C   0  0  0  0  0  0  0  0  0  0  0  0
   14.4151   -2.3190    2.6990 N   0  0  0  0  0  0  0  0  0  0  0  0
   15.3572   -2.3413    3.0914 H   0  0  0  0  0  0  0  0  0  0  0  0
   13.6139   -2.0971    3.2906 H   0  0  0  0  0  0  0  0  0  0  0  0
   15.2297   -2.9248    0.6163 N   0  0  0  0  0  4  0  0  0  0  0  0
   16.2051   -2.9337    0.9276 H   0  0  0  0  0  0  0  0  0  0  0  0
   15.3089   -0.8464   -1.4981 C   0  0  0  0  0  0  0  0  0  0  0  0
   14.8612   -0.5130   -0.5669 H   0  0  0  0  0  0  0  0  0  0  0  0
   15.4374    2.0142   -0.7993 C   0  0  0  0  0  0  0  0  0  0  0  0
   15.3250    1.2840   -0.0044 H   0  0  0  0  0  0  0  0  0  0  0  0
   15.3799    3.3887   -0.5544 C   0  0  0  0  0  0  0  0  0  0  0  0
   15.1778    3.7741    0.4391 H   0  0  0  0  0  0  0  0  0  0  0  0
  1  2  1  0
  2  3  2  0
  3  4  1  0
  4  5  1  0
  4  6  2  0
  6  7  1  0
  7  8  2  0
  8  9  1  0
  8 10  1  0
 10 11  1  0
 10 12  2  0
 12 13  1  0
 12 14  1  0
 15 14  1  6
 15 16  1  0
 16 17  2  0
 17 18  1  0
 17 19  1  0
 19 20  1  0
 19 21  2  0
 21 22  1  0
 21 23  1  0
 23 24  1  0
 23 25  2  0
 25 26  1  0
 15 27  1  0
 27 28  2  0
 27 29  1  0
 29 30  1  0
 30 31  2  0
 31 32  1  0
 31 33  1  0
 33 34  1  0
 33 35  1  0
 35 36  2  0
 36 37  1  0
 36 38  1  0
 38 39  1  0
 38 40  2  0
 40 41  1  0
 40 42  1  0
 42 43  1  0
 42 44  2  0
 29 45  1  0
 45 46  1  0
 46 47  1  0
 46 48  1  0
 45 49  2  0
 49 50  1  0
 14 51  2  0
 51 52  1  0
  6 53  1  0
 53 54  1  0
 53 55  2  0
 55 56  1  0
 55  2  1  0
 51  7  1  0
 49 15  1  0
 25 16  1  0
 44 30  1  0
 44 35  1  0
M  CHG  1  49   1
M  END
>  <score>  (138) 
5.72262

$$$$

     RDKit          3D

 53 57  0  0  0  0  0  0  0  0999 V2000
   15.5396    5.3333   -1.4073 H   0  0  0  0  0  0  0  0  0  0  0  0
   15.5849    4.2677   -1.6116 C   0  0  0  0  0  0  0  0  0  0  0  0
   15.8359    3.8565   -2.8640 N   0  0  0  0  0  0  0  0  0  0  0  0
   15.8918    2.5317   -3.0980 C   0  0  0  0  0  0  0  0  0  0  0  0
   16.0873    2.1980   -4.1128 H   0  0  0  0  0  0  0  0  0  0  0  0
   15.7055    1.5627   -2.0968 C   0  0  0  0  0  0  0  0  0  0  0  0
   15.7723    0.1221   -2.3936 C   0  0  0  0  0  0  0  0  0  0  0  0
   16.3271   -0.3176   -3.5999 C   0  0  0  0  0  0  0  0  0  0  0  0
   16.7061    0.4179   -4.3040 H   0  0  0  0  0  0  0  0  0  0  0  0
   16.4037   -1.6834   -3.8904 C   0  0  0  0  0  0  0  0  0  0  0  0
   16.8590   -2.0087   -4.8234 H   0  0  0  0  0  0  0  0  0  0  0  0
   15.9151   -2.6247   -2.9710 C   0  0  0  0  0  0  0  0  0  0  0  0
   15.9830   -3.6828   -3.2061 H   0  0  0  0  0  0  0  0  0  0  0  0
   15.3531   -2.2203   -1.7463 C   0  0  0  0  0  0  0  0  0  0  0  0
   14.7814   -3.2301   -0.7447 C   0  0  2  0  0  0  0  0  0  0  0  0
   15.1641   -4.6807   -1.0519 C   0  0  0  0  0  0  0  0  0  0  0  0
   16.3876   -5.2015   -0.5972 C   0  0  0  0  0  0  0  0  0  0  0  0
   17.0669   -4.5536   -0.0519 H   0  0  0  0  0  0  0  0  0  0  0  0
   16.7265   -6.5448   -0.7980 C   0  0  0  0  0  0  0  0  0  0  0  0
   17.6690   -6.9292   -0.4158 H   0  0  0  0  0  0  0  0  0  0  0  0
   15.8457   -7.3895   -1.4795 C   0  0  0  0  0  0  0  0  0  0  0  0
   16.1035   -8.4358   -1.6235 H   0  0  0  0  0  0  0  0  0  0  0  0
   14.6353   -6.8853   -1.9665 C   0  0  0  0  0  0  0  0  0  0  0  0
   13.9558   -7.5509   -2.4926 H   0  0  0  0  0  0  0  0  0  0  0  0
   14.2957   -5.5395   -1.7537 C   0  0  0  0  0  0  0  0  0  0  0  0
   13.3411   -5.1714   -2.1174 H   0  0  0  0  0  0  0  0  0  0  0  0
   13.2544   -3.0440   -0.5475 C   0  0  0  0  0  0  0  0  0  0  0  0
   12.3327   -3.1391   -1.3576 O   0  0  0  0  0  0  0  0  0  0  0  0
   13.0270   -2.8060    0.7730 N   0  0  0  0  0  0  0  0  0  0  0  0
   11.7845   -2.5782    1.2639 C   0  0  0  0  0  0  0  0  0  0  0  0
   10.9403   -2.1110    0.5270 O   0  0  0  0  0  0  0  0  0  0  0  0
   11.4842   -3.0768    2.4971 N   0  0  0  0  0  0  0  0  0  0  0  0
   12.1956   -3.6641    2.9042 H   0  0  0  0  0  0  0  0  0  0  0  0
   10.1881   -2.9924    3.1385 C   0  0  0  0  0  0  0  0  0  0  0  0
    9.9649   -2.0297    3.6031 H   0  0  0  0  0  0  0  0  0  0  0  0
    9.6471   -4.2114    3.8605 C   0  0  0  0  0  0  0  0  0  0  0  0
   10.2598   -5.1161    3.8715 H   0  0  0  0  0  0  0  0  0  0  0  0
    9.0585   -4.0330    4.7639 H   0  0  0  0  0  0  0  0  0  0  0  0
    9.0318   -3.7700    2.5391 C   0  0  0  0  0  0  0  0  0  0  0  0
    9.2204   -4.3843    1.6570 H   0  0  0  0  0  0  0  0  0  0  0  0
    8.0425   -3.3127    2.5801 H   0  0  0  0  0  0  0  0  0  0  0  0
   14.2036   -2.7424    1.4437 C   0  0  0  0  0  0  0  0  0  0  0  0
   14.3470   -2.4755    2.7751 N   0  0  0  0  0  0  0  0  0  0  0  0
   13.5708   -2.0065    3.2370 H   0  0  0  0  0  0  0  0  0  0  0  0
   15.2898   -2.2628    3.0923 H   0  0  0  0  0  0  0  0  0  0  0  0
   15.2033   -2.9213    0.6453 N   0  0  0  0  0  4  0  0  0  0  0  0
   16.1768   -2.9500    0.9555 H   0  0  0  0  0  0  0  0  0  0  0  0
   15.2882   -0.8370   -1.4840 C   0  0  0  0  0  0  0  0  0  0  0  0
   14.8489   -0.4890   -0.5556 H   0  0  0  0  0  0  0  0  0  0  0  0
   15.4635    2.0017   -0.7976 C   0  0  0  0  0  0  0  0  0  0  0  0
   15.3516    1.2712   -0.0030 H   0  0  0  0  0  0  0  0  0  0  0  0
   15.3906    3.3718   -0.5585 C   0  0  0  0  0  0  0  0  0  0  0  0
   15.1967    3.7530    0.4366 H   0  0  0  0  0  0  0  0  0  0  0  0
  1  2  1  0
  2  3  2  0
  3  4  1  0
  4  5  1  0
  4  6  2  0
  6  7  1  0
  7  8  2  0
  8  9  1  0
  8 10  1  0
 10 11  1  0
 10 12  2  0
 12 13  1  0
 12 14  1  0
 15 14  1  6
 15 16  1  0
 16 17  2  0
 17 18  1  0
 17 19  1  0
 19 20  1  0
 19 21  2  0
 21 22  1  0
 21 23  1  0
 23 24  1  0
 23 25  2  0
 25 26  1  0
 15 27  1  0
 27 28  2  0
 27 29  1  0
 29 30  1  0
 30 31  2  0
 30 32  1  0
 32 33  1  0
 32 34  1  0
 34 35  1  0
 34 36  1  0
 36 37  1  0
 36 38  1  0
 36 39  1  0
 39 40  1  0
 39 41  1  0
 29 42  1  0
 42 43  1  0
 43 44  1  0
 43 45  1  0
 42 46  2  0
 46 47  1  0
 14 48  2  0
 48 49  1  0
  6 50  1  0
 50 51  1  0
 50 52  2  0
 52 53  1  0
 52  2  1  0
 48  7  1  0
 46 15  1  0
 25 16  1  0
 39 34  1  0
M  CHG  1  46   1
M  END
>  <score>  (139) 
5.72034

$$$$

     RDKit          3D

 56 60  0  0  0  0  0  0  0  0999 V2000
   15.5696    5.3722   -1.3879 H   0  0  0  0  0  0  0  0  0  0  0  0
   15.5838    4.3032   -1.5954 C   0  0  0  0  0  0  0  0  0  0  0  0
   15.8195    3.8809   -2.8474 N   0  0  0  0  0  0  0  0  0  0  0  0
   15.8638    2.5532   -3.0877 C   0  0  0  0  0  0  0  0  0  0  0  0
   16.0455    2.2261   -4.1058 H   0  0  0  0  0  0  0  0  0  0  0  0
   15.6857    1.5712   -2.0960 C   0  0  0  0  0  0  0  0  0  0  0  0
   15.7716    0.1191   -2.4111 C   0  0  0  0  0  0  0  0  0  0  0  0
   16.3478   -0.3215   -3.6117 C   0  0  0  0  0  0  0  0  0  0  0  0
   16.7253    0.4077   -4.3216 H   0  0  0  0  0  0  0  0  0  0  0  0
   16.4327   -1.6894   -3.9097 C   0  0  0  0  0  0  0  0  0  0  0  0
   16.8654   -2.0073   -4.8535 H   0  0  0  0  0  0  0  0  0  0  0  0
   15.9466   -2.6451   -3.0071 C   0  0  0  0  0  0  0  0  0  0  0  0
   16.0050   -3.7017   -3.2580 H   0  0  0  0  0  0  0  0  0  0  0  0
   15.3815   -2.2434   -1.7856 C   0  0  0  0  0  0  0  0  0  0  0  0
   14.8176   -3.2504   -0.7862 C   0  0  2  0  0  0  0  0  0  0  0  0
   15.1729   -4.7162   -1.0735 C   0  0  0  0  0  0  0  0  0  0  0  0
   16.3912   -5.2384   -0.6098 C   0  0  0  0  0  0  0  0  0  0  0  0
   17.0670   -4.5870   -0.0643 H   0  0  0  0  0  0  0  0  0  0  0  0
   16.7292   -6.5821   -0.8027 C   0  0  0  0  0  0  0  0  0  0  0  0
   17.6722   -6.9563   -0.4169 H   0  0  0  0  0  0  0  0  0  0  0  0
   15.8532   -7.4400   -1.4721 C   0  0  0  0  0  0  0  0  0  0  0  0
   16.1209   -8.4856   -1.6115 H   0  0  0  0  0  0  0  0  0  0  0  0
   14.6419   -6.9393   -1.9602 C   0  0  0  0  0  0  0  0  0  0  0  0
   13.9719   -7.6125   -2.4875 H   0  0  0  0  0  0  0  0  0  0  0  0
   14.3023   -5.5885   -1.7657 C   0  0  0  0  0  0  0  0  0  0  0  0
   13.3525   -5.2322   -2.1549 H   0  0  0  0  0  0  0  0  0  0  0  0
   13.3057   -3.0254   -0.6013 C   0  0  0  0  0  0  0  0  0  0  0  0
   12.4313   -3.1147   -1.4599 O   0  0  0  0  0  0  0  0  0  0  0  0
   13.0319   -2.6442    0.6969 N   0  0  0  0  0  0  0  0  0  0  0  0
   11.7075   -2.6459    1.3322 C   0  0  0  0  0  0  0  0  0  0  0  0
   10.9190   -2.4562    0.5950 H   0  0  0  0  0  0  0  0  0  0  0  0
   11.6484   -1.8410    2.0719 H   0  0  0  0  0  0  0  0  0  0  0  0
   11.4262   -3.9800    2.0219 C   0  0  1  0  0  0  0  0  0  0  0  0
   12.1937   -4.1574    2.7838 H   0  0  0  0  0  0  0  0  0  0  0  0
   10.1272   -3.9434    2.6235 O   0  0  0  0  0  0  0  0  0  0  0  0
    9.4909   -5.2226    2.5149 C   0  0  0  0  0  0  0  0  0  0  0  0
    9.2866   -5.6618    3.4995 H   0  0  0  0  0  0  0  0  0  0  0  0
    8.5366   -5.0985    1.9936 H   0  0  0  0  0  0  0  0  0  0  0  0
   10.4240   -6.1144    1.7059 C   0  0  0  0  0  0  0  0  0  0  0  0
   10.9649   -6.7981    2.3652 H   0  0  0  0  0  0  0  0  0  0  0  0
    9.8812   -6.7183    0.9758 H   0  0  0  0  0  0  0  0  0  0  0  0
   11.3830   -5.1459    1.0456 C   0  0  0  0  0  0  0  0  0  0  0  0
   12.3683   -5.5867    0.8888 H   0  0  0  0  0  0  0  0  0  0  0  0
   11.0032   -4.8285    0.0717 H   0  0  0  0  0  0  0  0  0  0  0  0
   14.2318   -2.6237    1.3620 C   0  0  0  0  0  0  0  0  0  0  0  0
   14.3978   -2.3582    2.6903 N   0  0  0  0  0  0  0  0  0  0  0  0
   13.5868   -2.1153    3.2564 H   0  0  0  0  0  0  0  0  0  0  0  0
   15.3361   -2.3578    3.0909 H   0  0  0  0  0  0  0  0  0  0  0  0
   15.2261   -2.8948    0.5889 N   0  0  0  0  0  4  0  0  0  0  0  0
   16.1923   -2.9130    0.9068 H   0  0  0  0  0  0  0  0  0  0  0  0
   15.2978   -0.8584   -1.5158 C   0  0  0  0  0  0  0  0  0  0  0  0
   14.8688   -0.5296   -0.5762 H   0  0  0  0  0  0  0  0  0  0  0  0
   15.4349    2.0254   -0.7970 C   0  0  0  0  0  0  0  0  0  0  0  0
   15.2972    1.3086    0.0037 H   0  0  0  0  0  0  0  0  0  0  0  0
   15.3720    3.4018   -0.5507 C   0  0  0  0  0  0  0  0  0  0  0  0
   15.1678    3.7880    0.4416 H   0  0  0  0  0  0  0  0  0  0  0  0
  1  2  1  0
  2  3  2  0
  3  4  1  0
  4  5  1  0
  4  6  2  0
  6  7  1  0
  7  8  2  0
  8  9  1  0
  8 10  1  0
 10 11  1  0
 10 12  2  0
 12 13  1  0
 12 14  1  0
 15 14  1  6
 15 16  1  0
 16 17  2  0
 17 18  1  0
 17 19  1  0
 19 20  1  0
 19 21  2  0
 21 22  1  0
 21 23  1  0
 23 24  1  0
 23 25  2  0
 25 26  1  0
 15 27  1  0
 27 28  2  0
 27 29  1  0
 29 30  1  0
 30 31  1  0
 30 32  1  0
 30 33  1  0
 33 34  1  1
 33 35  1  0
 35 36  1  0
 36 37  1  0
 36 38  1  0
 36 39  1  0
 39 40  1  0
 39 41  1  0
 39 42  1  0
 42 43  1  0
 42 44  1  0
 29 45  1  0
 45 46  1  0
 46 47  1  0
 46 48  1  0
 45 49  2  0
 49 50  1  0
 14 51  2  0
 51 52  1  0
  6 53  1  0
 53 54  1  0
 53 55  2  0
 55 56  1  0
 55  2  1  0
 51  7  1  0
 49 15  1  0
 25 16  1  0
 42 33  1  0
M  CHG  1  49   1
M  END
>  <score>  (140) 
5.71588

$$$$

     RDKit          3D

 43 46  0  0  0  0  0  0  0  0999 V2000
   11.2639   -3.0696    1.6854 H   0  0  0  0  0  0  0  0  0  0  0  0
   11.7285   -2.3364    1.2288 O   0  0  0  0  0  0  0  0  0  0  0  0
   13.0298   -2.6710    0.6828 N   0  0  0  0  0  0  0  0  0  0  0  0
   13.3153   -3.0025   -0.6353 C   0  0  0  0  0  0  0  0  0  0  0  0
   12.4656   -3.1050   -1.5208 O   0  0  0  0  0  0  0  0  0  0  0  0
   14.8297   -3.2506   -0.7920 C   0  0  1  0  0  0  0  0  0  0  0  0
   15.1765   -4.7202   -1.0785 C   0  0  0  0  0  0  0  0  0  0  0  0
   16.3924   -5.2428   -0.6088 C   0  0  0  0  0  0  0  0  0  0  0  0
   17.0686   -4.5897   -0.0662 H   0  0  0  0  0  0  0  0  0  0  0  0
   16.7299   -6.5846   -0.8017 C   0  0  0  0  0  0  0  0  0  0  0  0
   17.6734   -6.9562   -0.4170 H   0  0  0  0  0  0  0  0  0  0  0  0
   15.8542   -7.4418   -1.4718 C   0  0  0  0  0  0  0  0  0  0  0  0
   16.1219   -8.4869   -1.6115 H   0  0  0  0  0  0  0  0  0  0  0  0
   14.6428   -6.9421   -1.9610 C   0  0  0  0  0  0  0  0  0  0  0  0
   13.9721   -7.6138   -2.4885 H   0  0  0  0  0  0  0  0  0  0  0  0
   14.3032   -5.5919   -1.7688 C   0  0  0  0  0  0  0  0  0  0  0  0
   13.3537   -5.2349   -2.1593 H   0  0  0  0  0  0  0  0  0  0  0  0
   15.3918   -2.2434   -1.7894 C   0  0  0  0  0  0  0  0  0  0  0  0
   15.9496   -2.6452   -3.0124 C   0  0  0  0  0  0  0  0  0  0  0  0
   16.0061   -3.7020   -3.2607 H   0  0  0  0  0  0  0  0  0  0  0  0
   16.4328   -1.6889   -3.9124 C   0  0  0  0  0  0  0  0  0  0  0  0
   16.8663   -2.0073   -4.8546 H   0  0  0  0  0  0  0  0  0  0  0  0
   16.3471   -0.3217   -3.6127 C   0  0  0  0  0  0  0  0  0  0  0  0
   16.7278    0.4039   -4.3235 H   0  0  0  0  0  0  0  0  0  0  0  0
   15.7726    0.1194   -2.4109 C   0  0  0  0  0  0  0  0  0  0  0  0
   15.6848    1.5716   -2.0956 C   0  0  0  0  0  0  0  0  0  0  0  0
   15.8635    2.5540   -3.0868 C   0  0  0  0  0  0  0  0  0  0  0  0
   16.0428    2.2285   -4.1057 H   0  0  0  0  0  0  0  0  0  0  0  0
   15.8204    3.8819   -2.8480 N   0  0  0  0  0  0  0  0  0  0  0  0
   15.5847    4.3034   -1.5955 C   0  0  0  0  0  0  0  0  0  0  0  0
   15.5699    5.3720   -1.3876 H   0  0  0  0  0  0  0  0  0  0  0  0
   15.3711    3.4024   -0.5508 C   0  0  0  0  0  0  0  0  0  0  0  0
   15.1674    3.7859    0.4430 H   0  0  0  0  0  0  0  0  0  0  0  0
   15.4321    2.0266   -0.7971 C   0  0  0  0  0  0  0  0  0  0  0  0
   15.2948    1.3149    0.0071 H   0  0  0  0  0  0  0  0  0  0  0  0
   15.3019   -0.8591   -1.5162 C   0  0  0  0  0  0  0  0  0  0  0  0
   14.8675   -0.5330   -0.5770 H   0  0  0  0  0  0  0  0  0  0  0  0
   15.2538   -2.9065    0.5854 N   0  0  0  0  0  4  0  0  0  0  0  0
   16.2297   -2.9178    0.8939 H   0  0  0  0  0  0  0  0  0  0  0  0
   14.2475   -2.6155    1.3547 C   0  0  0  0  0  0  0  0  0  0  0  0
   14.4175   -2.3335    2.6944 N   0  0  0  0  0  0  0  0  0  0  0  0
   15.3478   -2.3450    3.1169 H   0  0  0  0  0  0  0  0  0  0  0  0
   13.5979   -2.1290    3.2681 H   0  0  0  0  0  0  0  0  0  0  0  0
  1  2  1  0
  2  3  1  0
  3  4  1  0
  4  5  2  0
  4  6  1  0
  6  7  1  6
  7  8  2  0
  8  9  1  0
  8 10  1  0
 10 11  1  0
 10 12  2  0
 12 13  1  0
 12 14  1  0
 14 15  1  0
 14 16  2  0
 16 17  1  0
  6 18  1  0
 18 19  2  0
 19 20  1  0
 19 21  1  0
 21 22  1  0
 21 23  2  0
 23 24  1  0
 23 25  1  0
 25 26  1  0
 26 27  2  0
 27 28  1  0
 27 29  1  0
 29 30  2  0
 30 31  1  0
 30 32  1  0
 32 33  1  0
 32 34  2  0
 34 35  1  0
 25 36  2  0
 36 37  1  0
  6 38  1  0
 38 39  1  0
 38 40  2  0
 40 41  1  0
 41 42  1  0
 41 43  1  0
 40  3  1  0
 16  7  1  0
 36 18  1  0
 34 26  1  0
M  CHG  1  38   1
M  END
>  <score>  (141) 
5.7154

$$$$

     RDKit          3D

 56 60  0  0  0  0  0  0  0  0999 V2000
   15.5330    5.3246   -1.4135 H   0  0  0  0  0  0  0  0  0  0  0  0
   15.5831    4.2596   -1.6129 C   0  0  0  0  0  0  0  0  0  0  0  0
   15.8396    3.8502   -2.8639 N   0  0  0  0  0  0  0  0  0  0  0  0
   15.8955    2.5271   -3.1013 C   0  0  0  0  0  0  0  0  0  0  0  0
   16.0965    2.1976   -4.1171 H   0  0  0  0  0  0  0  0  0  0  0  0
   15.7112    1.5577   -2.0997 C   0  0  0  0  0  0  0  0  0  0  0  0
   15.7871    0.1200   -2.4014 C   0  0  0  0  0  0  0  0  0  0  0  0
   16.3390   -0.3117   -3.6124 C   0  0  0  0  0  0  0  0  0  0  0  0
   16.6998    0.4273   -4.3217 H   0  0  0  0  0  0  0  0  0  0  0  0
   16.4179   -1.6747   -3.9094 C   0  0  0  0  0  0  0  0  0  0  0  0
   16.8571   -1.9932   -4.8498 H   0  0  0  0  0  0  0  0  0  0  0  0
   15.9537   -2.6209   -2.9878 C   0  0  0  0  0  0  0  0  0  0  0  0
   16.0161   -3.6772   -3.2239 H   0  0  0  0  0  0  0  0  0  0  0  0
   15.4166   -2.2226   -1.7547 C   0  0  0  0  0  0  0  0  0  0  0  0
   14.8619   -3.2308   -0.7569 C   0  0  2  0  0  0  0  0  0  0  0  0
   15.2132   -4.6856   -1.0579 C   0  0  0  0  0  0  0  0  0  0  0  0
   16.4283   -5.2215   -0.6048 C   0  0  0  0  0  0  0  0  0  0  0  0
   17.1134   -4.5796   -0.0596 H   0  0  0  0  0  0  0  0  0  0  0  0
   16.7440   -6.5681   -0.8048 C   0  0  0  0  0  0  0  0  0  0  0  0
   17.6791   -6.9588   -0.4148 H   0  0  0  0  0  0  0  0  0  0  0  0
   15.8544   -7.4017   -1.4878 C   0  0  0  0  0  0  0  0  0  0  0  0
   16.0977   -8.4514   -1.6285 H   0  0  0  0  0  0  0  0  0  0  0  0
   14.6488   -6.8802   -1.9700 C   0  0  0  0  0  0  0  0  0  0  0  0
   13.9548   -7.5362   -2.4869 H   0  0  0  0  0  0  0  0  0  0  0  0
   14.3272   -5.5319   -1.7545 C   0  0  0  0  0  0  0  0  0  0  0  0
   13.3748   -5.1547   -2.1180 H   0  0  0  0  0  0  0  0  0  0  0  0
   13.3463   -3.0119   -0.6047 C   0  0  0  0  0  0  0  0  0  0  0  0
   12.5060   -3.1577   -1.4910 O   0  0  0  0  0  0  0  0  0  0  0  0
   13.0589   -2.6452    0.6989 N   0  0  0  0  0  0  0  0  0  0  0  0
   11.7831   -2.2033    1.2013 O   0  0  0  0  0  0  0  0  0  0  0  0
   10.8492   -3.2667    1.4418 C   0  0  0  0  0  0  0  0  0  0  0  0
   10.9707   -4.0204    0.6595 H   0  0  0  0  0  0  0  0  0  0  0  0
   11.0668   -3.8699    2.8242 C   0  0  0  0  0  0  0  0  0  0  0  0
   12.1048   -3.7476    3.1557 H   0  0  0  0  0  0  0  0  0  0  0  0
   10.8426   -4.9363    2.7758 H   0  0  0  0  0  0  0  0  0  0  0  0
   10.0821   -3.1982    3.7813 C   0  0  0  0  0  0  0  0  0  0  0  0
    9.5757   -3.9382    4.4089 H   0  0  0  0  0  0  0  0  0  0  0  0
   10.6110   -2.5232    4.4547 H   0  0  0  0  0  0  0  0  0  0  0  0
    9.0780   -2.4341    2.9191 C   0  0  0  0  0  0  0  0  0  0  0  0
    9.1701   -1.3591    3.0926 H   0  0  0  0  0  0  0  0  0  0  0  0
    8.0531   -2.7200    3.1683 H   0  0  0  0  0  0  0  0  0  0  0  0
    9.4072   -2.7595    1.4646 C   0  0  0  0  0  0  0  0  0  0  0  0
    9.2725   -1.8807    0.8284 H   0  0  0  0  0  0  0  0  0  0  0  0
    8.7405   -3.5487    1.1028 H   0  0  0  0  0  0  0  0  0  0  0  0
   14.2722   -2.5865    1.3707 C   0  0  0  0  0  0  0  0  0  0  0  0
   14.4690   -2.2665    2.6899 N   0  0  0  0  0  0  0  0  0  0  0  0
   13.6645   -2.0570    3.2800 H   0  0  0  0  0  0  0  0  0  0  0  0
   15.4072   -2.2998    3.0855 H   0  0  0  0  0  0  0  0  0  0  0  0
   15.2808   -2.8934    0.6167 N   0  0  0  0  0  4  0  0  0  0  0  0
   16.2416   -3.0041    0.9486 H   0  0  0  0  0  0  0  0  0  0  0  0
   15.3208   -0.8429   -1.4896 C   0  0  0  0  0  0  0  0  0  0  0  0
   14.8775   -0.5059   -0.5564 H   0  0  0  0  0  0  0  0  0  0  0  0
   15.4723    1.9951   -0.7978 C   0  0  0  0  0  0  0  0  0  0  0  0
   15.3623    1.2703    0.0029 H   0  0  0  0  0  0  0  0  0  0  0  0
   15.3948    3.3637   -0.5598 C   0  0  0  0  0  0  0  0  0  0  0  0
   15.2075    3.7412    0.4367 H   0  0  0  0  0  0  0  0  0  0  0  0
  1  2  1  0
  2  3  2  0
  3  4  1  0
  4  5  1  0
  4  6  2  0
  6  7  1  0
  7  8  2  0
  8  9  1  0
  8 10  1  0
 10 11  1  0
 10 12  2  0
 12 13  1  0
 12 14  1  0
 15 14  1  6
 15 16  1  0
 16 17  2  0
 17 18  1  0
 17 19  1  0
 19 20  1  0
 19 21  2  0
 21 22  1  0
 21 23  1  0
 23 24  1  0
 23 25  2  0
 25 26  1  0
 15 27  1  0
 27 28  2  0
 27 29  1  0
 29 30  1  0
 30 31  1  0
 31 32  1  0
 31 33  1  0
 33 34  1  0
 33 35  1  0
 33 36  1  0
 36 37  1  0
 36 38  1  0
 36 39  1  0
 39 40  1  0
 39 41  1  0
 39 42  1  0
 42 43  1  0
 42 44  1  0
 29 45  1  0
 45 46  1  0
 46 47  1  0
 46 48  1  0
 45 49  2  0
 49 50  1  0
 14 51  2  0
 51 52  1  0
  6 53  1  0
 53 54  1  0
 53 55  2  0
 55 56  1  0
 55  2  1  0
 51  7  1  0
 49 15  1  0
 25 16  1  0
 42 31  1  0
M  CHG  1  49   1
M  END
>  <score>  (142) 
5.7145

$$$$

     RDKit          3D

 55 59  0  0  0  0  0  0  0  0999 V2000
   15.5511    5.3480   -1.3965 H   0  0  0  0  0  0  0  0  0  0  0  0
   15.5854    4.2818   -1.6051 C   0  0  0  0  0  0  0  0  0  0  0  0
   15.8217    3.8668   -2.8590 N   0  0  0  0  0  0  0  0  0  0  0  0
   15.8778    2.5407   -3.0939 C   0  0  0  0  0  0  0  0  0  0  0  0
   16.0720    2.2016   -4.1067 H   0  0  0  0  0  0  0  0  0  0  0  0
   15.6951    1.5676   -2.0970 C   0  0  0  0  0  0  0  0  0  0  0  0
   15.7733    0.1222   -2.4059 C   0  0  0  0  0  0  0  0  0  0  0  0
   16.3311   -0.3152   -3.6129 C   0  0  0  0  0  0  0  0  0  0  0  0
   16.7086    0.4313   -4.3045 H   0  0  0  0  0  0  0  0  0  0  0  0
   16.4205   -1.6811   -3.9115 C   0  0  0  0  0  0  0  0  0  0  0  0
   16.8654   -2.0001   -4.8484 H   0  0  0  0  0  0  0  0  0  0  0  0
   15.9435   -2.6328   -3.0026 C   0  0  0  0  0  0  0  0  0  0  0  0
   16.0027   -3.6921   -3.2380 H   0  0  0  0  0  0  0  0  0  0  0  0
   15.3884   -2.2319   -1.7795 C   0  0  0  0  0  0  0  0  0  0  0  0
   14.8497   -3.2515   -0.7809 C   0  0  2  0  0  0  0  0  0  0  0  0
   15.2029   -4.7057   -1.0822 C   0  0  0  0  0  0  0  0  0  0  0  0
   16.4125   -5.2304   -0.6107 C   0  0  0  0  0  0  0  0  0  0  0  0
   17.0830   -4.5786   -0.0580 H   0  0  0  0  0  0  0  0  0  0  0  0
   16.7421   -6.5752   -0.8030 C   0  0  0  0  0  0  0  0  0  0  0  0
   17.6772   -6.9628   -0.4098 H   0  0  0  0  0  0  0  0  0  0  0  0
   15.8597   -7.4209   -1.4819 C   0  0  0  0  0  0  0  0  0  0  0  0
   16.1059   -8.4705   -1.6158 H   0  0  0  0  0  0  0  0  0  0  0  0
   14.6492   -6.9176   -1.9692 C   0  0  0  0  0  0  0  0  0  0  0  0
   13.9605   -7.5812   -2.4862 H   0  0  0  0  0  0  0  0  0  0  0  0
   14.3216   -5.5669   -1.7706 C   0  0  0  0  0  0  0  0  0  0  0  0
   13.3662   -5.1939   -2.1281 H   0  0  0  0  0  0  0  0  0  0  0  0
   13.3345   -3.0863   -0.6143 C   0  0  0  0  0  0  0  0  0  0  0  0
   12.4879   -3.1564   -1.5067 O   0  0  0  0  0  0  0  0  0  0  0  0
   13.0717   -2.7603    0.7008 N   0  0  0  0  0  0  0  0  0  0  0  0
   11.7754   -2.5916    1.2605 O   0  0  0  0  0  0  0  0  0  0  0  0
   11.3745   -1.2157    1.2925 C   0  0  0  0  0  0  0  0  0  0  0  0
   10.4427   -1.1647    1.8523 H   0  0  0  0  0  0  0  0  0  0  0  0
   12.1205   -0.6065    1.8033 H   0  0  0  0  0  0  0  0  0  0  0  0
   11.1111   -0.6567   -0.0795 C   0  0  0  0  0  0  0  0  0  0  0  0
   11.9104    0.3052   -0.7070 C   0  0  0  0  0  0  0  0  0  0  0  0
   12.7921    0.7174   -0.2360 H   0  0  0  0  0  0  0  0  0  0  0  0
   11.5820    0.7564   -1.9909 C   0  0  0  0  0  0  0  0  0  0  0  0
   12.2273    1.4931   -2.4659 H   0  0  0  0  0  0  0  0  0  0  0  0
   10.5037    0.3029   -2.6571 N   0  0  0  0  0  0  0  0  0  0  0  0
    9.7256   -0.6128   -2.0546 C   0  0  0  0  0  0  0  0  0  0  0  0
    8.8535   -1.0056   -2.5707 H   0  0  0  0  0  0  0  0  0  0  0  0
    9.9981   -1.0983   -0.7763 C   0  0  0  0  0  0  0  0  0  0  0  0
    9.3516   -1.8349   -0.3187 H   0  0  0  0  0  0  0  0  0  0  0  0
   14.2794   -2.6663    1.3724 C   0  0  0  0  0  0  0  0  0  0  0  0
   14.4408   -2.3321    2.6936 N   0  0  0  0  0  0  0  0  0  0  0  0
   15.3723   -2.3353    3.1067 H   0  0  0  0  0  0  0  0  0  0  0  0
   13.6184   -2.1678    3.2750 H   0  0  0  0  0  0  0  0  0  0  0  0
   15.2849   -2.9132    0.5943 N   0  0  0  0  0  4  0  0  0  0  0  0
   16.2595   -2.9489    0.9046 H   0  0  0  0  0  0  0  0  0  0  0  0
   15.3051   -0.8488   -1.5034 C   0  0  0  0  0  0  0  0  0  0  0  0
   14.8666   -0.5122   -0.5689 H   0  0  0  0  0  0  0  0  0  0  0  0
   15.4475    2.0099   -0.7982 C   0  0  0  0  0  0  0  0  0  0  0  0
   15.3392    1.2715   -0.0098 H   0  0  0  0  0  0  0  0  0  0  0  0
   15.3833    3.3837   -0.5557 C   0  0  0  0  0  0  0  0  0  0  0  0
   15.1851    3.7703    0.4361 H   0  0  0  0  0  0  0  0  0  0  0  0
  1  2  1  0
  2  3  2  0
  3  4  1  0
  4  5  1  0
  4  6  2  0
  6  7  1  0
  7  8  2  0
  8  9  1  0
  8 10  1  0
 10 11  1  0
 10 12  2  0
 12 13  1  0
 12 14  1  0
 15 14  1  6
 15 16  1  0
 16 17  2  0
 17 18  1  0
 17 19  1  0
 19 20  1  0
 19 21  2  0
 21 22  1  0
 21 23  1  0
 23 24  1  0
 23 25  2  0
 25 26  1  0
 15 27  1  0
 27 28  2  0
 27 29  1  0
 29 30  1  0
 30 31  1  0
 31 32  1  0
 31 33  1  0
 31 34  1  0
 34 35  2  0
 35 36  1  0
 35 37  1  0
 37 38  1  0
 37 39  2  0
 39 40  1  0
 40 41  1  0
 40 42  2  0
 42 43  1  0
 29 44  1  0
 44 45  1  0
 45 46  1  0
 45 47  1  0
 44 48  2  0
 48 49  1  0
 14 50  2  0
 50 51  1  0
  6 52  1  0
 52 53  1  0
 52 54  2  0
 54 55  1  0
 54  2  1  0
 50  7  1  0
 48 15  1  0
 25 16  1  0
 42 34  1  0
M  CHG  1  48   1
M  END
>  <score>  (143) 
5.71231

$$$$

     RDKit          3D

 56 60  0  0  0  0  0  0  0  0999 V2000
    8.5857   -0.4362    3.6685 H   0  0  0  0  0  0  0  0  0  0  0  0
    7.8035   -0.7538    3.1775 O   0  0  0  0  0  0  0  0  0  0  0  0
    8.0403   -2.1124    2.8292 C   0  0  0  0  0  0  0  0  0  0  0  0
    7.9322   -2.7740    3.6942 H   0  0  0  0  0  0  0  0  0  0  0  0
    7.3503   -2.4670    2.0663 H   0  0  0  0  0  0  0  0  0  0  0  0
    9.4249   -2.1950    2.3072 C   0  0  0  0  0  0  0  0  0  0  0  0
    9.8151   -1.4641    1.1749 C   0  0  0  0  0  0  0  0  0  0  0  0
    9.1406   -0.7577    0.6977 H   0  0  0  0  0  0  0  0  0  0  0  0
   11.0924   -1.6538    0.6499 C   0  0  0  0  0  0  0  0  0  0  0  0
   11.4119   -1.1471   -0.2553 H   0  0  0  0  0  0  0  0  0  0  0  0
   11.9816   -2.5207    1.2840 C   0  0  0  0  0  0  0  0  0  0  0  0
   13.2396   -2.7156    0.7448 N   0  0  0  0  0  0  0  0  0  0  0  0
   13.4801   -3.0151   -0.5721 C   0  0  0  0  0  0  0  0  0  0  0  0
   12.6113   -3.1477   -1.4343 O   0  0  0  0  0  0  0  0  0  0  0  0
   14.9903   -3.2146   -0.7344 C   0  0  1  0  0  0  0  0  0  0  0  0
   15.3041   -4.6633   -1.0450 C   0  0  0  0  0  0  0  0  0  0  0  0
   16.5052   -5.2240   -0.5994 C   0  0  0  0  0  0  0  0  0  0  0  0
   17.2128   -4.5998   -0.0622 H   0  0  0  0  0  0  0  0  0  0  0  0
   16.7884   -6.5722   -0.8183 C   0  0  0  0  0  0  0  0  0  0  0  0
   17.7201   -6.9861   -0.4439 H   0  0  0  0  0  0  0  0  0  0  0  0
   15.8683   -7.3739   -1.5038 C   0  0  0  0  0  0  0  0  0  0  0  0
   16.0842   -8.4238   -1.6706 H   0  0  0  0  0  0  0  0  0  0  0  0
   14.6699   -6.8236   -1.9722 C   0  0  0  0  0  0  0  0  0  0  0  0
   13.9462   -7.4435   -2.4948 H   0  0  0  0  0  0  0  0  0  0  0  0
   14.3925   -5.4718   -1.7483 C   0  0  0  0  0  0  0  0  0  0  0  0
   13.4525   -5.0586   -2.1021 H   0  0  0  0  0  0  0  0  0  0  0  0
   15.5084   -2.2244   -1.7589 C   0  0  0  0  0  0  0  0  0  0  0  0
   16.0038   -2.6382   -3.0045 C   0  0  0  0  0  0  0  0  0  0  0  0
   16.0577   -3.6980   -3.2382 H   0  0  0  0  0  0  0  0  0  0  0  0
   16.4269   -1.6944   -3.9454 C   0  0  0  0  0  0  0  0  0  0  0  0
   16.8236   -2.0207   -4.9028 H   0  0  0  0  0  0  0  0  0  0  0  0
   16.3549   -0.3276   -3.6436 C   0  0  0  0  0  0  0  0  0  0  0  0
   16.7073    0.3971   -4.3688 H   0  0  0  0  0  0  0  0  0  0  0  0
   15.8507    0.1165   -2.4098 C   0  0  0  0  0  0  0  0  0  0  0  0
   15.7588    1.5569   -2.0869 C   0  0  0  0  0  0  0  0  0  0  0  0
   15.9239    2.5280   -3.0859 C   0  0  0  0  0  0  0  0  0  0  0  0
   16.1191    2.1886   -4.0966 H   0  0  0  0  0  0  0  0  0  0  0  0
   15.8458    3.8523   -2.8606 N   0  0  0  0  0  0  0  0  0  0  0  0
   15.5994    4.2662   -1.6087 C   0  0  0  0  0  0  0  0  0  0  0  0
   15.5241    5.3315   -1.4176 H   0  0  0  0  0  0  0  0  0  0  0  0
   15.4357    3.3740   -0.5466 C   0  0  0  0  0  0  0  0  0  0  0  0
   15.2496    3.7531    0.4520 H   0  0  0  0  0  0  0  0  0  0  0  0
   15.5169    2.0025   -0.7833 C   0  0  0  0  0  0  0  0  0  0  0  0
   15.4109    1.2909    0.0295 H   0  0  0  0  0  0  0  0  0  0  0  0
   15.4169   -0.8479   -1.4910 C   0  0  0  0  0  0  0  0  0  0  0  0
   14.9681   -0.5177   -0.5599 H   0  0  0  0  0  0  0  0  0  0  0  0
   15.4409   -2.8983    0.6423 N   0  0  0  0  0  4  0  0  0  0  0  0
   16.3961   -3.0495    0.9736 H   0  0  0  0  0  0  0  0  0  0  0  0
   14.4307   -2.7138    1.4275 C   0  0  0  0  0  0  0  0  0  0  0  0
   14.5432   -2.5053    2.7710 N   0  0  0  0  0  0  0  0  0  0  0  0
   13.7184   -2.1189    3.2306 H   0  0  0  0  0  0  0  0  0  0  0  0
   15.4625   -2.2215    3.1027 H   0  0  0  0  0  0  0  0  0  0  0  0
   11.6054   -3.2065    2.4363 C   0  0  0  0  0  0  0  0  0  0  0  0
   12.2894   -3.9028    2.9077 H   0  0  0  0  0  0  0  0  0  0  0  0
   10.3276   -3.0375    2.9532 C   0  0  0  0  0  0  0  0  0  0  0  0
   10.0225   -3.5623    3.8521 H   0  0  0  0  0  0  0  0  0  0  0  0
  1  2  1  0
  2  3  1  0
  3  4  1  0
  3  5  1  0
  3  6  1  0
  6  7  2  0
  7  8  1  0
  7  9  1  0
  9 10  1  0
  9 11  2  0
 11 12  1  0
 12 13  1  0
 13 14  2  0
 13 15  1  0
 15 16  1  6
 16 17  2  0
 17 18  1  0
 17 19  1  0
 19 20  1  0
 19 21  2  0
 21 22  1  0
 21 23  1  0
 23 24  1  0
 23 25  2  0
 25 26  1  0
 15 27  1  0
 27 28  2  0
 28 29  1  0
 28 30  1  0
 30 31  1  0
 30 32  2  0
 32 33  1  0
 32 34  1  0
 34 35  1  0
 35 36  2  0
 36 37  1  0
 36 38  1  0
 38 39  2  0
 39 40  1  0
 39 41  1  0
 41 42  1  0
 41 43  2  0
 43 44  1  0
 34 45  2  0
 45 46  1  0
 15 47  1  0
 47 48  1  0
 47 49  2  0
 49 50  1  0
 50 51  1  0
 50 52  1  0
 11 53  1  0
 53 54  1  0
 53 55  2  0
 55 56  1  0
 55  6  1  0
 49 12  1  0
 25 16  1  0
 45 27  1  0
 43 35  1  0
M  CHG  1  47   1
M  END
>  <score>  (144) 
5.71136

$$$$

     RDKit          3D

 51 54  0  0  0  0  0  0  0  0999 V2000
   10.3762   -2.7942    4.1241 H   0  0  0  0  0  0  0  0  0  0  0  0
   10.4050   -2.2327    3.3325 O   0  0  0  0  0  0  0  0  0  0  0  0
   11.1395   -2.9319    2.4259 C   0  0  0  0  0  0  0  0  0  0  0  0
   11.3773   -4.1251    2.5610 O   0  0  0  0  0  0  0  0  0  0  0  0
   11.6885   -2.2339    1.1423 C   0  0  2  0  0  0  0  0  0  0  0  0
   10.9531   -2.4478    0.3540 H   0  0  0  0  0  0  0  0  0  0  0  0
   13.0179   -2.7160    0.6955 N   0  0  0  0  0  0  0  0  0  0  0  0
   13.3210   -3.0455   -0.6125 C   0  0  0  0  0  0  0  0  0  0  0  0
   12.4625   -3.1070   -1.4911 O   0  0  0  0  0  0  0  0  0  0  0  0
   14.8365   -3.2410   -0.7699 C   0  0  1  0  0  0  0  0  0  0  0  0
   15.1977   -4.6972   -1.0643 C   0  0  0  0  0  0  0  0  0  0  0  0
   16.4126   -5.2256   -0.6035 C   0  0  0  0  0  0  0  0  0  0  0  0
   17.0928   -4.5794   -0.0586 H   0  0  0  0  0  0  0  0  0  0  0  0
   16.7405   -6.5715   -0.8006 C   0  0  0  0  0  0  0  0  0  0  0  0
   17.6786   -6.9573   -0.4129 H   0  0  0  0  0  0  0  0  0  0  0  0
   15.8568   -7.4141   -1.4816 C   0  0  0  0  0  0  0  0  0  0  0  0
   16.1065   -8.4630   -1.6202 H   0  0  0  0  0  0  0  0  0  0  0  0
   14.6489   -6.9034   -1.9676 C   0  0  0  0  0  0  0  0  0  0  0  0
   13.9606   -7.5660   -2.4861 H   0  0  0  0  0  0  0  0  0  0  0  0
   14.3193   -5.5541   -1.7600 C   0  0  0  0  0  0  0  0  0  0  0  0
   13.3662   -5.1836   -2.1274 H   0  0  0  0  0  0  0  0  0  0  0  0
   15.3938   -2.2282   -1.7679 C   0  0  0  0  0  0  0  0  0  0  0  0
   15.9409   -2.6284   -2.9974 C   0  0  0  0  0  0  0  0  0  0  0  0
   16.0063   -3.6851   -3.2361 H   0  0  0  0  0  0  0  0  0  0  0  0
   16.4164   -1.6796   -3.9117 C   0  0  0  0  0  0  0  0  0  0  0  0
   16.8636   -2.0010   -4.8479 H   0  0  0  0  0  0  0  0  0  0  0  0
   16.3361   -0.3139   -3.6121 C   0  0  0  0  0  0  0  0  0  0  0  0
   16.7098    0.4224   -4.3162 H   0  0  0  0  0  0  0  0  0  0  0  0
   15.7798    0.1216   -2.4042 C   0  0  0  0  0  0  0  0  0  0  0  0
   15.7003    1.5641   -2.0973 C   0  0  0  0  0  0  0  0  0  0  0  0
   15.8841    2.5362   -3.0965 C   0  0  0  0  0  0  0  0  0  0  0  0
   16.0787    2.2044   -4.1119 H   0  0  0  0  0  0  0  0  0  0  0  0
   15.8320    3.8606   -2.8600 N   0  0  0  0  0  0  0  0  0  0  0  0
   15.5846    4.2733   -1.6079 C   0  0  0  0  0  0  0  0  0  0  0  0
   15.5456    5.3388   -1.4041 H   0  0  0  0  0  0  0  0  0  0  0  0
   15.3849    3.3766   -0.5572 C   0  0  0  0  0  0  0  0  0  0  0  0
   15.1931    3.7584    0.4377 H   0  0  0  0  0  0  0  0  0  0  0  0
   15.4547    2.0055   -0.7971 C   0  0  0  0  0  0  0  0  0  0  0  0
   15.3417    1.2805    0.0017 H   0  0  0  0  0  0  0  0  0  0  0  0
   15.3095   -0.8458   -1.4987 C   0  0  0  0  0  0  0  0  0  0  0  0
   14.8703   -0.5100   -0.5650 H   0  0  0  0  0  0  0  0  0  0  0  0
   15.2454   -2.8957    0.6067 N   0  0  0  0  0  4  0  0  0  0  0  0
   16.2116   -2.9620    0.9331 H   0  0  0  0  0  0  0  0  0  0  0  0
   14.2328   -2.6020    1.3555 C   0  0  0  0  0  0  0  0  0  0  0  0
   14.4170   -2.2243    2.6546 N   0  0  0  0  0  0  0  0  0  0  0  0
   13.5998   -2.1535    3.2606 H   0  0  0  0  0  0  0  0  0  0  0  0
   15.3413   -2.3450    3.0683 H   0  0  0  0  0  0  0  0  0  0  0  0
   11.8156   -0.7045    1.2345 C   0  0  0  0  0  0  0  0  0  0  0  0
   12.3323   -0.3306    0.3512 H   0  0  0  0  0  0  0  0  0  0  0  0
   12.4008   -0.3970    2.1051 H   0  0  0  0  0  0  0  0  0  0  0  0
   10.8398   -0.2113    1.2699 H   0  0  0  0  0  0  0  0  0  0  0  0
  1  2  1  0
  2  3  1  0
  3  4  2  0
  3  5  1  0
  5  6  1  6
  5  7  1  0
  7  8  1  0
  8  9  2  0
  8 10  1  0
 10 11  1  6
 11 12  2  0
 12 13  1  0
 12 14  1  0
 14 15  1  0
 14 16  2  0
 16 17  1  0
 16 18  1  0
 18 19  1  0
 18 20  2  0
 20 21  1  0
 10 22  1  0
 22 23  2  0
 23 24  1  0
 23 25  1  0
 25 26  1  0
 25 27  2  0
 27 28  1  0
 27 29  1  0
 29 30  1  0
 30 31  2  0
 31 32  1  0
 31 33  1  0
 33 34  2  0
 34 35  1  0
 34 36  1  0
 36 37  1  0
 36 38  2  0
 38 39  1  0
 29 40  2  0
 40 41  1  0
 10 42  1  0
 42 43  1  0
 42 44  2  0
 44 45  1  0
 45 46  1  0
 45 47  1  0
  5 48  1  0
 48 49  1  0
 48 50  1  0
 48 51  1  0
 44  7  1  0
 20 11  1  0
 40 22  1  0
 38 30  1  0
M  CHG  1  42   1
M  END
>  <score>  (145) 
5.71126

$$$$

     RDKit          3D

 58 63  0  0  0  0  0  0  0  0999 V2000
   15.5694    5.3722   -1.3872 H   0  0  0  0  0  0  0  0  0  0  0  0
   15.5824    4.3032   -1.5953 C   0  0  0  0  0  0  0  0  0  0  0  0
   15.8190    3.8806   -2.8471 N   0  0  0  0  0  0  0  0  0  0  0  0
   15.8637    2.5525   -3.0882 C   0  0  0  0  0  0  0  0  0  0  0  0
   16.0484    2.2207   -4.1051 H   0  0  0  0  0  0  0  0  0  0  0  0
   15.6865    1.5713   -2.0958 C   0  0  0  0  0  0  0  0  0  0  0  0
   15.7712    0.1181   -2.4097 C   0  0  0  0  0  0  0  0  0  0  0  0
   16.3486   -0.3217   -3.6098 C   0  0  0  0  0  0  0  0  0  0  0  0
   16.7218    0.4110   -4.3195 H   0  0  0  0  0  0  0  0  0  0  0  0
   16.4308   -1.6903   -3.9068 C   0  0  0  0  0  0  0  0  0  0  0  0
   16.8642   -2.0073   -4.8514 H   0  0  0  0  0  0  0  0  0  0  0  0
   15.9418   -2.6452   -3.0022 C   0  0  0  0  0  0  0  0  0  0  0  0
   16.0019   -3.7011   -3.2552 H   0  0  0  0  0  0  0  0  0  0  0  0
   15.3754   -2.2442   -1.7784 C   0  0  0  0  0  0  0  0  0  0  0  0
   14.7991   -3.2465   -0.7768 C   0  0  2  0  0  0  0  0  0  0  0  0
   15.1664   -4.7114   -1.0689 C   0  0  0  0  0  0  0  0  0  0  0  0
   16.3894   -5.2340   -0.6116 C   0  0  0  0  0  0  0  0  0  0  0  0
   17.0642   -4.5842   -0.0623 H   0  0  0  0  0  0  0  0  0  0  0  0
   16.7282   -6.5798   -0.8038 C   0  0  0  0  0  0  0  0  0  0  0  0
   17.6709   -6.9557   -0.4169 H   0  0  0  0  0  0  0  0  0  0  0  0
   15.8531   -7.4386   -1.4733 C   0  0  0  0  0  0  0  0  0  0  0  0
   16.1203   -8.4849   -1.6115 H   0  0  0  0  0  0  0  0  0  0  0  0
   14.6428   -6.9361   -1.9622 C   0  0  0  0  0  0  0  0  0  0  0  0
   13.9729   -7.6108   -2.4878 H   0  0  0  0  0  0  0  0  0  0  0  0
   14.3017   -5.5850   -1.7655 C   0  0  0  0  0  0  0  0  0  0  0  0
   13.3518   -5.2295   -2.1539 H   0  0  0  0  0  0  0  0  0  0  0  0
   13.2850   -3.0105   -0.5954 C   0  0  0  0  0  0  0  0  0  0  0  0
   12.4346   -3.0958   -1.4780 O   0  0  0  0  0  0  0  0  0  0  0  0
   13.0029   -2.6793    0.7152 N   0  0  0  0  0  0  0  0  0  0  0  0
   11.7309   -2.4405    1.2657 C   0  0  0  0  0  0  0  0  0  0  0  0
   11.2179   -3.3805    2.1665 C   0  0  0  0  0  0  0  0  0  0  0  0
   11.8160   -4.2506    2.4170 H   0  0  0  0  0  0  0  0  0  0  0  0
    9.9489   -3.2214    2.7311 C   0  0  0  0  0  0  0  0  0  0  0  0
    9.5593   -3.9631    3.4223 H   0  0  0  0  0  0  0  0  0  0  0  0
    9.1757   -2.1062    2.4010 C   0  0  0  0  0  0  0  0  0  0  0  0
    8.1992   -1.9701    2.8556 H   0  0  0  0  0  0  0  0  0  0  0  0
    9.6684   -1.1452    1.5077 C   0  0  0  0  0  0  0  0  0  0  0  0
    8.9073   -0.0025    1.2156 C   0  0  0  0  0  0  0  0  0  0  0  0
    7.9298    0.1249    1.6678 H   0  0  0  0  0  0  0  0  0  0  0  0
    9.4104    0.9891    0.3654 C   0  0  0  0  0  0  0  0  0  0  0  0
    8.8188    1.8711    0.1358 H   0  0  0  0  0  0  0  0  0  0  0  0
   10.6855    0.8453   -0.1894 C   0  0  0  0  0  0  0  0  0  0  0  0
   11.0870    1.6087   -0.8493 H   0  0  0  0  0  0  0  0  0  0  0  0
   11.4529   -0.2888    0.1004 C   0  0  0  0  0  0  0  0  0  0  0  0
   12.4497   -0.3905   -0.3163 H   0  0  0  0  0  0  0  0  0  0  0  0
   10.9583   -1.3007    0.9409 C   0  0  0  0  0  0  0  0  0  0  0  0
   14.2074   -2.6437    1.3789 C   0  0  0  0  0  0  0  0  0  0  0  0
   14.3957   -2.3453    2.6972 N   0  0  0  0  0  0  0  0  0  0  0  0
   13.5884   -2.1030    3.2685 H   0  0  0  0  0  0  0  0  0  0  0  0
   15.3362   -2.3558    3.0936 H   0  0  0  0  0  0  0  0  0  0  0  0
   15.2059   -2.9038    0.6006 N   0  0  0  0  0  4  0  0  0  0  0  0
   16.1769   -2.9134    0.9057 H   0  0  0  0  0  0  0  0  0  0  0  0
   15.2970   -0.8589   -1.5130 C   0  0  0  0  0  0  0  0  0  0  0  0
   14.8753   -0.5248   -0.5724 H   0  0  0  0  0  0  0  0  0  0  0  0
   15.4375    2.0248   -0.7972 C   0  0  0  0  0  0  0  0  0  0  0  0
   15.2993    1.3043    0.0000 H   0  0  0  0  0  0  0  0  0  0  0  0
   15.3719    3.4009   -0.5521 C   0  0  0  0  0  0  0  0  0  0  0  0
   15.1676    3.7868    0.4394 H   0  0  0  0  0  0  0  0  0  0  0  0
  1  2  1  0
  2  3  2  0
  3  4  1  0
  4  5  1  0
  4  6  2  0
  6  7  1  0
  7  8  2  0
  8  9  1  0
  8 10  1  0
 10 11  1  0
 10 12  2  0
 12 13  1  0
 12 14  1  0
 15 14  1  6
 15 16  1  0
 16 17  2  0
 17 18  1  0
 17 19  1  0
 19 20  1  0
 19 21  2  0
 21 22  1  0
 21 23  1  0
 23 24  1  0
 23 25  2  0
 25 26  1  0
 15 27  1  0
 27 28  2  0
 27 29  1  0
 29 30  1  0
 30 31  2  0
 31 32  1  0
 31 33  1  0
 33 34  1  0
 33 35  2  0
 35 36  1  0
 35 37  1  0
 37 38  2  0
 38 39  1  0
 38 40  1  0
 40 41  1  0
 40 42  2  0
 42 43  1  0
 42 44  1  0
 44 45  1  0
 44 46  2  0
 29 47  1  0
 47 48  1  0
 48 49  1  0
 48 50  1  0
 47 51  2  0
 51 52  1  0
 14 53  2  0
 53 54  1  0
  6 55  1  0
 55 56  1  0
 55 57  2  0
 57 58  1  0
 57  2  1  0
 53  7  1  0
 51 15  1  0
 25 16  1  0
 46 30  1  0
 46 37  1  0
M  CHG  1  51   1
M  END
>  <score>  (146) 
5.70982

$$$$

     RDKit          3D

 55 59  0  0  0  0  0  0  0  0999 V2000
   11.0741   -1.0511    0.1674 H   0  0  0  0  0  0  0  0  0  0  0  0
   10.7783   -1.8019    0.8937 C   0  0  0  0  0  0  0  0  0  0  0  0
   11.7329   -2.7095    1.3035 C   0  0  0  0  0  0  0  0  0  0  0  0
   13.0052   -2.6850    0.7231 N   0  0  0  0  0  0  0  0  0  0  0  0
   13.2840   -3.0320   -0.5862 C   0  0  0  0  0  0  0  0  0  0  0  0
   12.4296   -3.1556   -1.4623 O   0  0  0  0  0  0  0  0  0  0  0  0
   14.8059   -3.2327   -0.7622 C   0  0  1  0  0  0  0  0  0  0  0  0
   15.1765   -4.6921   -1.0646 C   0  0  0  0  0  0  0  0  0  0  0  0
   16.3956   -5.2159   -0.6016 C   0  0  0  0  0  0  0  0  0  0  0  0
   17.0728   -4.5661   -0.0547 H   0  0  0  0  0  0  0  0  0  0  0  0
   16.7351   -6.5600   -0.8028 C   0  0  0  0  0  0  0  0  0  0  0  0
   17.6698   -6.9521   -0.4132 H   0  0  0  0  0  0  0  0  0  0  0  0
   15.8575   -7.4077   -1.4829 C   0  0  0  0  0  0  0  0  0  0  0  0
   16.1021   -8.4578   -1.6160 H   0  0  0  0  0  0  0  0  0  0  0  0
   14.6460   -6.9063   -1.9669 C   0  0  0  0  0  0  0  0  0  0  0  0
   13.9615   -7.5706   -2.4874 H   0  0  0  0  0  0  0  0  0  0  0  0
   14.3081   -5.5575   -1.7612 C   0  0  0  0  0  0  0  0  0  0  0  0
   13.3549   -5.1831   -2.1215 H   0  0  0  0  0  0  0  0  0  0  0  0
   15.3696   -2.2238   -1.7674 C   0  0  0  0  0  0  0  0  0  0  0  0
   15.9324   -2.6306   -2.9887 C   0  0  0  0  0  0  0  0  0  0  0  0
   15.9938   -3.6900   -3.2224 H   0  0  0  0  0  0  0  0  0  0  0  0
   16.4156   -1.6833   -3.9005 C   0  0  0  0  0  0  0  0  0  0  0  0
   16.8623   -2.0044   -4.8350 H   0  0  0  0  0  0  0  0  0  0  0  0
   16.3269   -0.3166   -3.6092 C   0  0  0  0  0  0  0  0  0  0  0  0
   16.7071    0.4314   -4.2970 H   0  0  0  0  0  0  0  0  0  0  0  0
   15.7742    0.1238   -2.4033 C   0  0  0  0  0  0  0  0  0  0  0  0
   15.7006    1.5680   -2.0987 C   0  0  0  0  0  0  0  0  0  0  0  0
   15.8837    2.5392   -3.0959 C   0  0  0  0  0  0  0  0  0  0  0  0
   16.0790    2.1947   -4.1063 H   0  0  0  0  0  0  0  0  0  0  0  0
   15.8241    3.8656   -2.8633 N   0  0  0  0  0  0  0  0  0  0  0  0
   15.5875    4.2793   -1.6081 C   0  0  0  0  0  0  0  0  0  0  0  0
   15.5481    5.3451   -1.3966 H   0  0  0  0  0  0  0  0  0  0  0  0
   15.3878    3.3806   -0.5582 C   0  0  0  0  0  0  0  0  0  0  0  0
   15.1860    3.7645    0.4339 H   0  0  0  0  0  0  0  0  0  0  0  0
   15.4528    2.0075   -0.8013 C   0  0  0  0  0  0  0  0  0  0  0  0
   15.3488    1.2654   -0.0162 H   0  0  0  0  0  0  0  0  0  0  0  0
   15.3019   -0.8401   -1.4957 C   0  0  0  0  0  0  0  0  0  0  0  0
   14.8640   -0.4950   -0.5636 H   0  0  0  0  0  0  0  0  0  0  0  0
   15.2245   -2.9085    0.6198 N   0  0  0  0  0  4  0  0  0  0  0  0
   16.1972   -2.9568    0.9453 H   0  0  0  0  0  0  0  0  0  0  0  0
   14.2152   -2.6646    1.3921 C   0  0  0  0  0  0  0  0  0  0  0  0
   14.4026   -2.4053    2.7230 N   0  0  0  0  0  0  0  0  0  0  0  0
   15.3566   -2.3285    3.0775 H   0  0  0  0  0  0  0  0  0  0  0  0
   13.6259   -2.0361    3.2682 H   0  0  0  0  0  0  0  0  0  0  0  0
   11.4205   -3.7601    2.3423 C   0  0  0  0  0  0  0  0  0  0  0  0
   11.8552   -3.4466    3.2953 H   0  0  0  0  0  0  0  0  0  0  0  0
   11.8824   -4.7072    2.0518 H   0  0  0  0  0  0  0  0  0  0  0  0
    9.9139   -3.9843    2.5036 C   0  0  0  0  0  0  0  0  0  0  0  0
    9.7239   -4.5826    3.4022 H   0  0  0  0  0  0  0  0  0  0  0  0
    9.5353   -4.5474    1.6418 H   0  0  0  0  0  0  0  0  0  0  0  0
    9.2463   -2.6747    2.5951 N   0  0  0  0  0  0  0  0  0  0  0  0
    8.2824   -2.7604    2.9205 H   0  0  0  0  0  0  0  0  0  0  0  0
    9.3558   -1.8088    1.4052 C   0  0  0  0  0  0  0  0  0  0  0  0
    8.6913   -2.1549    0.6017 H   0  0  0  0  0  0  0  0  0  0  0  0
    9.0594   -0.7876    1.6610 H   0  0  0  0  0  0  0  0  0  0  0  0
  1  2  1  0
  2  3  2  0
  3  4  1  0
  4  5  1  0
  5  6  2  0
  5  7  1  0
  7  8  1  6
  8  9  2  0
  9 10  1  0
  9 11  1  0
 11 12  1  0
 11 13  2  0
 13 14  1  0
 13 15  1  0
 15 16  1  0
 15 17  2  0
 17 18  1  0
  7 19  1  0
 19 20  2  0
 20 21  1  0
 20 22  1  0
 22 23  1  0
 22 24  2  0
 24 25  1  0
 24 26  1  0
 26 27  1  0
 27 28  2  0
 28 29  1  0
 28 30  1  0
 30 31  2  0
 31 32  1  0
 31 33  1  0
 33 34  1  0
 33 35  2  0
 35 36  1  0
 26 37  2  0
 37 38  1  0
  7 39  1  0
 39 40  1  0
 39 41  2  0
 41 42  1  0
 42 43  1  0
 42 44  1  0
  3 45  1  0
 45 46  1  0
 45 47  1  0
 45 48  1  0
 48 49  1  0
 48 50  1  0
 48 51  1  0
 51 52  1  0
 51 53  1  0
 53 54  1  0
 53 55  1  0
 53  2  1  0
 41  4  1  0
 17  8  1  0
 37 19  1  0
 35 27  1  0
M  CHG  1  39   1
M  END
>  <score>  (147) 
5.70832

$$$$

     RDKit          3D

 69 74  0  0  0  0  0  0  0  0999 V2000
   15.5484    5.2362   -1.4006 H   0  0  0  0  0  0  0  0  0  0  0  0
   15.6416    4.1702   -1.5865 C   0  0  0  0  0  0  0  0  0  0  0  0
   15.8696    3.7521   -2.8408 N   0  0  0  0  0  0  0  0  0  0  0  0
   15.9830    2.4296   -3.0578 C   0  0  0  0  0  0  0  0  0  0  0  0
   16.1575    2.1017   -4.0782 H   0  0  0  0  0  0  0  0  0  0  0  0
   15.8775    1.4607   -2.0416 C   0  0  0  0  0  0  0  0  0  0  0  0
   16.0066    0.0218   -2.3455 C   0  0  0  0  0  0  0  0  0  0  0  0
   16.3969   -0.3884   -3.6260 C   0  0  0  0  0  0  0  0  0  0  0  0
   16.6153    0.3593   -4.3804 H   0  0  0  0  0  0  0  0  0  0  0  0
   16.4983   -1.7438   -3.9436 C   0  0  0  0  0  0  0  0  0  0  0  0
   16.7986   -2.0350   -4.9440 H   0  0  0  0  0  0  0  0  0  0  0  0
   16.1778   -2.7147   -2.9912 C   0  0  0  0  0  0  0  0  0  0  0  0
   16.2099   -3.7654   -3.2603 H   0  0  0  0  0  0  0  0  0  0  0  0
   15.7668   -2.3445   -1.7043 C   0  0  0  0  0  0  0  0  0  0  0  0
   15.2131   -3.3860   -0.7375 C   0  0  2  0  0  0  0  0  0  0  0  0
   15.5950   -4.8404   -1.0523 C   0  0  0  0  0  0  0  0  0  0  0  0
   16.7827   -5.4307   -0.5837 C   0  0  0  0  0  0  0  0  0  0  0  0
   17.4904   -4.8455   -0.0033 H   0  0  0  0  0  0  0  0  0  0  0  0
   17.0658   -6.7839   -0.8378 C   0  0  0  0  0  0  0  0  0  0  0  0
   17.9787   -7.2345   -0.4597 H   0  0  0  0  0  0  0  0  0  0  0  0
   16.1657   -7.5652   -1.5729 C   0  0  0  0  0  0  0  0  0  0  0  0
   16.3660   -8.6173   -1.7559 H   0  0  0  0  0  0  0  0  0  0  0  0
   14.9967   -6.9894   -2.0696 C   0  0  0  0  0  0  0  0  0  0  0  0
   14.2907   -7.5833   -2.6445 H   0  0  0  0  0  0  0  0  0  0  0  0
   14.7205   -5.6418   -1.8169 C   0  0  0  0  0  0  0  0  0  0  0  0
   13.8024   -5.2226   -2.2102 H   0  0  0  0  0  0  0  0  0  0  0  0
   13.6896   -3.2038   -0.7326 C   0  0  0  0  0  0  0  0  0  0  0  0
   12.9426   -3.4066   -1.6957 O   0  0  0  0  0  0  0  0  0  0  0  0
   13.2714   -2.6730    0.4769 N   0  0  0  0  0  0  0  0  0  0  0  0
   12.0622   -1.9075    0.6527 N   0  0  0  0  0  0  0  0  0  0  0  0
   11.9121   -0.7916   -0.3002 C   0  0  0  0  0  0  0  0  0  0  0  0
   12.8744   -0.2927   -0.4467 H   0  0  0  0  0  0  0  0  0  0  0  0
   11.5780   -1.1502   -1.2786 H   0  0  0  0  0  0  0  0  0  0  0  0
   10.9355    0.2064    0.2771 C   0  0  0  0  0  0  0  0  0  0  0  0
   10.7654    1.0158   -0.4358 H   0  0  0  0  0  0  0  0  0  0  0  0
   11.3884    0.6238    1.1703 H   0  0  0  0  0  0  0  0  0  0  0  0
    9.6032   -0.4186    0.6590 C   0  0  0  0  0  0  0  0  0  0  0  0
    9.0852    0.3017    1.3023 H   0  0  0  0  0  0  0  0  0  0  0  0
    8.7930   -0.6184   -0.5484 N   0  0  0  0  0  0  0  0  0  0  0  0
    9.2277   -1.5213   -1.6303 C   0  0  0  0  0  0  0  0  0  0  0  0
   10.0833   -2.1450   -1.3624 H   0  0  0  0  0  0  0  0  0  0  0  0
    9.5082   -0.9287   -2.5090 H   0  0  0  0  0  0  0  0  0  0  0  0
    7.9901   -2.3709   -1.9195 C   0  0  0  0  0  0  0  0  0  0  0  0
    7.9402   -2.6781   -2.9685 H   0  0  0  0  0  0  0  0  0  0  0  0
    7.9806   -3.2669   -1.2875 H   0  0  0  0  0  0  0  0  0  0  0  0
    6.8303   -1.4665   -1.5249 C   0  0  0  0  0  0  0  0  0  0  0  0
    6.6276   -0.7469   -2.3241 H   0  0  0  0  0  0  0  0  0  0  0  0
    5.9203   -2.0314   -1.3019 H   0  0  0  0  0  0  0  0  0  0  0  0
    7.3619   -0.7544   -0.2956 C   0  0  0  0  0  0  0  0  0  0  0  0
    7.2351   -1.3907    0.5821 H   0  0  0  0  0  0  0  0  0  0  0  0
    6.8852    0.2222   -0.1304 H   0  0  0  0  0  0  0  0  0  0  0  0
    9.7148   -1.7451    1.4255 C   0  0  0  0  0  0  0  0  0  0  0  0
    8.7480   -2.2513    1.3815 H   0  0  0  0  0  0  0  0  0  0  0  0
    9.9104   -1.5489    2.4756 H   0  0  0  0  0  0  0  0  0  0  0  0
   10.8233   -2.6659    0.9105 C   0  0  0  0  0  0  0  0  0  0  0  0
   11.0165   -3.4581    1.6421 H   0  0  0  0  0  0  0  0  0  0  0  0
   10.4896   -3.1546   -0.0041 H   0  0  0  0  0  0  0  0  0  0  0  0
   14.4186   -2.5743    1.2651 C   0  0  0  0  0  0  0  0  0  0  0  0
   14.5604   -2.0946    2.5417 N   0  0  0  0  0  0  0  0  0  0  0  0
   15.4515   -2.2834    3.0042 H   0  0  0  0  0  0  0  0  0  0  0  0
   13.7216   -2.0182    3.1138 H   0  0  0  0  0  0  0  0  0  0  0  0
   15.4790   -3.0129    0.6655 N   0  0  0  0  0  4  0  0  0  0  0  0
   16.4144   -2.9265    1.0564 H   0  0  0  0  0  0  0  0  0  0  0  0
   15.7068   -0.9681   -1.3916 C   0  0  0  0  0  0  0  0  0  0  0  0
   15.3775   -0.6590   -0.4036 H   0  0  0  0  0  0  0  0  0  0  0  0
   15.6384    1.9077   -0.7394 C   0  0  0  0  0  0  0  0  0  0  0  0
   15.5591    1.1994    0.0815 H   0  0  0  0  0  0  0  0  0  0  0  0
   15.5167    3.2787   -0.5182 C   0  0  0  0  0  0  0  0  0  0  0  0
   15.3287    3.6602    0.4783 H   0  0  0  0  0  0  0  0  0  0  0  0
  1  2  1  0
  2  3  2  0
  3  4  1  0
  4  5  1  0
  4  6  2  0
  6  7  1  0
  7  8  2  0
  8  9  1  0
  8 10  1  0
 10 11  1  0
 10 12  2  0
 12 13  1  0
 12 14  1  0
 15 14  1  6
 15 16  1  0
 16 17  2  0
 17 18  1  0
 17 19  1  0
 19 20  1  0
 19 21  2  0
 21 22  1  0
 21 23  1  0
 23 24  1  0
 23 25  2  0
 25 26  1  0
 15 27  1  0
 27 28  2  0
 27 29  1  0
 29 30  1  0
 30 31  1  0
 31 32  1  0
 31 33  1  0
 31 34  1  0
 34 35  1  0
 34 36  1  0
 34 37  1  0
 37 38  1  0
 37 39  1  0
 39 40  1  0
 40 41  1  0
 40 42  1  0
 40 43  1  0
 43 44  1  0
 43 45  1  0
 43 46  1  0
 46 47  1  0
 46 48  1  0
 46 49  1  0
 49 50  1  0
 49 51  1  0
 37 52  1  0
 52 53  1  0
 52 54  1  0
 52 55  1  0
 55 56  1  0
 55 57  1  0
 29 58  1  0
 58 59  1  0
 59 60  1  0
 59 61  1  0
 58 62  2  0
 62 63  1  0
 14 64  2  0
 64 65  1  0
  6 66  1  0
 66 67  1  0
 66 68  2  0
 68 69  1  0
 68  2  1  0
 64  7  1  0
 62 15  1  0
 25 16  1  0
 55 30  1  0
 49 39  1  0
M  CHG  1  62   1
M  END
>  <score>  (148) 
5.7068

$$$$

     RDKit          3D

 51 55  0  0  0  0  0  0  0  0999 V2000
   10.8012   -7.1676    1.4180 H   0  0  0  0  0  0  0  0  0  0  0  0
   11.0556   -6.1666    1.7547 C   0  0  0  0  0  0  0  0  0  0  0  0
   11.4028   -5.8686    3.0664 N   0  0  0  0  0  0  0  0  0  0  0  0
   11.6633   -4.5928    3.0442 C   0  0  0  0  0  0  0  0  0  0  0  0
   11.9698   -4.0046    3.9134 H   0  0  0  0  0  0  0  0  0  0  0  0
   11.4625   -4.1210    1.7568 N   0  0  0  0  0  0  0  0  0  0  0  0
   11.7034   -2.7382    1.3272 C   0  0  0  0  0  0  0  0  0  0  0  0
   11.6302   -2.0402    2.1711 H   0  0  0  0  0  0  0  0  0  0  0  0
   10.9214   -2.4424    0.6180 H   0  0  0  0  0  0  0  0  0  0  0  0
   13.0219   -2.6520    0.7061 N   0  0  0  0  0  0  0  0  0  0  0  0
   13.2933   -3.0298   -0.5936 C   0  0  0  0  0  0  0  0  0  0  0  0
   12.4193   -3.0909   -1.4549 O   0  0  0  0  0  0  0  0  0  0  0  0
   14.8081   -3.2524   -0.7849 C   0  0  1  0  0  0  0  0  0  0  0  0
   15.1653   -4.7208   -1.0708 C   0  0  0  0  0  0  0  0  0  0  0  0
   16.3851   -5.2433   -0.6072 C   0  0  0  0  0  0  0  0  0  0  0  0
   17.0698   -4.5950   -0.0697 H   0  0  0  0  0  0  0  0  0  0  0  0
   16.7272   -6.5863   -0.7989 C   0  0  0  0  0  0  0  0  0  0  0  0
   17.6753   -6.9554   -0.4193 H   0  0  0  0  0  0  0  0  0  0  0  0
   15.8542   -7.4454   -1.4696 C   0  0  0  0  0  0  0  0  0  0  0  0
   16.1253   -8.4893   -1.6109 H   0  0  0  0  0  0  0  0  0  0  0  0
   14.6425   -6.9472   -1.9598 C   0  0  0  0  0  0  0  0  0  0  0  0
   13.9723   -7.6199   -2.4882 H   0  0  0  0  0  0  0  0  0  0  0  0
   14.2998   -5.5963   -1.7675 C   0  0  0  0  0  0  0  0  0  0  0  0
   13.3517   -5.2450   -2.1652 H   0  0  0  0  0  0  0  0  0  0  0  0
   15.3820   -2.2468   -1.7863 C   0  0  0  0  0  0  0  0  0  0  0  0
   15.9459   -2.6460   -3.0106 C   0  0  0  0  0  0  0  0  0  0  0  0
   16.0084   -3.7003   -3.2681 H   0  0  0  0  0  0  0  0  0  0  0  0
   16.4312   -1.6913   -3.9135 C   0  0  0  0  0  0  0  0  0  0  0  0
   16.8679   -2.0095   -4.8558 H   0  0  0  0  0  0  0  0  0  0  0  0
   16.3502   -0.3242   -3.6148 C   0  0  0  0  0  0  0  0  0  0  0  0
   16.7346    0.3923   -4.3340 H   0  0  0  0  0  0  0  0  0  0  0  0
   15.7758    0.1194   -2.4104 C   0  0  0  0  0  0  0  0  0  0  0  0
   15.6817    1.5738   -2.0929 C   0  0  0  0  0  0  0  0  0  0  0  0
   15.8602    2.5570   -3.0856 C   0  0  0  0  0  0  0  0  0  0  0  0
   16.0348    2.2412   -4.1088 H   0  0  0  0  0  0  0  0  0  0  0  0
   15.8219    3.8836   -2.8441 N   0  0  0  0  0  0  0  0  0  0  0  0
   15.5855    4.3046   -1.5929 C   0  0  0  0  0  0  0  0  0  0  0  0
   15.5728    5.3729   -1.3889 H   0  0  0  0  0  0  0  0  0  0  0  0
   15.3660    3.4065   -0.5488 C   0  0  0  0  0  0  0  0  0  0  0  0
   15.1667    3.7884    0.4456 H   0  0  0  0  0  0  0  0  0  0  0  0
   15.4232    2.0320   -0.7937 C   0  0  0  0  0  0  0  0  0  0  0  0
   15.2832    1.3294    0.0181 H   0  0  0  0  0  0  0  0  0  0  0  0
   15.3031   -0.8616   -1.5153 C   0  0  0  0  0  0  0  0  0  0  0  0
   14.8646   -0.5402   -0.5775 H   0  0  0  0  0  0  0  0  0  0  0  0
   15.2183   -2.8976    0.5908 N   0  0  0  0  0  4  0  0  0  0  0  0
   16.1894   -2.9008    0.8975 H   0  0  0  0  0  0  0  0  0  0  0  0
   14.2213   -2.6321    1.3691 C   0  0  0  0  0  0  0  0  0  0  0  0
   14.3910   -2.3615    2.6968 N   0  0  0  0  0  0  0  0  0  0  0  0
   13.5874   -2.0962    3.2635 H   0  0  0  0  0  0  0  0  0  0  0  0
   15.3300   -2.3697    3.0946 H   0  0  0  0  0  0  0  0  0  0  0  0
   11.0521   -5.1340    0.9497 N   0  0  0  0  0  0  0  0  0  0  0  0
  1  2  1  0
  2  3  1  0
  3  4  2  0
  4  5  1  0
  4  6  1  0
  6  7  1  0
  7  8  1  0
  7  9  1  0
  7 10  1  0
 10 11  1  0
 11 12  2  0
 11 13  1  0
 13 14  1  6
 14 15  2  0
 15 16  1  0
 15 17  1  0
 17 18  1  0
 17 19  2  0
 19 20  1  0
 19 21  1  0
 21 22  1  0
 21 23  2  0
 23 24  1  0
 13 25  1  0
 25 26  2  0
 26 27  1  0
 26 28  1  0
 28 29  1  0
 28 30  2  0
 30 31  1  0
 30 32  1  0
 32 33  1  0
 33 34  2  0
 34 35  1  0
 34 36  1  0
 36 37  2  0
 37 38  1  0
 37 39  1  0
 39 40  1  0
 39 41  2  0
 41 42  1  0
 32 43  2  0
 43 44  1  0
 13 45  1  0
 45 46  1  0
 45 47  2  0
 47 48  1  0
 48 49  1  0
 48 50  1  0
  6 51  1  0
 51  2  2  0
 47 10  1  0
 23 14  1  0
 43 25  1  0
 41 33  1  0
M  CHG  1  45   1
M  END
>  <score>  (149) 
5.70302

$$$$

     RDKit          3D

 58 62  0  0  0  0  0  0  0  0999 V2000
   15.5239    5.3157   -1.4092 H   0  0  0  0  0  0  0  0  0  0  0  0
   15.5872    4.2499   -1.6088 C   0  0  0  0  0  0  0  0  0  0  0  0
   15.8322    3.8424   -2.8626 N   0  0  0  0  0  0  0  0  0  0  0  0
   15.9170    2.5199   -3.0971 C   0  0  0  0  0  0  0  0  0  0  0  0
   16.1132    2.1951   -4.1139 H   0  0  0  0  0  0  0  0  0  0  0  0
   15.7598    1.5423   -2.0998 C   0  0  0  0  0  0  0  0  0  0  0  0
   15.8762    0.1062   -2.4241 C   0  0  0  0  0  0  0  0  0  0  0  0
   16.3791   -0.3020   -3.6665 C   0  0  0  0  0  0  0  0  0  0  0  0
   16.6859    0.4466   -4.3903 H   0  0  0  0  0  0  0  0  0  0  0  0
   16.4888   -1.6598   -3.9819 C   0  0  0  0  0  0  0  0  0  0  0  0
   16.8686   -1.9501   -4.9561 H   0  0  0  0  0  0  0  0  0  0  0  0
   16.0963   -2.6329   -3.0537 C   0  0  0  0  0  0  0  0  0  0  0  0
   16.1667   -3.6846   -3.3138 H   0  0  0  0  0  0  0  0  0  0  0  0
   15.5852   -2.2584   -1.8007 C   0  0  0  0  0  0  0  0  0  0  0  0
   15.0169   -3.2780   -0.8181 C   0  0  2  0  0  0  0  0  0  0  0  0
   15.3799   -4.7334   -1.0987 C   0  0  0  0  0  0  0  0  0  0  0  0
   16.5793   -5.3018   -0.6332 C   0  0  0  0  0  0  0  0  0  0  0  0
   17.2981   -4.6875   -0.0972 H   0  0  0  0  0  0  0  0  0  0  0  0
   16.8446   -6.6653   -0.8248 C   0  0  0  0  0  0  0  0  0  0  0  0
   17.7629   -7.0986   -0.4384 H   0  0  0  0  0  0  0  0  0  0  0  0
   15.9195   -7.4740   -1.4952 C   0  0  0  0  0  0  0  0  0  0  0  0
   16.1135   -8.5334   -1.6338 H   0  0  0  0  0  0  0  0  0  0  0  0
   14.7355   -6.9169   -1.9829 C   0  0  0  0  0  0  0  0  0  0  0  0
   14.0063   -7.5353   -2.4980 H   0  0  0  0  0  0  0  0  0  0  0  0
   14.4750   -5.5585   -1.7913 C   0  0  0  0  0  0  0  0  0  0  0  0
   13.5430   -5.1485   -2.1653 H   0  0  0  0  0  0  0  0  0  0  0  0
   13.4937   -3.0679   -0.7781 C   0  0  0  0  0  0  0  0  0  0  0  0
   12.7251   -3.2764   -1.7195 O   0  0  0  0  0  0  0  0  0  0  0  0
   13.1148   -2.5726    0.4596 N   0  0  0  0  0  0  0  0  0  0  0  0
   11.7891   -2.0851    0.7989 N   0  0  0  0  0  0  0  0  0  0  0  0
   11.4398   -1.2140    0.3724 H   0  0  0  0  0  0  0  0  0  0  0  0
   10.9711   -2.6150    1.7953 C   0  0  0  0  0  0  0  0  0  0  0  0
   11.3371   -3.6930    2.6066 C   0  0  0  0  0  0  0  0  0  0  0  0
   12.2762   -4.1941    2.4119 H   0  0  0  0  0  0  0  0  0  0  0  0
   10.5477   -4.0652    3.6992 C   0  0  0  0  0  0  0  0  0  0  0  0
   10.8662   -4.8779    4.3488 H   0  0  0  0  0  0  0  0  0  0  0  0
    9.3721   -3.3660    3.9641 C   0  0  0  0  0  0  0  0  0  0  0  0
    8.8139   -3.6022    4.8603 H   0  0  0  0  0  0  0  0  0  0  0  0
    8.9472   -2.3515    3.1037 C   0  0  0  0  0  0  0  0  0  0  0  0
    8.0010   -1.8711    3.3261 H   0  0  0  0  0  0  0  0  0  0  0  0
    9.7549   -1.9600    2.0121 C   0  0  0  0  0  0  0  0  0  0  0  0
    9.3976   -0.8458    1.1137 C   0  0  0  0  0  0  0  0  0  0  0  0
   10.1002   -0.4522    0.1990 O   0  0  0  0  0  0  0  0  0  0  0  0
    8.2642   -0.1057    1.2811 N   0  0  0  0  0  0  0  0  0  0  0  0
    8.2781    0.7745    0.7764 H   0  0  0  0  0  0  0  0  0  0  0  0
    7.8603   -0.1410    2.2051 H   0  0  0  0  0  0  0  0  0  0  0  0
   14.2813   -2.5286    1.2281 C   0  0  0  0  0  0  0  0  0  0  0  0
   14.4495   -2.1524    2.5350 N   0  0  0  0  0  0  0  0  0  0  0  0
   13.6253   -2.0714    3.1268 H   0  0  0  0  0  0  0  0  0  0  0  0
   15.3593   -2.3286    2.9628 H   0  0  0  0  0  0  0  0  0  0  0  0
   15.3291   -2.9278    0.5809 N   0  0  0  0  0  4  0  0  0  0  0  0
   16.2564   -3.0364    0.9997 H   0  0  0  0  0  0  0  0  0  0  0  0
   15.4773   -0.8830   -1.5106 C   0  0  0  0  0  0  0  0  0  0  0  0
   15.0475   -0.5734   -0.5628 H   0  0  0  0  0  0  0  0  0  0  0  0
   15.5038    1.9778   -0.7964 C   0  0  0  0  0  0  0  0  0  0  0  0
   15.3942    1.2583    0.0101 H   0  0  0  0  0  0  0  0  0  0  0  0
   15.4164    3.3489   -0.5552 C   0  0  0  0  0  0  0  0  0  0  0  0
   15.2240    3.7243    0.4425 H   0  0  0  0  0  0  0  0  0  0  0  0
  1  2  1  0
  2  3  2  0
  3  4  1  0
  4  5  1  0
  4  6  2  0
  6  7  1  0
  7  8  2  0
  8  9  1  0
  8 10  1  0
 10 11  1  0
 10 12  2  0
 12 13  1  0
 12 14  1  0
 15 14  1  6
 15 16  1  0
 16 17  2  0
 17 18  1  0
 17 19  1  0
 19 20  1  0
 19 21  2  0
 21 22  1  0
 21 23  1  0
 23 24  1  0
 23 25  2  0
 25 26  1  0
 15 27  1  0
 27 28  2  0
 27 29  1  0
 29 30  1  0
 30 31  1  0
 30 32  1  0
 32 33  2  0
 33 34  1  0
 33 35  1  0
 35 36  1  0
 35 37  2  0
 37 38  1  0
 37 39  1  0
 39 40  1  0
 39 41  2  0
 41 42  1  0
 42 43  2  0
 42 44  1  0
 44 45  1  0
 44 46  1  0
 29 47  1  0
 47 48  1  0
 48 49  1  0
 48 50  1  0
 47 51  2  0
 51 52  1  0
 14 53  2  0
 53 54  1  0
  6 55  1  0
 55 56  1  0
 55 57  2  0
 57 58  1  0
 57  2  1  0
 53  7  1  0
 51 15  1  0
 25 16  1  0
 41 32  1  0
M  CHG  1  51   1
M  END
>  <score>  (150) 
5.70271

$$$$

     RDKit          3D

 52 56  0  0  0  0  0  0  0  0999 V2000
   15.5693    5.3719   -1.3872 H   0  0  0  0  0  0  0  0  0  0  0  0
   15.5829    4.3030   -1.5955 C   0  0  0  0  0  0  0  0  0  0  0  0
   15.8193    3.8805   -2.8475 N   0  0  0  0  0  0  0  0  0  0  0  0
   15.8637    2.5525   -3.0880 C   0  0  0  0  0  0  0  0  0  0  0  0
   16.0477    2.2214   -4.1051 H   0  0  0  0  0  0  0  0  0  0  0  0
   15.6865    1.5711   -2.0962 C   0  0  0  0  0  0  0  0  0  0  0  0
   15.7702    0.1183   -2.4108 C   0  0  0  0  0  0  0  0  0  0  0  0
   16.3488   -0.3218   -3.6099 C   0  0  0  0  0  0  0  0  0  0  0  0
   16.7234    0.4101   -4.3194 H   0  0  0  0  0  0  0  0  0  0  0  0
   16.4315   -1.6905   -3.9062 C   0  0  0  0  0  0  0  0  0  0  0  0
   16.8642   -2.0079   -4.8511 H   0  0  0  0  0  0  0  0  0  0  0  0
   15.9421   -2.6451   -3.0013 C   0  0  0  0  0  0  0  0  0  0  0  0
   16.0030   -3.7007   -3.2557 H   0  0  0  0  0  0  0  0  0  0  0  0
   15.3732   -2.2436   -1.7782 C   0  0  0  0  0  0  0  0  0  0  0  0
   14.7954   -3.2454   -0.7762 C   0  0  2  0  0  0  0  0  0  0  0  0
   15.1643   -4.7109   -1.0678 C   0  0  0  0  0  0  0  0  0  0  0  0
   16.3882   -5.2336   -0.6108 C   0  0  0  0  0  0  0  0  0  0  0  0
   17.0650   -4.5848   -0.0626 H   0  0  0  0  0  0  0  0  0  0  0  0
   16.7282   -6.5793   -0.8037 C   0  0  0  0  0  0  0  0  0  0  0  0
   17.6710   -6.9555   -0.4170 H   0  0  0  0  0  0  0  0  0  0  0  0
   15.8533   -7.4386   -1.4730 C   0  0  0  0  0  0  0  0  0  0  0  0
   16.1204   -8.4849   -1.6115 H   0  0  0  0  0  0  0  0  0  0  0  0
   14.6429   -6.9362   -1.9620 C   0  0  0  0  0  0  0  0  0  0  0  0
   13.9728   -7.6108   -2.4878 H   0  0  0  0  0  0  0  0  0  0  0  0
   14.3013   -5.5851   -1.7653 C   0  0  0  0  0  0  0  0  0  0  0  0
   13.3517   -5.2304   -2.1546 H   0  0  0  0  0  0  0  0  0  0  0  0
   13.2821   -3.0017   -0.5953 C   0  0  0  0  0  0  0  0  0  0  0  0
   12.4284   -3.0909   -1.4745 O   0  0  0  0  0  0  0  0  0  0  0  0
   12.9965   -2.6760    0.7145 N   0  0  0  0  0  0  0  0  0  0  0  0
   11.7252   -2.4775    1.2620 C   0  0  0  0  0  0  0  0  0  0  0  0
   10.8321   -1.5670    0.6880 C   0  0  0  0  0  0  0  0  0  0  0  0
   11.1480   -0.9859   -0.1684 H   0  0  0  0  0  0  0  0  0  0  0  0
    9.5564   -1.3730    1.2307 C   0  0  0  0  0  0  0  0  0  0  0  0
    8.4473   -0.2277    0.5236 Cl  0  0  0  0  0  0  0  0  0  0  0  0
    9.1687   -2.1121    2.3477 C   0  0  0  0  0  0  0  0  0  0  0  0
    8.1819   -1.9836    2.7743 H   0  0  0  0  0  0  0  0  0  0  0  0
   10.0481   -3.0257    2.9251 C   0  0  0  0  0  0  0  0  0  0  0  0
    9.5162   -3.9728    4.2819 Cl  0  0  0  0  0  0  0  0  0  0  0  0
   11.3259   -3.1955    2.3881 C   0  0  0  0  0  0  0  0  0  0  0  0
   12.0049   -3.9087    2.8387 H   0  0  0  0  0  0  0  0  0  0  0  0
   14.1982   -2.6537    1.3816 C   0  0  0  0  0  0  0  0  0  0  0  0
   14.3931   -2.3531    2.6982 N   0  0  0  0  0  0  0  0  0  0  0  0
   13.6009   -2.0369    3.2544 H   0  0  0  0  0  0  0  0  0  0  0  0
   15.3348   -2.3793    3.0922 H   0  0  0  0  0  0  0  0  0  0  0  0
   15.1975   -2.9106    0.6042 N   0  0  0  0  0  4  0  0  0  0  0  0
   16.1686   -2.9124    0.9094 H   0  0  0  0  0  0  0  0  0  0  0  0
   15.2940   -0.8582   -1.5149 C   0  0  0  0  0  0  0  0  0  0  0  0
   14.8707   -0.5236   -0.5754 H   0  0  0  0  0  0  0  0  0  0  0  0
   15.4381    2.0251   -0.7976 C   0  0  0  0  0  0  0  0  0  0  0  0
   15.3002    1.3066    0.0012 H   0  0  0  0  0  0  0  0  0  0  0  0
   15.3728    3.4008   -0.5520 C   0  0  0  0  0  0  0  0  0  0  0  0
   15.1681    3.7858    0.4401 H   0  0  0  0  0  0  0  0  0  0  0  0
  1  2  1  0
  2  3  2  0
  3  4  1  0
  4  5  1  0
  4  6  2  0
  6  7  1  0
  7  8  2  0
  8  9  1  0
  8 10  1  0
 10 11  1  0
 10 12  2  0
 12 13  1  0
 12 14  1  0
 15 14  1  6
 15 16  1  0
 16 17  2  0
 17 18  1  0
 17 19  1  0
 19 20  1  0
 19 21  2  0
 21 22  1  0
 21 23  1  0
 23 24  1  0
 23 25  2  0
 25 26  1  0
 15 27  1  0
 27 28  2  0
 27 29  1  0
 29 30  1  0
 30 31  2  0
 31 32  1  0
 31 33  1  0
 33 34  1  0
 33 35  2  0
 35 36  1  0
 35 37  1  0
 37 38  1  0
 37 39  2  0
 39 40  1  0
 29 41  1  0
 41 42  1  0
 42 43  1  0
 42 44  1  0
 41 45  2  0
 45 46  1  0
 14 47  2  0
 47 48  1  0
  6 49  1  0
 49 50  1  0
 49 51  2  0
 51 52  1  0
 51  2  1  0
 47  7  1  0
 45 15  1  0
 25 16  1  0
 39 30  1  0
M  CHG  1  45   1
M  END
>  <score>  (151) 
5.70229

$$$$

     RDKit          3D

 51 54  0  0  0  0  0  0  0  0999 V2000
    7.7379   -1.4822    3.8986 H   0  0  0  0  0  0  0  0  0  0  0  0
    7.8712   -1.1694    2.9787 O   0  0  0  0  0  0  0  0  0  0  0  0
    9.1327   -1.5859    2.4277 N   0  0  0  0  0  0  0  0  0  0  0  0
    9.9795   -1.1316    2.7776 H   0  0  0  0  0  0  0  0  0  0  0  0
    9.3077   -2.3110    1.2504 C   0  0  0  0  0  0  0  0  0  0  0  0
    8.3568   -2.7667    0.6272 O   0  0  0  0  0  0  0  0  0  0  0  0
   10.6387   -2.6054    0.7454 C   0  0  0  0  0  0  0  0  0  0  0  0
   10.6803   -3.1742   -0.1772 H   0  0  0  0  0  0  0  0  0  0  0  0
   11.8077   -2.2268    1.3690 C   0  0  0  0  0  0  0  0  0  0  0  0
   11.7641   -1.6941    2.3242 H   0  0  0  0  0  0  0  0  0  0  0  0
   13.0545   -2.5204    0.7943 N   0  0  0  0  0  0  0  0  0  0  0  0
   13.2979   -3.0249   -0.4735 C   0  0  0  0  0  0  0  0  0  0  0  0
   12.4180   -3.3015   -1.2887 O   0  0  0  0  0  0  0  0  0  0  0  0
   14.8185   -3.2105   -0.6768 C   0  0  1  0  0  0  0  0  0  0  0  0
   15.1959   -4.6515   -0.9845 C   0  0  0  0  0  0  0  0  0  0  0  0
   16.4261   -5.1822   -0.5614 C   0  0  0  0  0  0  0  0  0  0  0  0
   17.1255   -4.5457   -0.0258 H   0  0  0  0  0  0  0  0  0  0  0  0
   16.7478   -6.5201   -0.8050 C   0  0  0  0  0  0  0  0  0  0  0  0
   17.6925   -6.9142   -0.4413 H   0  0  0  0  0  0  0  0  0  0  0  0
   15.8501   -7.3391   -1.4993 C   0  0  0  0  0  0  0  0  0  0  0  0
   16.0975   -8.3798   -1.6765 H   0  0  0  0  0  0  0  0  0  0  0  0
   14.6411   -6.8126   -1.9662 C   0  0  0  0  0  0  0  0  0  0  0  0
   13.9454   -7.4426   -2.5145 H   0  0  0  0  0  0  0  0  0  0  0  0
   14.3207   -5.4752   -1.7145 C   0  0  0  0  0  0  0  0  0  0  0  0
   13.3765   -5.0790   -2.0785 H   0  0  0  0  0  0  0  0  0  0  0  0
   15.3572   -2.2279   -1.7133 C   0  0  0  0  0  0  0  0  0  0  0  0
   15.9012   -2.6523   -2.9404 C   0  0  0  0  0  0  0  0  0  0  0  0
   15.9609   -3.7124   -3.1662 H   0  0  0  0  0  0  0  0  0  0  0  0
   16.3778   -1.7220   -3.8723 C   0  0  0  0  0  0  0  0  0  0  0  0
   16.8024   -2.0521   -4.8154 H   0  0  0  0  0  0  0  0  0  0  0  0
   16.3183   -0.3566   -3.5912 C   0  0  0  0  0  0  0  0  0  0  0  0
   16.6872    0.3634   -4.3146 H   0  0  0  0  0  0  0  0  0  0  0  0
   15.7872    0.0973   -2.3791 C   0  0  0  0  0  0  0  0  0  0  0  0
   15.7441    1.5348   -2.0805 C   0  0  0  0  0  0  0  0  0  0  0  0
   15.9287    2.4955   -3.0881 C   0  0  0  0  0  0  0  0  0  0  0  0
   16.1356    2.1531   -4.0973 H   0  0  0  0  0  0  0  0  0  0  0  0
   15.8534    3.8203   -2.8668 N   0  0  0  0  0  0  0  0  0  0  0  0
   15.5976    4.2392   -1.6178 C   0  0  0  0  0  0  0  0  0  0  0  0
   15.5104    5.3059   -1.4334 H   0  0  0  0  0  0  0  0  0  0  0  0
   15.4434    3.3501   -0.5497 C   0  0  0  0  0  0  0  0  0  0  0  0
   15.2546    3.7251    0.4490 H   0  0  0  0  0  0  0  0  0  0  0  0
   15.5240    1.9806   -0.7775 C   0  0  0  0  0  0  0  0  0  0  0  0
   15.4180    1.2655    0.0334 H   0  0  0  0  0  0  0  0  0  0  0  0
   15.2970   -0.8455   -1.4619 C   0  0  0  0  0  0  0  0  0  0  0  0
   14.8622   -0.4888   -0.5320 H   0  0  0  0  0  0  0  0  0  0  0  0
   15.2658   -2.8312    0.6766 N   0  0  0  0  0  4  0  0  0  0  0  0
   16.2264   -2.9548    1.0086 H   0  0  0  0  0  0  0  0  0  0  0  0
   14.2834   -2.4506    1.4227 C   0  0  0  0  0  0  0  0  0  0  0  0
   14.5379   -2.0988    2.7138 N   0  0  0  0  0  0  0  0  0  0  0  0
   15.4666   -2.3175    3.0705 H   0  0  0  0  0  0  0  0  0  0  0  0
   13.7565   -2.0724    3.3628 H   0  0  0  0  0  0  0  0  0  0  0  0
  1  2  1  0
  2  3  1  0
  3  4  1  0
  3  5  1  0
  5  6  2  0
  5  7  1  0
  7  8  1  0
  7  9  2  3
  9 10  1  0
  9 11  1  0
 11 12  1  0
 12 13  2  0
 12 14  1  0
 14 15  1  6
 15 16  2  0
 16 17  1  0
 16 18  1  0
 18 19  1  0
 18 20  2  0
 20 21  1  0
 20 22  1  0
 22 23  1  0
 22 24  2  0
 24 25  1  0
 14 26  1  0
 26 27  2  0
 27 28  1  0
 27 29  1  0
 29 30  1  0
 29 31  2  0
 31 32  1  0
 31 33  1  0
 33 34  1  0
 34 35  2  0
 35 36  1  0
 35 37  1  0
 37 38  2  0
 38 39  1  0
 38 40  1  0
 40 41  1  0
 40 42  2  0
 42 43  1  0
 33 44  2  0
 44 45  1  0
 14 46  1  0
 46 47  1  0
 46 48  2  0
 48 49  1  0
 49 50  1  0
 49 51  1  0
 48 11  1  0
 24 15  1  0
 44 26  1  0
 42 34  1  0
M  CHG  1  46   1
M  END
>  <score>  (152) 
5.70047

$$$$

     RDKit          3D

 61 66  0  0  0  0  0  0  0  0999 V2000
   15.5137    5.3185   -1.4248 H   0  0  0  0  0  0  0  0  0  0  0  0
   15.5958    4.2532   -1.6143 C   0  0  0  0  0  0  0  0  0  0  0  0
   15.8471    3.8423   -2.8662 N   0  0  0  0  0  0  0  0  0  0  0  0
   15.9245    2.5197   -3.0978 C   0  0  0  0  0  0  0  0  0  0  0  0
   16.1239    2.1920   -4.1140 H   0  0  0  0  0  0  0  0  0  0  0  0
   15.7437    1.5523   -2.0948 C   0  0  0  0  0  0  0  0  0  0  0  0
   15.8071    0.1178   -2.4074 C   0  0  0  0  0  0  0  0  0  0  0  0
   16.3388   -0.3257   -3.6251 C   0  0  0  0  0  0  0  0  0  0  0  0
   16.7032    0.3941   -4.3514 H   0  0  0  0  0  0  0  0  0  0  0  0
   16.4160   -1.6903   -3.9109 C   0  0  0  0  0  0  0  0  0  0  0  0
   16.8333   -2.0115   -4.8593 H   0  0  0  0  0  0  0  0  0  0  0  0
   15.9561   -2.6281   -2.9800 C   0  0  0  0  0  0  0  0  0  0  0  0
   16.0131   -3.6865   -3.2147 H   0  0  0  0  0  0  0  0  0  0  0  0
   15.4152   -2.2122   -1.7535 C   0  0  0  0  0  0  0  0  0  0  0  0
   14.8627   -3.1986   -0.7380 C   0  0  2  0  0  0  0  0  0  0  0  0
   15.2319   -4.6480   -1.0238 C   0  0  0  0  0  0  0  0  0  0  0  0
   16.4501   -5.1852   -0.5771 C   0  0  0  0  0  0  0  0  0  0  0  0
   17.1581   -4.5579   -0.0417 H   0  0  0  0  0  0  0  0  0  0  0  0
   16.7586   -6.5320   -0.7963 C   0  0  0  0  0  0  0  0  0  0  0  0
   17.6974   -6.9342   -0.4274 H   0  0  0  0  0  0  0  0  0  0  0  0
   15.8575   -7.3549   -1.4811 C   0  0  0  0  0  0  0  0  0  0  0  0
   16.0938   -8.4010   -1.6504 H   0  0  0  0  0  0  0  0  0  0  0  0
   14.6523   -6.8272   -1.9526 C   0  0  0  0  0  0  0  0  0  0  0  0
   13.9470   -7.4537   -2.4906 H   0  0  0  0  0  0  0  0  0  0  0  0
   14.3458   -5.4827   -1.7290 C   0  0  0  0  0  0  0  0  0  0  0  0
   13.4045   -5.0942   -2.1020 H   0  0  0  0  0  0  0  0  0  0  0  0
   13.3462   -3.0028   -0.6008 C   0  0  0  0  0  0  0  0  0  0  0  0
   12.4858   -3.3675   -1.4012 O   0  0  0  0  0  0  0  0  0  0  0  0
   13.0412   -2.5129    0.6517 N   0  0  0  0  0  0  0  0  0  0  0  0
   11.7192   -2.7071    1.2377 C   0  0  0  0  0  0  0  0  0  0  0  0
   10.9237   -2.4577    0.5290 H   0  0  0  0  0  0  0  0  0  0  0  0
   11.5836   -2.0721    2.1214 H   0  0  0  0  0  0  0  0  0  0  0  0
   11.6527   -4.1544    1.6229 C   0  0  0  0  0  0  0  0  0  0  0  0
   11.8974   -4.4715    2.9537 C   0  0  0  0  0  0  0  0  0  0  0  0
   11.9122   -3.6941    3.7103 H   0  0  0  0  0  0  0  0  0  0  0  0
   12.2114   -5.7728    3.3098 C   0  0  0  0  0  0  0  0  0  0  0  0
   12.5312   -5.9060    4.3315 H   0  0  0  0  0  0  0  0  0  0  0  0
   12.1206   -6.8233    2.3857 C   0  0  0  0  0  0  0  0  0  0  0  0
   12.4474   -8.1534    2.7098 C   0  0  0  0  0  0  0  0  0  0  0  0
   12.8668   -8.4109    3.6775 H   0  0  0  0  0  0  0  0  0  0  0  0
   12.2292   -9.1774    1.7836 C   0  0  0  0  0  0  0  0  0  0  0  0
   12.4711  -10.1963    2.0651 H   0  0  0  0  0  0  0  0  0  0  0  0
   11.6842   -8.8997    0.5245 C   0  0  0  0  0  0  0  0  0  0  0  0
   11.4513   -9.7213   -0.1510 H   0  0  0  0  0  0  0  0  0  0  0  0
   11.4547   -7.5656    0.1572 C   0  0  0  0  0  0  0  0  0  0  0  0
   11.1017   -7.3354   -0.8434 H   0  0  0  0  0  0  0  0  0  0  0  0
   11.6798   -6.5268    1.0756 C   0  0  0  0  0  0  0  0  0  0  0  0
   11.5166   -5.1884    0.6796 C   0  0  0  0  0  0  0  0  0  0  0  0
   11.3330   -4.9666   -0.3700 H   0  0  0  0  0  0  0  0  0  0  0  0
   14.2237   -2.5668    1.3664 C   0  0  0  0  0  0  0  0  0  0  0  0
   14.3855   -2.4461    2.7135 N   0  0  0  0  0  0  0  0  0  0  0  0
   15.3360   -2.2603    3.0322 H   0  0  0  0  0  0  0  0  0  0  0  0
   13.6067   -2.0779    3.2532 H   0  0  0  0  0  0  0  0  0  0  0  0
   15.2535   -2.8360    0.6372 N   0  0  0  0  0  4  0  0  0  0  0  0
   16.1679   -3.0560    1.0332 H   0  0  0  0  0  0  0  0  0  0  0  0
   15.3350   -0.8344   -1.4913 C   0  0  0  0  0  0  0  0  0  0  0  0
   14.8933   -0.4984   -0.5574 H   0  0  0  0  0  0  0  0  0  0  0  0
   15.5081    1.9905   -0.7895 C   0  0  0  0  0  0  0  0  0  0  0  0
   15.3994    1.2799    0.0262 H   0  0  0  0  0  0  0  0  0  0  0  0
   15.4305    3.3584   -0.5538 C   0  0  0  0  0  0  0  0  0  0  0  0
   15.2401    3.7245    0.4471 H   0  0  0  0  0  0  0  0  0  0  0  0
  1  2  1  0
  2  3  2  0
  3  4  1  0
  4  5  1  0
  4  6  2  0
  6  7  1  0
  7  8  2  0
  8  9  1  0
  8 10  1  0
 10 11  1  0
 10 12  2  0
 12 13  1  0
 12 14  1  0
 15 14  1  6
 15 16  1  0
 16 17  2  0
 17 18  1  0
 17 19  1  0
 19 20  1  0
 19 21  2  0
 21 22  1  0
 21 23  1  0
 23 24  1  0
 23 25  2  0
 25 26  1  0
 15 27  1  0
 27 28  2  0
 27 29  1  0
 29 30  1  0
 30 31  1  0
 30 32  1  0
 30 33  1  0
 33 34  2  0
 34 35  1  0
 34 36  1  0
 36 37  1  0
 36 38  2  0
 38 39  1  0
 39 40  1  0
 39 41  2  0
 41 42  1  0
 41 43  1  0
 43 44  1  0
 43 45  2  0
 45 46  1  0
 45 47  1  0
 47 48  2  0
 48 49  1  0
 29 50  1  0
 50 51  1  0
 51 52  1  0
 51 53  1  0
 50 54  2  0
 54 55  1  0
 14 56  2  0
 56 57  1  0
  6 58  1  0
 58 59  1  0
 58 60  2  0
 60 61  1  0
 60  2  1  0
 56  7  1  0
 54 15  1  0
 25 16  1  0
 48 33  1  0
 47 38  1  0
M  CHG  1  54   1
M  END
>  <score>  (153) 
5.69789

$$$$

     RDKit          3D

 50 53  0  0  0  0  0  0  0  0999 V2000
   11.9210   -6.0827    3.8749 H   0  0  0  0  0  0  0  0  0  0  0  0
   11.1405   -5.4883    3.9074 O   0  0  0  0  0  0  0  0  0  0  0  0
   11.3480   -4.2190    3.2475 N   0  0  0  0  0  0  0  0  0  0  0  0
   11.5559   -3.3997    3.8235 H   0  0  0  0  0  0  0  0  0  0  0  0
   11.2515   -3.9809    1.8778 C   0  0  0  0  0  0  0  0  0  0  0  0
   10.9435   -4.8669    1.0831 O   0  0  0  0  0  0  0  0  0  0  0  0
   11.6898   -2.6061    1.3201 C   0  0  0  0  0  0  0  0  0  0  0  0
   11.6731   -1.8580    2.1256 H   0  0  0  0  0  0  0  0  0  0  0  0
   10.9396   -2.2918    0.5852 H   0  0  0  0  0  0  0  0  0  0  0  0
   13.0353   -2.6305    0.6893 N   0  0  0  0  0  0  0  0  0  0  0  0
   13.3154   -3.0038   -0.6171 C   0  0  0  0  0  0  0  0  0  0  0  0
   12.4539   -3.1226   -1.4826 O   0  0  0  0  0  0  0  0  0  0  0  0
   14.8296   -3.2341   -0.7844 C   0  0  1  0  0  0  0  0  0  0  0  0
   15.1809   -4.7042   -1.0746 C   0  0  0  0  0  0  0  0  0  0  0  0
   16.3970   -5.2320   -0.6064 C   0  0  0  0  0  0  0  0  0  0  0  0
   17.0772   -4.5833   -0.0626 H   0  0  0  0  0  0  0  0  0  0  0  0
   16.7348   -6.5772   -0.8011 C   0  0  0  0  0  0  0  0  0  0  0  0
   17.6752   -6.9597   -0.4144 H   0  0  0  0  0  0  0  0  0  0  0  0
   15.8581   -7.4284   -1.4771 C   0  0  0  0  0  0  0  0  0  0  0  0
   16.1116   -8.4760   -1.6137 H   0  0  0  0  0  0  0  0  0  0  0  0
   14.6460   -6.9283   -1.9627 C   0  0  0  0  0  0  0  0  0  0  0  0
   13.9646   -7.5947   -2.4862 H   0  0  0  0  0  0  0  0  0  0  0  0
   14.3106   -5.5761   -1.7667 C   0  0  0  0  0  0  0  0  0  0  0  0
   13.3572   -5.2118   -2.1396 H   0  0  0  0  0  0  0  0  0  0  0  0
   15.3931   -2.2320   -1.7867 C   0  0  0  0  0  0  0  0  0  0  0  0
   15.9505   -2.6377   -3.0071 C   0  0  0  0  0  0  0  0  0  0  0  0
   16.0049   -3.6957   -3.2491 H   0  0  0  0  0  0  0  0  0  0  0  0
   16.4275   -1.6857   -3.9132 C   0  0  0  0  0  0  0  0  0  0  0  0
   16.8662   -2.0046   -4.8515 H   0  0  0  0  0  0  0  0  0  0  0  0
   16.3375   -0.3186   -3.6165 C   0  0  0  0  0  0  0  0  0  0  0  0
   16.7207    0.4180   -4.3145 H   0  0  0  0  0  0  0  0  0  0  0  0
   15.7775    0.1239   -2.4103 C   0  0  0  0  0  0  0  0  0  0  0  0
   15.6912    1.5729   -2.0961 C   0  0  0  0  0  0  0  0  0  0  0  0
   15.8727    2.5484   -3.0913 C   0  0  0  0  0  0  0  0  0  0  0  0
   16.0580    2.2150   -4.1070 H   0  0  0  0  0  0  0  0  0  0  0  0
   15.8221    3.8744   -2.8549 N   0  0  0  0  0  0  0  0  0  0  0  0
   15.5875    4.2917   -1.6014 C   0  0  0  0  0  0  0  0  0  0  0  0
   15.5597    5.3588   -1.3922 H   0  0  0  0  0  0  0  0  0  0  0  0
   15.3780    3.3931   -0.5539 C   0  0  0  0  0  0  0  0  0  0  0  0
   15.1761    3.7761    0.4391 H   0  0  0  0  0  0  0  0  0  0  0  0
   15.4367    2.0195   -0.7981 C   0  0  0  0  0  0  0  0  0  0  0  0
   15.3185    1.2934   -0.0012 H   0  0  0  0  0  0  0  0  0  0  0  0
   15.3126   -0.8495   -1.5087 C   0  0  0  0  0  0  0  0  0  0  0  0
   14.8667   -0.5191   -0.5747 H   0  0  0  0  0  0  0  0  0  0  0  0
   15.2551   -2.8813    0.5882 N   0  0  0  0  0  4  0  0  0  0  0  0
   16.2238   -2.9413    0.9163 H   0  0  0  0  0  0  0  0  0  0  0  0
   14.2523   -2.5994    1.3543 C   0  0  0  0  0  0  0  0  0  0  0  0
   14.4118   -2.3508    2.6837 N   0  0  0  0  0  0  0  0  0  0  0  0
   15.3505   -2.3471    3.0830 H   0  0  0  0  0  0  0  0  0  0  0  0
   13.6066   -2.0997    3.2505 H   0  0  0  0  0  0  0  0  0  0  0  0
  1  2  1  0
  2  3  1  0
  3  4  1  0
  3  5  1  0
  5  6  2  0
  5  7  1  0
  7  8  1  0
  7  9  1  0
  7 10  1  0
 10 11  1  0
 11 12  2  0
 11 13  1  0
 13 14  1  6
 14 15  2  0
 15 16  1  0
 15 17  1  0
 17 18  1  0
 17 19  2  0
 19 20  1  0
 19 21  1  0
 21 22  1  0
 21 23  2  0
 23 24  1  0
 13 25  1  0
 25 26  2  0
 26 27  1  0
 26 28  1  0
 28 29  1  0
 28 30  2  0
 30 31  1  0
 30 32  1  0
 32 33  1  0
 33 34  2  0
 34 35  1  0
 34 36  1  0
 36 37  2  0
 37 38  1  0
 37 39  1  0
 39 40  1  0
 39 41  2  0
 41 42  1  0
 32 43  2  0
 43 44  1  0
 13 45  1  0
 45 46  1  0
 45 47  2  0
 47 48  1  0
 48 49  1  0
 48 50  1  0
 47 10  1  0
 23 14  1  0
 43 25  1  0
 41 33  1  0
M  CHG  1  45   1
M  END
>  <score>  (154) 
5.69523

$$$$

     RDKit          3D

 56 60  0  0  0  0  0  0  0  0999 V2000
   15.5131    5.3177   -1.4353 H   0  0  0  0  0  0  0  0  0  0  0  0
   15.5993    4.2518   -1.6175 C   0  0  0  0  0  0  0  0  0  0  0  0
   15.8558    3.8323   -2.8655 N   0  0  0  0  0  0  0  0  0  0  0  0
   15.9269    2.5071   -3.0867 C   0  0  0  0  0  0  0  0  0  0  0  0
   16.1319    2.1653   -4.0969 H   0  0  0  0  0  0  0  0  0  0  0  0
   15.7395    1.5496   -2.0757 C   0  0  0  0  0  0  0  0  0  0  0  0
   15.7882    0.1113   -2.3696 C   0  0  0  0  0  0  0  0  0  0  0  0
   16.3200   -0.3493   -3.5807 C   0  0  0  0  0  0  0  0  0  0  0  0
   16.6944    0.3615   -4.3087 H   0  0  0  0  0  0  0  0  0  0  0  0
   16.3765   -1.7162   -3.8634 C   0  0  0  0  0  0  0  0  0  0  0  0
   16.7946   -2.0596   -4.8048 H   0  0  0  0  0  0  0  0  0  0  0  0
   15.9135   -2.6385   -2.9232 C   0  0  0  0  0  0  0  0  0  0  0  0
   15.9463   -3.7011   -3.1453 H   0  0  0  0  0  0  0  0  0  0  0  0
   15.4017   -2.2093   -1.6912 C   0  0  0  0  0  0  0  0  0  0  0  0
   14.8516   -3.2036   -0.6903 C   0  0  2  0  0  0  0  0  0  0  0  0
   15.2037   -4.6403   -1.0058 C   0  0  0  0  0  0  0  0  0  0  0  0
   16.4222   -5.1683   -0.5708 C   0  0  0  0  0  0  0  0  0  0  0  0
   17.1076   -4.5262   -0.0261 H   0  0  0  0  0  0  0  0  0  0  0  0
   16.7389   -6.5056   -0.8041 C   0  0  0  0  0  0  0  0  0  0  0  0
   17.6839   -6.8897   -0.4322 H   0  0  0  0  0  0  0  0  0  0  0  0
   15.8412   -7.3244   -1.4998 C   0  0  0  0  0  0  0  0  0  0  0  0
   16.0906   -8.3652   -1.6768 H   0  0  0  0  0  0  0  0  0  0  0  0
   14.6291   -6.8000   -1.9651 C   0  0  0  0  0  0  0  0  0  0  0  0
   13.9280   -7.4303   -2.5050 H   0  0  0  0  0  0  0  0  0  0  0  0
   14.3134   -5.4623   -1.7184 C   0  0  0  0  0  0  0  0  0  0  0  0
   13.3631   -5.0722   -2.0727 H   0  0  0  0  0  0  0  0  0  0  0  0
   13.3362   -3.0186   -0.5847 C   0  0  0  0  0  0  0  0  0  0  0  0
   12.4792   -3.2514   -1.4350 O   0  0  0  0  0  0  0  0  0  0  0  0
   13.0420   -2.7221    0.7090 N   0  0  0  0  0  0  0  0  0  0  0  0
   11.7587   -2.6259    1.1262 C   0  0  0  0  0  0  0  0  0  0  0  0
   10.9202   -2.3729    0.2825 O   0  0  0  0  0  0  0  0  0  0  0  0
   11.4256   -2.8048    2.4400 N   0  0  0  0  0  0  0  0  0  0  0  0
   12.1882   -3.0464    3.0590 H   0  0  0  0  0  0  0  0  0  0  0  0
   10.1299   -3.0818    2.8789 C   0  0  0  0  0  0  0  0  0  0  0  0
    9.0569   -3.2488    1.9927 C   0  0  0  0  0  0  0  0  0  0  0  0
    9.2131   -3.1208    0.9309 H   0  0  0  0  0  0  0  0  0  0  0  0
    7.7888   -3.6017    2.4610 C   0  0  0  0  0  0  0  0  0  0  0  0
    6.9896   -3.7828    1.7498 H   0  0  0  0  0  0  0  0  0  0  0  0
    7.5743   -3.7585    3.8302 C   0  0  0  0  0  0  0  0  0  0  0  0
    6.5863   -4.0203    4.1963 H   0  0  0  0  0  0  0  0  0  0  0  0
    8.6468   -3.6269    4.7174 C   0  0  0  0  0  0  0  0  0  0  0  0
    8.4750   -3.8081    5.7733 H   0  0  0  0  0  0  0  0  0  0  0  0
    9.9246   -3.2962    4.2353 C   0  0  0  0  0  0  0  0  0  0  0  0
   10.7792   -3.1926    4.8973 H   0  0  0  0  0  0  0  0  0  0  0  0
   14.1824   -2.6977    1.4420 C   0  0  0  0  0  0  0  0  0  0  0  0
   14.2805   -2.4830    2.7776 N   0  0  0  0  0  0  0  0  0  0  0  0
   15.2091   -2.2306    3.1062 H   0  0  0  0  0  0  0  0  0  0  0  0
   13.4745   -2.0734    3.2486 H   0  0  0  0  0  0  0  0  0  0  0  0
   15.2231   -2.8982    0.7096 N   0  0  0  0  0  4  0  0  0  0  0  0
   16.1708   -3.0175    1.0826 H   0  0  0  0  0  0  0  0  0  0  0  0
   15.3112   -0.8291   -1.4433 C   0  0  0  0  0  0  0  0  0  0  0  0
   14.8565   -0.4748   -0.5230 H   0  0  0  0  0  0  0  0  0  0  0  0
   15.5183    1.9976   -0.7743 C   0  0  0  0  0  0  0  0  0  0  0  0
   15.4120    1.2867    0.0400 H   0  0  0  0  0  0  0  0  0  0  0  0
   15.4392    3.3661   -0.5489 C   0  0  0  0  0  0  0  0  0  0  0  0
   15.2509    3.7400    0.4491 H   0  0  0  0  0  0  0  0  0  0  0  0
  1  2  1  0
  2  3  2  0
  3  4  1  0
  4  5  1  0
  4  6  2  0
  6  7  1  0
  7  8  2  0
  8  9  1  0
  8 10  1  0
 10 11  1  0
 10 12  2  0
 12 13  1  0
 12 14  1  0
 15 14  1  6
 15 16  1  0
 16 17  2  0
 17 18  1  0
 17 19  1  0
 19 20  1  0
 19 21  2  0
 21 22  1  0
 21 23  1  0
 23 24  1  0
 23 25  2  0
 25 26  1  0
 15 27  1  0
 27 28  2  0
 27 29  1  0
 29 30  1  0
 30 31  2  0
 30 32  1  0
 32 33  1  0
 32 34  1  0
 34 35  2  0
 35 36  1  0
 35 37  1  0
 37 38  1  0
 37 39  2  0
 39 40  1  0
 39 41  1  0
 41 42  1  0
 41 43  2  0
 43 44  1  0
 29 45  1  0
 45 46  1  0
 46 47  1  0
 46 48  1  0
 45 49  2  0
 49 50  1  0
 14 51  2  0
 51 52  1  0
  6 53  1  0
 53 54  1  0
 53 55  2  0
 55 56  1  0
 55  2  1  0
 51  7  1  0
 49 15  1  0
 25 16  1  0
 43 34  1  0
M  CHG  1  49   1
M  END
>  <score>  (155) 
5.69198

$$$$

     RDKit          3D

 54 58  0  0  0  0  0  0  0  0999 V2000
   15.5475    5.3425   -1.3992 H   0  0  0  0  0  0  0  0  0  0  0  0
   15.5872    4.2770   -1.6076 C   0  0  0  0  0  0  0  0  0  0  0  0
   15.8267    3.8642   -2.8614 N   0  0  0  0  0  0  0  0  0  0  0  0
   15.8838    2.5385   -3.0961 C   0  0  0  0  0  0  0  0  0  0  0  0
   16.0787    2.1977   -4.1089 H   0  0  0  0  0  0  0  0  0  0  0  0
   15.7022    1.5681   -2.0968 C   0  0  0  0  0  0  0  0  0  0  0  0
   15.7755    0.1237   -2.3984 C   0  0  0  0  0  0  0  0  0  0  0  0
   16.3296   -0.3194   -3.6036 C   0  0  0  0  0  0  0  0  0  0  0  0
   16.7060    0.4246   -4.2985 H   0  0  0  0  0  0  0  0  0  0  0  0
   16.4120   -1.6851   -3.8939 C   0  0  0  0  0  0  0  0  0  0  0  0
   16.8617   -2.0069   -4.8272 H   0  0  0  0  0  0  0  0  0  0  0  0
   15.9242   -2.6299   -2.9811 C   0  0  0  0  0  0  0  0  0  0  0  0
   15.9873   -3.6892   -3.2145 H   0  0  0  0  0  0  0  0  0  0  0  0
   15.3538   -2.2222   -1.7617 C   0  0  0  0  0  0  0  0  0  0  0  0
   14.7559   -3.2241   -0.7650 C   0  0  2  0  0  0  0  0  0  0  0  0
   15.1485   -4.6848   -1.0554 C   0  0  0  0  0  0  0  0  0  0  0  0
   16.3764   -5.2046   -0.5964 C   0  0  0  0  0  0  0  0  0  0  0  0
   17.0614   -4.5572   -0.0551 H   0  0  0  0  0  0  0  0  0  0  0  0
   16.7243   -6.5484   -0.7993 C   0  0  0  0  0  0  0  0  0  0  0  0
   17.6639   -6.9382   -0.4182 H   0  0  0  0  0  0  0  0  0  0  0  0
   15.8534   -7.3990   -1.4821 C   0  0  0  0  0  0  0  0  0  0  0  0
   16.1036   -8.4484   -1.6161 H   0  0  0  0  0  0  0  0  0  0  0  0
   14.6414   -6.9008   -1.9655 C   0  0  0  0  0  0  0  0  0  0  0  0
   13.9633   -7.5676   -2.4893 H   0  0  0  0  0  0  0  0  0  0  0  0
   14.2915   -5.5558   -1.7553 C   0  0  0  0  0  0  0  0  0  0  0  0
   13.3412   -5.1847   -2.1253 H   0  0  0  0  0  0  0  0  0  0  0  0
   13.2246   -2.9941   -0.5934 C   0  0  0  0  0  0  0  0  0  0  0  0
   12.3307   -3.1185   -1.4276 O   0  0  0  0  0  0  0  0  0  0  0  0
   12.9719   -2.6800    0.7135 N   0  0  0  0  0  0  0  0  0  0  0  0
   11.7267   -2.4959    1.2347 C   0  0  0  0  0  0  0  0  0  0  0  0
   10.8741   -1.7558    0.5274 N   0  0  0  0  0  0  0  0  0  0  0  0
    9.6463   -1.5588    1.0282 C   0  0  0  0  0  0  0  0  0  0  0  0
    8.6718   -0.6820    0.3113 C   0  0  0  0  0  0  0  0  0  0  0  0
    9.1644   -0.1469   -0.5089 H   0  0  0  0  0  0  0  0  0  0  0  0
    7.8636   -1.3036   -0.0873 H   0  0  0  0  0  0  0  0  0  0  0  0
    8.2556    0.0465    1.0163 H   0  0  0  0  0  0  0  0  0  0  0  0
    9.2241   -2.1588    2.2154 C   0  0  0  0  0  0  0  0  0  0  0  0
    8.2156   -1.9730    2.5576 H   0  0  0  0  0  0  0  0  0  0  0  0
   10.0923   -2.9703    2.9403 C   0  0  0  0  0  0  0  0  0  0  0  0
    9.7737   -3.4600    3.8618 H   0  0  0  0  0  0  0  0  0  0  0  0
   11.3824   -3.1155    2.4342 C   0  0  0  0  0  0  0  0  0  0  0  0
   12.1271   -3.7193    2.9340 H   0  0  0  0  0  0  0  0  0  0  0  0
   14.1515   -2.6569    1.3949 C   0  0  0  0  0  0  0  0  0  0  0  0
   14.3404   -2.3954    2.7242 N   0  0  0  0  0  0  0  0  0  0  0  0
   15.2990   -2.3190    3.0576 H   0  0  0  0  0  0  0  0  0  0  0  0
   13.5823   -1.9979    3.2750 H   0  0  0  0  0  0  0  0  0  0  0  0
   15.1587   -2.9082    0.6276 N   0  0  0  0  0  4  0  0  0  0  0  0
   16.1256   -2.9475    0.9629 H   0  0  0  0  0  0  0  0  0  0  0  0
   15.2944   -0.8382   -1.4918 C   0  0  0  0  0  0  0  0  0  0  0  0
   14.8538   -0.4919   -0.5609 H   0  0  0  0  0  0  0  0  0  0  0  0
   15.4526    2.0084   -0.7992 C   0  0  0  0  0  0  0  0  0  0  0  0
   15.3445    1.2667   -0.0134 H   0  0  0  0  0  0  0  0  0  0  0  0
   15.3862    3.3803   -0.5581 C   0  0  0  0  0  0  0  0  0  0  0  0
   15.1873    3.7642    0.4336 H   0  0  0  0  0  0  0  0  0  0  0  0
  1  2  1  0
  2  3  2  0
  3  4  1  0
  4  5  1  0
  4  6  2  0
  6  7  1  0
  7  8  2  0
  8  9  1  0
  8 10  1  0
 10 11  1  0
 10 12  2  0
 12 13  1  0
 12 14  1  0
 15 14  1  6
 15 16  1  0
 16 17  2  0
 17 18  1  0
 17 19  1  0
 19 20  1  0
 19 21  2  0
 21 22  1  0
 21 23  1  0
 23 24  1  0
 23 25  2  0
 25 26  1  0
 15 27  1  0
 27 28  2  0
 27 29  1  0
 29 30  1  0
 30 31  2  0
 31 32  1  0
 32 33  1  0
 33 34  1  0
 33 35  1  0
 33 36  1  0
 32 37  2  0
 37 38  1  0
 37 39  1  0
 39 40  1  0
 39 41  2  0
 41 42  1  0
 29 43  1  0
 43 44  1  0
 44 45  1  0
 44 46  1  0
 43 47  2  0
 47 48  1  0
 14 49  2  0
 49 50  1  0
  6 51  1  0
 51 52  1  0
 51 53  2  0
 53 54  1  0
 53  2  1  0
 49  7  1  0
 47 15  1  0
 25 16  1  0
 41 30  1  0
M  CHG  1  47   1
M  END
>  <score>  (156) 
5.69038

$$$$

     RDKit          3D

 63 68  0  0  0  0  0  0  0  0999 V2000
   15.5590    5.3598   -1.3906 H   0  0  0  0  0  0  0  0  0  0  0  0
   15.5859    4.2922   -1.6024 C   0  0  0  0  0  0  0  0  0  0  0  0
   15.8198    3.8730   -2.8571 N   0  0  0  0  0  0  0  0  0  0  0  0
   15.8741    2.5454   -3.0913 C   0  0  0  0  0  0  0  0  0  0  0  0
   16.0638    2.2058   -4.1039 H   0  0  0  0  0  0  0  0  0  0  0  0
   15.6915    1.5686   -2.0980 C   0  0  0  0  0  0  0  0  0  0  0  0
   15.7689    0.1193   -2.4082 C   0  0  0  0  0  0  0  0  0  0  0  0
   16.3335   -0.3189   -3.6116 C   0  0  0  0  0  0  0  0  0  0  0  0
   16.7147    0.4241   -4.3034 H   0  0  0  0  0  0  0  0  0  0  0  0
   16.4252   -1.6861   -3.9068 C   0  0  0  0  0  0  0  0  0  0  0  0
   16.8645   -2.0030   -4.8466 H   0  0  0  0  0  0  0  0  0  0  0  0
   15.9445   -2.6404   -3.0020 C   0  0  0  0  0  0  0  0  0  0  0  0
   16.0015   -3.6990   -3.2409 H   0  0  0  0  0  0  0  0  0  0  0  0
   15.3864   -2.2382   -1.7795 C   0  0  0  0  0  0  0  0  0  0  0  0
   14.8438   -3.2564   -0.7748 C   0  0  2  0  0  0  0  0  0  0  0  0
   15.1919   -4.7144   -1.0790 C   0  0  0  0  0  0  0  0  0  0  0  0
   16.4037   -5.2359   -0.6096 C   0  0  0  0  0  0  0  0  0  0  0  0
   17.0722   -4.5798   -0.0588 H   0  0  0  0  0  0  0  0  0  0  0  0
   16.7376   -6.5781   -0.8056 C   0  0  0  0  0  0  0  0  0  0  0  0
   17.6738   -6.9604   -0.4121 H   0  0  0  0  0  0  0  0  0  0  0  0
   15.8580   -7.4287   -1.4796 C   0  0  0  0  0  0  0  0  0  0  0  0
   16.1102   -8.4758   -1.6133 H   0  0  0  0  0  0  0  0  0  0  0  0
   14.6458   -6.9274   -1.9654 C   0  0  0  0  0  0  0  0  0  0  0  0
   13.9648   -7.5942   -2.4878 H   0  0  0  0  0  0  0  0  0  0  0  0
   14.3131   -5.5769   -1.7692 C   0  0  0  0  0  0  0  0  0  0  0  0
   13.3583   -5.2073   -2.1353 H   0  0  0  0  0  0  0  0  0  0  0  0
   13.3330   -3.0550   -0.6098 C   0  0  0  0  0  0  0  0  0  0  0  0
   12.5011   -3.1143   -1.5165 O   0  0  0  0  0  0  0  0  0  0  0  0
   13.0614   -2.6777    0.6962 N   0  0  0  0  0  0  0  0  0  0  0  0
   11.8214   -2.1092    1.1453 N   0  0  0  0  0  0  0  0  0  0  0  0
   11.5325   -0.7687    0.6034 C   0  0  0  0  0  0  0  0  0  0  0  0
   12.0601   -0.6257   -0.3489 H   0  0  0  0  0  0  0  0  0  0  0  0
   11.8574    0.0202    1.2896 H   0  0  0  0  0  0  0  0  0  0  0  0
   10.0221   -0.7459    0.3703 C   0  0  0  0  0  0  0  0  0  0  0  0
    9.7691   -0.1552   -0.5171 H   0  0  0  0  0  0  0  0  0  0  0  0
    9.5103   -0.3112    1.2392 H   0  0  0  0  0  0  0  0  0  0  0  0
    9.6344   -2.2263    0.1986 C   0  0  2  0  0  0  0  0  0  0  0  0
    9.6882   -2.5174   -0.8564 H   0  0  0  0  0  0  0  0  0  0  0  0
    8.2731   -2.5729    0.8001 C   0  0  0  0  0  0  0  0  0  0  0  0
    7.6621   -3.1440    0.0909 H   0  0  0  0  0  0  0  0  0  0  0  0
    7.7445   -1.6409    1.0364 H   0  0  0  0  0  0  0  0  0  0  0  0
    8.5475   -3.3848    2.0074 N   0  0  0  0  0  0  0  0  0  0  0  0
    7.6795   -3.0970    3.1506 C   0  0  0  0  0  0  0  0  0  0  0  0
    6.6216   -3.2334    2.9041 H   0  0  0  0  0  0  0  0  0  0  0  0
    7.9229   -3.7366    4.0057 H   0  0  0  0  0  0  0  0  0  0  0  0
    7.8548   -2.0527    3.4178 H   0  0  0  0  0  0  0  0  0  0  0  0
    9.9886   -3.3062    2.3376 C   0  0  0  0  0  0  0  0  0  0  0  0
   10.2052   -2.5002    3.0523 H   0  0  0  0  0  0  0  0  0  0  0  0
   10.3599   -4.2414    2.7692 H   0  0  0  0  0  0  0  0  0  0  0  0
   10.6595   -3.0028    1.0068 C   0  0  2  0  0  0  0  0  0  0  0  0
   10.9075   -3.9429    0.4994 H   0  0  0  0  0  0  0  0  0  0  0  0
   14.2676   -2.6271    1.3702 C   0  0  0  0  0  0  0  0  0  0  0  0
   14.4373   -2.3057    2.6924 N   0  0  0  0  0  0  0  0  0  0  0  0
   15.3662   -2.3424    3.1083 H   0  0  0  0  0  0  0  0  0  0  0  0
   13.6172   -2.1376    3.2736 H   0  0  0  0  0  0  0  0  0  0  0  0
   15.2684   -2.9244    0.6043 N   0  0  0  0  0  4  0  0  0  0  0  0
   16.2402   -2.9455    0.9211 H   0  0  0  0  0  0  0  0  0  0  0  0
   15.3012   -0.8541   -1.5064 C   0  0  0  0  0  0  0  0  0  0  0  0
   14.8667   -0.5171   -0.5695 H   0  0  0  0  0  0  0  0  0  0  0  0
   15.4430    2.0148   -0.8005 C   0  0  0  0  0  0  0  0  0  0  0  0
   15.3260    1.2812   -0.0104 H   0  0  0  0  0  0  0  0  0  0  0  0
   15.3809    3.3908   -0.5549 C   0  0  0  0  0  0  0  0  0  0  0  0
   15.1758    3.7767    0.4369 H   0  0  0  0  0  0  0  0  0  0  0  0
  1  2  1  0
  2  3  2  0
  3  4  1  0
  4  5  1  0
  4  6  2  0
  6  7  1  0
  7  8  2  0
  8  9  1  0
  8 10  1  0
 10 11  1  0
 10 12  2  0
 12 13  1  0
 12 14  1  0
 15 14  1  6
 15 16  1  0
 16 17  2  0
 17 18  1  0
 17 19  1  0
 19 20  1  0
 19 21  2  0
 21 22  1  0
 21 23  1  0
 23 24  1  0
 23 25  2  0
 25 26  1  0
 15 27  1  0
 27 28  2  0
 27 29  1  0
 29 30  1  0
 30 31  1  0
 31 32  1  0
 31 33  1  0
 31 34  1  0
 34 35  1  0
 34 36  1  0
 34 37  1  0
 37 38  1  6
 37 39  1  0
 39 40  1  0
 39 41  1  0
 39 42  1  0
 42 43  1  0
 43 44  1  0
 43 45  1  0
 43 46  1  0
 42 47  1  0
 47 48  1  0
 47 49  1  0
 47 50  1  0
 50 51  1  6
 29 52  1  0
 52 53  1  0
 53 54  1  0
 53 55  1  0
 52 56  2  0
 56 57  1  0
 14 58  2  0
 58 59  1  0
  6 60  1  0
 60 61  1  0
 60 62  2  0
 62 63  1  0
 62  2  1  0
 58  7  1  0
 56 15  1  0
 25 16  1  0
 50 30  1  0
 50 37  1  0
M  CHG  1  56   1
M  END
>  <score>  (157) 
5.68776

$$$$

     RDKit          3D

 55 59  0  0  0  0  0  0  0  0999 V2000
    6.8935   -3.0695    4.1885 H   0  0  0  0  0  0  0  0  0  0  0  0
    7.2796   -3.3637    3.3493 O   0  0  0  0  0  0  0  0  0  0  0  0
    8.4064   -2.6202    3.1926 C   0  0  0  0  0  0  0  0  0  0  0  0
    8.7511   -1.7281    3.9355 O   0  0  0  0  0  0  0  0  0  0  0  0
    9.3777   -2.8587    2.1814 C   0  0  0  0  0  0  0  0  0  0  0  0
   10.2716   -3.9103    2.3981 C   0  0  0  0  0  0  0  0  0  0  0  0
   10.0832   -4.6627    3.1656 H   0  0  0  0  0  0  0  0  0  0  0  0
   11.5150   -3.8638    1.7875 C   0  0  0  0  0  0  0  0  0  0  0  0
   12.2450   -4.6386    1.9983 H   0  0  0  0  0  0  0  0  0  0  0  0
   11.8500   -2.7679    0.9972 C   0  0  0  0  0  0  0  0  0  0  0  0
   13.1382   -2.6358    0.5354 N   0  0  0  0  0  0  0  0  0  0  0  0
   13.4718   -3.0007   -0.7390 C   0  0  0  0  0  0  0  0  0  0  0  0
   12.6609   -3.2021   -1.6451 O   0  0  0  0  0  0  0  0  0  0  0  0
   14.9839   -3.2192   -0.7896 C   0  0  1  0  0  0  0  0  0  0  0  0
   15.3163   -4.6760   -1.0652 C   0  0  0  0  0  0  0  0  0  0  0  0
   16.5164   -5.2347   -0.6010 C   0  0  0  0  0  0  0  0  0  0  0  0
   17.2224   -4.6129   -0.0579 H   0  0  0  0  0  0  0  0  0  0  0  0
   16.7979   -6.5885   -0.8082 C   0  0  0  0  0  0  0  0  0  0  0  0
   17.7251   -7.0079   -0.4280 H   0  0  0  0  0  0  0  0  0  0  0  0
   15.8830   -7.4001   -1.4884 C   0  0  0  0  0  0  0  0  0  0  0  0
   16.0974   -8.4526   -1.6479 H   0  0  0  0  0  0  0  0  0  0  0  0
   14.6866   -6.8532   -1.9641 C   0  0  0  0  0  0  0  0  0  0  0  0
   13.9671   -7.4771   -2.4860 H   0  0  0  0  0  0  0  0  0  0  0  0
   14.4083   -5.5001   -1.7543 C   0  0  0  0  0  0  0  0  0  0  0  0
   13.4684   -5.0922   -2.1164 H   0  0  0  0  0  0  0  0  0  0  0  0
   15.5435   -2.2191   -1.7757 C   0  0  0  0  0  0  0  0  0  0  0  0
   16.0435   -2.6238   -3.0186 C   0  0  0  0  0  0  0  0  0  0  0  0
   16.0953   -3.6808   -3.2617 H   0  0  0  0  0  0  0  0  0  0  0  0
   16.4576   -1.6725   -3.9534 C   0  0  0  0  0  0  0  0  0  0  0  0
   16.8442   -1.9877   -4.9166 H   0  0  0  0  0  0  0  0  0  0  0  0
   16.3713   -0.3078   -3.6539 C   0  0  0  0  0  0  0  0  0  0  0  0
   16.7043    0.4276   -4.3784 H   0  0  0  0  0  0  0  0  0  0  0  0
   15.8624    0.1251   -2.4194 C   0  0  0  0  0  0  0  0  0  0  0  0
   15.7587    1.5617   -2.0962 C   0  0  0  0  0  0  0  0  0  0  0  0
   15.9181    2.5359   -3.0937 C   0  0  0  0  0  0  0  0  0  0  0  0
   16.1110    2.2050   -4.1089 H   0  0  0  0  0  0  0  0  0  0  0  0
   15.8373    3.8592   -2.8614 N   0  0  0  0  0  0  0  0  0  0  0  0
   15.5934    4.2706   -1.6081 C   0  0  0  0  0  0  0  0  0  0  0  0
   15.5309    5.3369   -1.4101 H   0  0  0  0  0  0  0  0  0  0  0  0
   15.4209    3.3727   -0.5524 C   0  0  0  0  0  0  0  0  0  0  0  0
   15.2293    3.7518    0.4448 H   0  0  0  0  0  0  0  0  0  0  0  0
   15.5062    2.0009   -0.7914 C   0  0  0  0  0  0  0  0  0  0  0  0
   15.3964    1.2861    0.0195 H   0  0  0  0  0  0  0  0  0  0  0  0
   15.4436   -0.8441   -1.4991 C   0  0  0  0  0  0  0  0  0  0  0  0
   15.0095   -0.5213   -0.5565 H   0  0  0  0  0  0  0  0  0  0  0  0
   15.3273   -2.8877    0.6074 N   0  0  0  0  0  4  0  0  0  0  0  0
   16.2436   -3.0706    1.0183 H   0  0  0  0  0  0  0  0  0  0  0  0
   14.2754   -2.6550    1.3169 C   0  0  0  0  0  0  0  0  0  0  0  0
   14.3825   -2.4724    2.6702 N   0  0  0  0  0  0  0  0  0  0  0  0
   13.5758   -2.0866    3.1664 H   0  0  0  0  0  0  0  0  0  0  0  0
   15.3192   -2.3139    3.0460 H   0  0  0  0  0  0  0  0  0  0  0  0
   10.8983   -1.8139    0.6418 C   0  0  0  0  0  0  0  0  0  0  0  0
   11.1691   -0.9967   -0.0203 H   0  0  0  0  0  0  0  0  0  0  0  0
    9.6447   -1.8501    1.2381 C   0  0  0  0  0  0  0  0  0  0  0  0
    8.9520   -1.0327    1.0371 H   0  0  0  0  0  0  0  0  0  0  0  0
  1  2  1  0
  2  3  1  0
  3  4  2  0
  3  5  1  0
  5  6  2  0
  6  7  1  0
  6  8  1  0
  8  9  1  0
  8 10  2  0
 10 11  1  0
 11 12  1  0
 12 13  2  0
 12 14  1  0
 14 15  1  6
 15 16  2  0
 16 17  1  0
 16 18  1  0
 18 19  1  0
 18 20  2  0
 20 21  1  0
 20 22  1  0
 22 23  1  0
 22 24  2  0
 24 25  1  0
 14 26  1  0
 26 27  2  0
 27 28  1  0
 27 29  1  0
 29 30  1  0
 29 31  2  0
 31 32  1  0
 31 33  1  0
 33 34  1  0
 34 35  2  0
 35 36  1  0
 35 37  1  0
 37 38  2  0
 38 39  1  0
 38 40  1  0
 40 41  1  0
 40 42  2  0
 42 43  1  0
 33 44  2  0
 44 45  1  0
 14 46  1  0
 46 47  1  0
 46 48  2  0
 48 49  1  0
 49 50  1  0
 49 51  1  0
 10 52  1  0
 52 53  1  0
 52 54  2  0
 54 55  1  0
 54  5  1  0
 48 11  1  0
 24 15  1  0
 44 26  1  0
 42 34  1  0
M  CHG  1  46   1
M  END
>  <score>  (158) 
5.68665

$$$$

     RDKit          3D

 55 59  0  0  0  0  0  0  0  0999 V2000
    8.4071    0.9934   -0.7593 H   0  0  0  0  0  0  0  0  0  0  0  0
    9.1404    0.4068   -0.5263 O   0  0  0  0  0  0  0  0  0  0  0  0
    8.6828   -0.2551    0.5573 C   0  0  0  0  0  0  0  0  0  0  0  0
    7.5685   -0.0513    1.0111 O   0  0  0  0  0  0  0  0  0  0  0  0
    9.5582   -1.2669    1.1944 C   0  0  0  0  0  0  0  0  0  0  0  0
    9.1540   -2.0149    2.3241 C   0  0  0  0  0  0  0  0  0  0  0  0
    8.1737   -1.8846    2.7741 H   0  0  0  0  0  0  0  0  0  0  0  0
   10.0177   -2.9497    2.9078 C   0  0  0  0  0  0  0  0  0  0  0  0
    9.7008   -3.5250    3.7723 H   0  0  0  0  0  0  0  0  0  0  0  0
   11.2984   -3.1567    2.3822 C   0  0  0  0  0  0  0  0  0  0  0  0
   11.9686   -3.8877    2.8315 H   0  0  0  0  0  0  0  0  0  0  0  0
   11.7185   -2.4422    1.2577 C   0  0  0  0  0  0  0  0  0  0  0  0
   12.9939   -2.6677    0.7099 N   0  0  0  0  0  0  0  0  0  0  0  0
   13.2799   -2.9991   -0.6012 C   0  0  0  0  0  0  0  0  0  0  0  0
   12.4283   -3.0852   -1.4830 O   0  0  0  0  0  0  0  0  0  0  0  0
   14.7962   -3.2469   -0.7793 C   0  0  1  0  0  0  0  0  0  0  0  0
   15.1618   -4.7154   -1.0679 C   0  0  0  0  0  0  0  0  0  0  0  0
   16.3851   -5.2384   -0.6084 C   0  0  0  0  0  0  0  0  0  0  0  0
   17.0678   -4.5907   -0.0667 H   0  0  0  0  0  0  0  0  0  0  0  0
   16.7275   -6.5827   -0.8010 C   0  0  0  0  0  0  0  0  0  0  0  0
   17.6736   -6.9551   -0.4184 H   0  0  0  0  0  0  0  0  0  0  0  0
   15.8541   -7.4423   -1.4710 C   0  0  0  0  0  0  0  0  0  0  0  0
   16.1232   -8.4874   -1.6112 H   0  0  0  0  0  0  0  0  0  0  0  0
   14.6430   -6.9423   -1.9609 C   0  0  0  0  0  0  0  0  0  0  0  0
   13.9727   -7.6156   -2.4884 H   0  0  0  0  0  0  0  0  0  0  0  0
   14.3001   -5.5913   -1.7666 C   0  0  0  0  0  0  0  0  0  0  0  0
   13.3519   -5.2386   -2.1617 H   0  0  0  0  0  0  0  0  0  0  0  0
   15.3769   -2.2456   -1.7821 C   0  0  0  0  0  0  0  0  0  0  0  0
   15.9439   -2.6460   -3.0059 C   0  0  0  0  0  0  0  0  0  0  0  0
   16.0059   -3.7010   -3.2619 H   0  0  0  0  0  0  0  0  0  0  0  0
   16.4313   -1.6915   -3.9103 C   0  0  0  0  0  0  0  0  0  0  0  0
   16.8669   -2.0076   -4.8543 H   0  0  0  0  0  0  0  0  0  0  0  0
   16.3492   -0.3238   -3.6129 C   0  0  0  0  0  0  0  0  0  0  0  0
   16.7300    0.3997   -4.3278 H   0  0  0  0  0  0  0  0  0  0  0  0
   15.7735    0.1184   -2.4104 C   0  0  0  0  0  0  0  0  0  0  0  0
   15.6837    1.5726   -2.0942 C   0  0  0  0  0  0  0  0  0  0  0  0
   15.8619    2.5552   -3.0866 C   0  0  0  0  0  0  0  0  0  0  0  0
   16.0401    2.2336   -4.1075 H   0  0  0  0  0  0  0  0  0  0  0  0
   15.8208    3.8824   -2.8456 N   0  0  0  0  0  0  0  0  0  0  0  0
   15.5846    4.3039   -1.5941 C   0  0  0  0  0  0  0  0  0  0  0  0
   15.5712    5.3726   -1.3883 H   0  0  0  0  0  0  0  0  0  0  0  0
   15.3688    3.4041   -0.5499 C   0  0  0  0  0  0  0  0  0  0  0  0
   15.1672    3.7878    0.4435 H   0  0  0  0  0  0  0  0  0  0  0  0
   15.4288    2.0289   -0.7953 C   0  0  0  0  0  0  0  0  0  0  0  0
   15.2897    1.3191    0.0109 H   0  0  0  0  0  0  0  0  0  0  0  0
   15.2989   -0.8607   -1.5147 C   0  0  0  0  0  0  0  0  0  0  0  0
   14.8656   -0.5347   -0.5761 H   0  0  0  0  0  0  0  0  0  0  0  0
   15.2041   -2.9117    0.6010 N   0  0  0  0  0  4  0  0  0  0  0  0
   16.1777   -2.9053    0.9039 H   0  0  0  0  0  0  0  0  0  0  0  0
   14.2011   -2.6489    1.3775 C   0  0  0  0  0  0  0  0  0  0  0  0
   14.3934   -2.3515    2.6979 N   0  0  0  0  0  0  0  0  0  0  0  0
   13.6013   -2.0347    3.2546 H   0  0  0  0  0  0  0  0  0  0  0  0
   15.3323   -2.3852    3.0971 H   0  0  0  0  0  0  0  0  0  0  0  0
   10.8504   -1.5096    0.6772 C   0  0  0  0  0  0  0  0  0  0  0  0
   11.2140   -0.9502   -0.1784 H   0  0  0  0  0  0  0  0  0  0  0  0
  1  2  1  0
  2  3  1  0
  3  4  2  0
  3  5  1  0
  5  6  2  0
  6  7  1  0
  6  8  1  0
  8  9  1  0
  8 10  2  0
 10 11  1  0
 10 12  1  0
 12 13  1  0
 13 14  1  0
 14 15  2  0
 14 16  1  0
 16 17  1  6
 17 18  2  0
 18 19  1  0
 18 20  1  0
 20 21  1  0
 20 22  2  0
 22 23  1  0
 22 24  1  0
 24 25  1  0
 24 26  2  0
 26 27  1  0
 16 28  1  0
 28 29  2  0
 29 30  1  0
 29 31  1  0
 31 32  1  0
 31 33  2  0
 33 34  1  0
 33 35  1  0
 35 36  1  0
 36 37  2  0
 37 38  1  0
 37 39  1  0
 39 40  2  0
 40 41  1  0
 40 42  1  0
 42 43  1  0
 42 44  2  0
 44 45  1  0
 35 46  2  0
 46 47  1  0
 16 48  1  0
 48 49  1  0
 48 50  2  0
 50 51  1  0
 51 52  1  0
 51 53  1  0
 12 54  2  0
 54 55  1  0
 54  5  1  0
 50 13  1  0
 26 17  1  0
 46 28  1  0
 44 36  1  0
M  CHG  1  48   1
M  END
>  <score>  (159) 
5.68477

$$$$

     RDKit          3D

 51 54  0  0  0  0  0  0  0  0999 V2000
   15.5373    5.3289   -1.4098 H   0  0  0  0  0  0  0  0  0  0  0  0
   15.5852    4.2643   -1.6125 C   0  0  0  0  0  0  0  0  0  0  0  0
   15.8375    3.8535   -2.8644 N   0  0  0  0  0  0  0  0  0  0  0  0
   15.8936    2.5294   -3.0983 C   0  0  0  0  0  0  0  0  0  0  0  0
   16.0902    2.1973   -4.1139 H   0  0  0  0  0  0  0  0  0  0  0  0
   15.7061    1.5618   -2.0954 C   0  0  0  0  0  0  0  0  0  0  0  0
   15.7696    0.1210   -2.3907 C   0  0  0  0  0  0  0  0  0  0  0  0
   16.3235   -0.3198   -3.5964 C   0  0  0  0  0  0  0  0  0  0  0  0
   16.7041    0.4137   -4.3012 H   0  0  0  0  0  0  0  0  0  0  0  0
   16.3988   -1.6844   -3.8870 C   0  0  0  0  0  0  0  0  0  0  0  0
   16.8574   -2.0093   -4.8165 H   0  0  0  0  0  0  0  0  0  0  0  0
   15.9106   -2.6244   -2.9687 C   0  0  0  0  0  0  0  0  0  0  0  0
   15.9779   -3.6824   -3.1989 H   0  0  0  0  0  0  0  0  0  0  0  0
   15.3508   -2.2192   -1.7428 C   0  0  0  0  0  0  0  0  0  0  0  0
   14.7732   -3.2250   -0.7414 C   0  0  2  0  0  0  0  0  0  0  0  0
   15.1594   -4.6772   -1.0480 C   0  0  0  0  0  0  0  0  0  0  0  0
   16.3846   -5.1982   -0.5933 C   0  0  0  0  0  0  0  0  0  0  0  0
   17.0637   -4.5491   -0.0484 H   0  0  0  0  0  0  0  0  0  0  0  0
   16.7248   -6.5405   -0.7956 C   0  0  0  0  0  0  0  0  0  0  0  0
   17.6689   -6.9225   -0.4159 H   0  0  0  0  0  0  0  0  0  0  0  0
   15.8459   -7.3841   -1.4797 C   0  0  0  0  0  0  0  0  0  0  0  0
   16.1039   -8.4288   -1.6245 H   0  0  0  0  0  0  0  0  0  0  0  0
   14.6343   -6.8817   -1.9660 C   0  0  0  0  0  0  0  0  0  0  0  0
   13.9552   -7.5458   -2.4942 H   0  0  0  0  0  0  0  0  0  0  0  0
   14.2925   -5.5374   -1.7509 C   0  0  0  0  0  0  0  0  0  0  0  0
   13.3377   -5.1695   -2.1151 H   0  0  0  0  0  0  0  0  0  0  0  0
   13.2462   -3.0244   -0.5661 C   0  0  0  0  0  0  0  0  0  0  0  0
   12.3422   -3.1503   -1.3918 O   0  0  0  0  0  0  0  0  0  0  0  0
   12.9960   -2.7186    0.7393 N   0  0  0  0  0  0  0  0  0  0  0  0
   11.7459   -2.6720    1.2813 C   0  0  0  0  0  0  0  0  0  0  0  0
   10.7900   -2.4774    0.5380 O   0  0  0  0  0  0  0  0  0  0  0  0
   11.6781   -2.8950    2.5991 O   0  0  0  0  0  0  0  0  0  0  0  0
   10.3736   -2.8265    3.1887 C   0  0  0  0  0  0  0  0  0  0  0  0
    9.8280   -1.9391    2.8448 H   0  0  0  0  0  0  0  0  0  0  0  0
   10.4820   -2.7503    4.2763 H   0  0  0  0  0  0  0  0  0  0  0  0
    9.5631   -4.0788    2.8663 C   0  0  0  0  0  0  0  0  0  0  0  0
    9.3498   -4.1539    1.7978 H   0  0  0  0  0  0  0  0  0  0  0  0
    8.6137   -4.0557    3.4073 H   0  0  0  0  0  0  0  0  0  0  0  0
   10.1092   -4.9761    3.1657 H   0  0  0  0  0  0  0  0  0  0  0  0
   14.1755   -2.6998    1.4231 C   0  0  0  0  0  0  0  0  0  0  0  0
   14.3300   -2.4631    2.7571 N   0  0  0  0  0  0  0  0  0  0  0  0
   15.2743   -2.2703    3.0876 H   0  0  0  0  0  0  0  0  0  0  0  0
   13.5549   -2.0232    3.2483 H   0  0  0  0  0  0  0  0  0  0  0  0
   15.1903   -2.9102    0.6493 N   0  0  0  0  0  4  0  0  0  0  0  0
   16.1579   -2.9777    0.9769 H   0  0  0  0  0  0  0  0  0  0  0  0
   15.2849   -0.8363   -1.4802 C   0  0  0  0  0  0  0  0  0  0  0  0
   14.8445   -0.4884   -0.5506 H   0  0  0  0  0  0  0  0  0  0  0  0
   15.4653    2.0012   -0.7966 C   0  0  0  0  0  0  0  0  0  0  0  0
   15.3568    1.2708   -0.0014 H   0  0  0  0  0  0  0  0  0  0  0  0
   15.3923    3.3701   -0.5590 C   0  0  0  0  0  0  0  0  0  0  0  0
   15.2005    3.7495    0.4361 H   0  0  0  0  0  0  0  0  0  0  0  0
  1  2  1  0
  2  3  2  0
  3  4  1  0
  4  5  1  0
  4  6  2  0
  6  7  1  0
  7  8  2  0
  8  9  1  0
  8 10  1  0
 10 11  1  0
 10 12  2  0
 12 13  1  0
 12 14  1  0
 15 14  1  6
 15 16  1  0
 16 17  2  0
 17 18  1  0
 17 19  1  0
 19 20  1  0
 19 21  2  0
 21 22  1  0
 21 23  1  0
 23 24  1  0
 23 25  2  0
 25 26  1  0
 15 27  1  0
 27 28  2  0
 27 29  1  0
 29 30  1  0
 30 31  2  0
 30 32  1  0
 32 33  1  0
 33 34  1  0
 33 35  1  0
 33 36  1  0
 36 37  1  0
 36 38  1  0
 36 39  1  0
 29 40  1  0
 40 41  1  0
 41 42  1  0
 41 43  1  0
 40 44  2  0
 44 45  1  0
 14 46  2  0
 46 47  1  0
  6 48  1  0
 48 49  1  0
 48 50  2  0
 50 51  1  0
 50  2  1  0
 46  7  1  0
 44 15  1  0
 25 16  1  0
M  CHG  1  44   1
M  END
>  <score>  (160) 
5.67947

$$$$

     RDKit          3D

 46 49  0  0  0  0  0  0  0  0999 V2000
    9.5298   -1.7264    1.9793 H   0  0  0  0  0  0  0  0  0  0  0  0
    9.4451   -2.0598    1.0710 O   0  0  0  0  0  0  0  0  0  0  0  0
   10.6975   -2.4053    0.4709 N   0  0  0  0  0  0  0  0  0  0  0  0
   11.7669   -2.3172    1.2288 C   0  0  0  0  0  0  0  0  0  0  0  0
   11.6722   -1.9799    2.2581 H   0  0  0  0  0  0  0  0  0  0  0  0
   13.0142   -2.6537    0.7139 N   0  0  0  0  0  0  0  0  0  0  0  0
   13.2729   -3.0379   -0.5805 C   0  0  0  0  0  0  0  0  0  0  0  0
   12.4010   -3.1087   -1.4384 O   0  0  0  0  0  0  0  0  0  0  0  0
   14.7949   -3.2420   -0.7673 C   0  0  1  0  0  0  0  0  0  0  0  0
   15.1703   -4.7015   -1.0615 C   0  0  0  0  0  0  0  0  0  0  0  0
   16.3924   -5.2214   -0.5985 C   0  0  0  0  0  0  0  0  0  0  0  0
   17.0729   -4.5721   -0.0560 H   0  0  0  0  0  0  0  0  0  0  0  0
   16.7353   -6.5642   -0.8039 C   0  0  0  0  0  0  0  0  0  0  0  0
   17.6712   -6.9544   -0.4140 H   0  0  0  0  0  0  0  0  0  0  0  0
   15.8586   -7.4166   -1.4798 C   0  0  0  0  0  0  0  0  0  0  0  0
   16.1063   -8.4663   -1.6144 H   0  0  0  0  0  0  0  0  0  0  0  0
   14.6465   -6.9170   -1.9648 C   0  0  0  0  0  0  0  0  0  0  0  0
   13.9645   -7.5814   -2.4884 H   0  0  0  0  0  0  0  0  0  0  0  0
   14.3069   -5.5690   -1.7615 C   0  0  0  0  0  0  0  0  0  0  0  0
   13.3544   -5.1984   -2.1290 H   0  0  0  0  0  0  0  0  0  0  0  0
   15.3579   -2.2318   -1.7738 C   0  0  0  0  0  0  0  0  0  0  0  0
   15.9327   -2.6380   -2.9912 C   0  0  0  0  0  0  0  0  0  0  0  0
   15.9952   -3.6970   -3.2311 H   0  0  0  0  0  0  0  0  0  0  0  0
   16.4205   -1.6872   -3.8989 C   0  0  0  0  0  0  0  0  0  0  0  0
   16.8626   -2.0037   -4.8374 H   0  0  0  0  0  0  0  0  0  0  0  0
   16.3273   -0.3192   -3.6086 C   0  0  0  0  0  0  0  0  0  0  0  0
   16.7101    0.4260   -4.2974 H   0  0  0  0  0  0  0  0  0  0  0  0
   15.7722    0.1198   -2.4046 C   0  0  0  0  0  0  0  0  0  0  0  0
   15.6964    1.5664   -2.0982 C   0  0  0  0  0  0  0  0  0  0  0  0
   15.8798    2.5414   -3.0932 C   0  0  0  0  0  0  0  0  0  0  0  0
   16.0700    2.2018   -4.1045 H   0  0  0  0  0  0  0  0  0  0  0  0
   15.8216    3.8683   -2.8605 N   0  0  0  0  0  0  0  0  0  0  0  0
   15.5879    4.2863   -1.6060 C   0  0  0  0  0  0  0  0  0  0  0  0
   15.5536    5.3533   -1.3937 H   0  0  0  0  0  0  0  0  0  0  0  0
   15.3849    3.3858   -0.5558 C   0  0  0  0  0  0  0  0  0  0  0  0
   15.1795    3.7744    0.4362 H   0  0  0  0  0  0  0  0  0  0  0  0
   15.4465    2.0100   -0.8012 C   0  0  0  0  0  0  0  0  0  0  0  0
   15.3356    1.2722   -0.0134 H   0  0  0  0  0  0  0  0  0  0  0  0
   15.2967   -0.8466   -1.4997 C   0  0  0  0  0  0  0  0  0  0  0  0
   14.8604   -0.5035   -0.5677 H   0  0  0  0  0  0  0  0  0  0  0  0
   15.2154   -2.8955    0.6118 N   0  0  0  0  0  4  0  0  0  0  0  0
   16.1851   -2.9500    0.9385 H   0  0  0  0  0  0  0  0  0  0  0  0
   14.2149   -2.5984    1.3760 C   0  0  0  0  0  0  0  0  0  0  0  0
   14.3996   -2.2882    2.6900 N   0  0  0  0  0  0  0  0  0  0  0  0
   15.3437   -2.3372    3.0808 H   0  0  0  0  0  0  0  0  0  0  0  0
   13.5974   -2.1644    3.3063 H   0  0  0  0  0  0  0  0  0  0  0  0
  1  2  1  0
  2  3  1  0
  3  4  2  3
  4  5  1  0
  4  6  1  0
  6  7  1  0
  7  8  2  0
  7  9  1  0
  9 10  1  6
 10 11  2  0
 11 12  1  0
 11 13  1  0
 13 14  1  0
 13 15  2  0
 15 16  1  0
 15 17  1  0
 17 18  1  0
 17 19  2  0
 19 20  1  0
  9 21  1  0
 21 22  2  0
 22 23  1  0
 22 24  1  0
 24 25  1  0
 24 26  2  0
 26 27  1  0
 26 28  1  0
 28 29  1  0
 29 30  2  0
 30 31  1  0
 30 32  1  0
 32 33  2  0
 33 34  1  0
 33 35  1  0
 35 36  1  0
 35 37  2  0
 37 38  1  0
 28 39  2  0
 39 40  1  0
  9 41  1  0
 41 42  1  0
 41 43  2  0
 43 44  1  0
 44 45  1  0
 44 46  1  0
 43  6  1  0
 19 10  1  0
 39 21  1  0
 37 29  1  0
M  CHG  1  41   1
M  END
>  <score>  (161) 
5.67592

$$$$

     RDKit          3D

 63 66  0  0  0  0  0  0  0  0999 V2000
   15.5347    5.3270   -1.4112 H   0  0  0  0  0  0  0  0  0  0  0  0
   15.5839    4.2621   -1.6127 C   0  0  0  0  0  0  0  0  0  0  0  0
   15.8379    3.8524   -2.8646 N   0  0  0  0  0  0  0  0  0  0  0  0
   15.8943    2.5287   -3.1012 C   0  0  0  0  0  0  0  0  0  0  0  0
   16.0951    2.1961   -4.1156 H   0  0  0  0  0  0  0  0  0  0  0  0
   15.7090    1.5588   -2.1004 C   0  0  0  0  0  0  0  0  0  0  0  0
   15.7842    0.1207   -2.4045 C   0  0  0  0  0  0  0  0  0  0  0  0
   16.3361   -0.3104   -3.6139 C   0  0  0  0  0  0  0  0  0  0  0  0
   16.7009    0.4312   -4.3178 H   0  0  0  0  0  0  0  0  0  0  0  0
   16.4182   -1.6743   -3.9131 C   0  0  0  0  0  0  0  0  0  0  0  0
   16.8600   -1.9921   -4.8512 H   0  0  0  0  0  0  0  0  0  0  0  0
   15.9527   -2.6216   -2.9942 C   0  0  0  0  0  0  0  0  0  0  0  0
   16.0129   -3.6793   -3.2265 H   0  0  0  0  0  0  0  0  0  0  0  0
   15.4153   -2.2222   -1.7628 C   0  0  0  0  0  0  0  0  0  0  0  0
   14.8689   -3.2321   -0.7668 C   0  0  2  0  0  0  0  0  0  0  0  0
   15.2148   -4.6870   -1.0641 C   0  0  0  0  0  0  0  0  0  0  0  0
   16.4273   -5.2218   -0.6053 C   0  0  0  0  0  0  0  0  0  0  0  0
   17.1082   -4.5767   -0.0584 H   0  0  0  0  0  0  0  0  0  0  0  0
   16.7447   -6.5680   -0.8041 C   0  0  0  0  0  0  0  0  0  0  0  0
   17.6788   -6.9586   -0.4127 H   0  0  0  0  0  0  0  0  0  0  0  0
   15.8554   -7.4028   -1.4869 C   0  0  0  0  0  0  0  0  0  0  0  0
   16.0986   -8.4526   -1.6264 H   0  0  0  0  0  0  0  0  0  0  0  0
   14.6493   -6.8840   -1.9697 C   0  0  0  0  0  0  0  0  0  0  0  0
   13.9555   -7.5411   -2.4862 H   0  0  0  0  0  0  0  0  0  0  0  0
   14.3274   -5.5353   -1.7575 C   0  0  0  0  0  0  0  0  0  0  0  0
   13.3740   -5.1574   -2.1177 H   0  0  0  0  0  0  0  0  0  0  0  0
   13.3527   -3.0162   -0.6196 C   0  0  0  0  0  0  0  0  0  0  0  0
   12.5119   -3.1579   -1.5081 O   0  0  0  0  0  0  0  0  0  0  0  0
   13.0785   -2.6564    0.6829 N   0  0  0  0  0  0  0  0  0  0  0  0
   11.8124   -2.2292    1.1847 O   0  0  0  0  0  0  0  0  0  0  0  0
   11.0625   -3.3092    1.7442 C   0  0  0  0  0  0  0  0  0  0  0  0
   10.8612   -4.0679    0.9851 H   0  0  0  0  0  0  0  0  0  0  0  0
   11.6275   -3.7840    2.5482 H   0  0  0  0  0  0  0  0  0  0  0  0
    9.7429   -2.7939    2.2843 C   0  0  0  0  0  0  0  0  0  0  0  0
    9.1942   -2.2898    1.4838 H   0  0  0  0  0  0  0  0  0  0  0  0
    9.9293   -2.0555    3.0688 H   0  0  0  0  0  0  0  0  0  0  0  0
    8.9868   -3.9500    2.8079 N   0  0  0  0  0  0  0  0  0  0  0  0
    9.3523   -4.3278    4.1887 C   0  0  0  0  0  0  0  0  0  0  0  0
   10.4403   -4.3174    4.3056 H   0  0  0  0  0  0  0  0  0  0  0  0
    8.9413   -3.5999    4.8937 H   0  0  0  0  0  0  0  0  0  0  0  0
    8.8142   -5.7111    4.5116 C   0  0  0  0  0  0  0  0  0  0  0  0
    7.7236   -5.6914    4.5420 H   0  0  0  0  0  0  0  0  0  0  0  0
    9.1838   -6.0511    5.4785 H   0  0  0  0  0  0  0  0  0  0  0  0
    9.1322   -6.4219    3.7484 H   0  0  0  0  0  0  0  0  0  0  0  0
    7.5638   -4.0326    2.4346 C   0  0  0  0  0  0  0  0  0  0  0  0
    7.4090   -3.7359    1.3888 H   0  0  0  0  0  0  0  0  0  0  0  0
    7.1925   -5.0606    2.5382 H   0  0  0  0  0  0  0  0  0  0  0  0
    6.8303   -3.0888    3.3670 C   0  0  0  0  0  0  0  0  0  0  0  0
    5.7492   -3.1162    3.2180 H   0  0  0  0  0  0  0  0  0  0  0  0
    7.0435   -3.3854    4.3992 H   0  0  0  0  0  0  0  0  0  0  0  0
    7.1999   -2.0699    3.1990 H   0  0  0  0  0  0  0  0  0  0  0  0
   14.2843   -2.5859    1.3616 C   0  0  0  0  0  0  0  0  0  0  0  0
   14.4672   -2.2612    2.6822 N   0  0  0  0  0  0  0  0  0  0  0  0
   15.4023   -2.3187    3.0886 H   0  0  0  0  0  0  0  0  0  0  0  0
   13.6585   -2.0938    3.2764 H   0  0  0  0  0  0  0  0  0  0  0  0
   15.2902   -2.8927    0.6077 N   0  0  0  0  0  4  0  0  0  0  0  0
   16.2519   -3.0012    0.9410 H   0  0  0  0  0  0  0  0  0  0  0  0
   15.3184   -0.8427   -1.4942 C   0  0  0  0  0  0  0  0  0  0  0  0
   14.8740   -0.5077   -0.5608 H   0  0  0  0  0  0  0  0  0  0  0  0
   15.4697    1.9955   -0.7994 C   0  0  0  0  0  0  0  0  0  0  0  0
   15.3605    1.2662   -0.0018 H   0  0  0  0  0  0  0  0  0  0  0  0
   15.3941    3.3652   -0.5596 C   0  0  0  0  0  0  0  0  0  0  0  0
   15.2046    3.7448    0.4359 H   0  0  0  0  0  0  0  0  0  0  0  0
  1  2  1  0
  2  3  2  0
  3  4  1  0
  4  5  1  0
  4  6  2  0
  6  7  1  0
  7  8  2  0
  8  9  1  0
  8 10  1  0
 10 11  1  0
 10 12  2  0
 12 13  1  0
 12 14  1  0
 15 14  1  6
 15 16  1  0
 16 17  2  0
 17 18  1  0
 17 19  1  0
 19 20  1  0
 19 21  2  0
 21 22  1  0
 21 23  1  0
 23 24  1  0
 23 25  2  0
 25 26  1  0
 15 27  1  0
 27 28  2  0
 27 29  1  0
 29 30  1  0
 30 31  1  0
 31 32  1  0
 31 33  1  0
 31 34  1  0
 34 35  1  0
 34 36  1  0
 34 37  1  0
 37 38  1  0
 38 39  1  0
 38 40  1  0
 38 41  1  0
 41 42  1  0
 41 43  1  0
 41 44  1  0
 37 45  1  0
 45 46  1  0
 45 47  1  0
 45 48  1  0
 48 49  1  0
 48 50  1  0
 48 51  1  0
 29 52  1  0
 52 53  1  0
 53 54  1  0
 53 55  1  0
 52 56  2  0
 56 57  1  0
 14 58  2  0
 58 59  1  0
  6 60  1  0
 60 61  1  0
 60 62  2  0
 62 63  1  0
 62  2  1  0
 58  7  1  0
 56 15  1  0
 25 16  1  0
M  CHG  1  56   1
M  END
>  <score>  (162) 
5.67571

$$$$

     RDKit          3D

 54 57  0  0  0  0  0  0  0  0999 V2000
   15.5668    5.3699   -1.3877 H   0  0  0  0  0  0  0  0  0  0  0  0
   15.5843    4.3003   -1.5979 C   0  0  0  0  0  0  0  0  0  0  0  0
   15.8187    3.8783   -2.8510 N   0  0  0  0  0  0  0  0  0  0  0  0
   15.8672    2.5498   -3.0883 C   0  0  0  0  0  0  0  0  0  0  0  0
   16.0514    2.2180   -4.1039 H   0  0  0  0  0  0  0  0  0  0  0  0
   15.6872    1.5689   -2.0971 C   0  0  0  0  0  0  0  0  0  0  0  0
   15.7710    0.1184   -2.4096 C   0  0  0  0  0  0  0  0  0  0  0  0
   16.3421   -0.3210   -3.6107 C   0  0  0  0  0  0  0  0  0  0  0  0
   16.7217    0.4129   -4.3151 H   0  0  0  0  0  0  0  0  0  0  0  0
   16.4309   -1.6891   -3.9051 C   0  0  0  0  0  0  0  0  0  0  0  0
   16.8633   -2.0074   -4.8493 H   0  0  0  0  0  0  0  0  0  0  0  0
   15.9418   -2.6439   -3.0009 C   0  0  0  0  0  0  0  0  0  0  0  0
   16.0021   -3.7010   -3.2535 H   0  0  0  0  0  0  0  0  0  0  0  0
   15.3687   -2.2432   -1.7811 C   0  0  0  0  0  0  0  0  0  0  0  0
   14.7978   -3.2516   -0.7793 C   0  0  2  0  0  0  0  0  0  0  0  0
   15.1687   -4.7143   -1.0694 C   0  0  0  0  0  0  0  0  0  0  0  0
   16.3907   -5.2342   -0.6079 C   0  0  0  0  0  0  0  0  0  0  0  0
   17.0669   -4.5829   -0.0619 H   0  0  0  0  0  0  0  0  0  0  0  0
   16.7318   -6.5783   -0.8050 C   0  0  0  0  0  0  0  0  0  0  0  0
   17.6718   -6.9570   -0.4155 H   0  0  0  0  0  0  0  0  0  0  0  0
   15.8549   -7.4360   -1.4739 C   0  0  0  0  0  0  0  0  0  0  0  0
   16.1177   -8.4833   -1.6120 H   0  0  0  0  0  0  0  0  0  0  0  0
   14.6441   -6.9357   -1.9623 C   0  0  0  0  0  0  0  0  0  0  0  0
   13.9706   -7.6064   -2.4883 H   0  0  0  0  0  0  0  0  0  0  0  0
   14.3042   -5.5853   -1.7666 C   0  0  0  0  0  0  0  0  0  0  0  0
   13.3542   -5.2241   -2.1488 H   0  0  0  0  0  0  0  0  0  0  0  0
   13.2826   -3.0210   -0.5880 C   0  0  0  0  0  0  0  0  0  0  0  0
   12.4239   -3.0654   -1.4654 O   0  0  0  0  0  0  0  0  0  0  0  0
   13.0048   -2.6525    0.7112 N   0  0  0  0  0  0  0  0  0  0  0  0
   11.7733   -2.0291    1.1949 C   0  0  1  0  0  0  0  0  0  0  0  0
   11.8524   -1.8799    2.2788 H   0  0  0  0  0  0  0  0  0  0  0  0
   11.5942   -0.6688    0.5141 C   0  0  0  0  0  0  0  0  0  0  0  0
   10.7528   -0.1191    0.9515 H   0  0  0  0  0  0  0  0  0  0  0  0
   11.4350   -0.7762   -0.5644 H   0  0  0  0  0  0  0  0  0  0  0  0
   12.4951   -0.0791    0.6526 H   0  0  0  0  0  0  0  0  0  0  0  0
   10.5708   -2.9355    0.9114 C   0  0  0  0  0  0  0  0  0  0  0  0
   10.3378   -2.9122   -0.1581 H   0  0  0  0  0  0  0  0  0  0  0  0
   10.8375   -3.9624    1.1722 H   0  0  0  0  0  0  0  0  0  0  0  0
    9.3351   -2.5282    1.7283 C   0  0  0  0  0  0  0  0  0  0  0  0
    9.5699   -2.5258    2.7983 H   0  0  0  0  0  0  0  0  0  0  0  0
    8.5184   -3.2401    1.5579 H   0  0  0  0  0  0  0  0  0  0  0  0
    8.9936   -1.5262    1.4478 H   0  0  0  0  0  0  0  0  0  0  0  0
   14.2162   -2.6011    1.3602 C   0  0  0  0  0  0  0  0  0  0  0  0
   14.4003   -2.2956    2.6750 N   0  0  0  0  0  0  0  0  0  0  0  0
   13.5931   -2.2989    3.2921 H   0  0  0  0  0  0  0  0  0  0  0  0
   15.3478   -2.3038    3.0584 H   0  0  0  0  0  0  0  0  0  0  0  0
   15.2057   -2.9003    0.5954 N   0  0  0  0  0  4  0  0  0  0  0  0
   16.1737   -2.9238    0.9154 H   0  0  0  0  0  0  0  0  0  0  0  0
   15.2970   -0.8567   -1.5116 C   0  0  0  0  0  0  0  0  0  0  0  0
   14.8696   -0.5214   -0.5746 H   0  0  0  0  0  0  0  0  0  0  0  0
   15.4374    2.0212   -0.7990 C   0  0  0  0  0  0  0  0  0  0  0  0
   15.3064    1.2994   -0.0011 H   0  0  0  0  0  0  0  0  0  0  0  0
   15.3750    3.3981   -0.5521 C   0  0  0  0  0  0  0  0  0  0  0  0
   15.1692    3.7860    0.4405 H   0  0  0  0  0  0  0  0  0  0  0  0
  1  2  1  0
  2  3  2  0
  3  4  1  0
  4  5  1  0
  4  6  2  0
  6  7  1  0
  7  8  2  0
  8  9  1  0
  8 10  1  0
 10 11  1  0
 10 12  2  0
 12 13  1  0
 12 14  1  0
 15 14  1  6
 15 16  1  0
 16 17  2  0
 17 18  1  0
 17 19  1  0
 19 20  1  0
 19 21  2  0
 21 22  1  0
 21 23  1  0
 23 24  1  0
 23 25  2  0
 25 26  1  0
 15 27  1  0
 27 28  2  0
 27 29  1  0
 29 30  1  0
 30 31  1  1
 30 32  1  0
 32 33  1  0
 32 34  1  0
 32 35  1  0
 30 36  1  0
 36 37  1  0
 36 38  1  0
 36 39  1  0
 39 40  1  0
 39 41  1  0
 39 42  1  0
 29 43  1  0
 43 44  1  0
 44 45  1  0
 44 46  1  0
 43 47  2  0
 47 48  1  0
 14 49  2  0
 49 50  1  0
  6 51  1  0
 51 52  1  0
 51 53  2  0
 53 54  1  0
 53  2  1  0
 49  7  1  0
 47 15  1  0
 25 16  1  0
M  CHG  1  47   1
M  END
>  <score>  (163) 
5.6734

$$$$

     RDKit          3D

 56 59  0  0  0  0  0  0  0  0999 V2000
   15.5666    5.3698   -1.3878 H   0  0  0  0  0  0  0  0  0  0  0  0
   15.5846    4.3003   -1.5979 C   0  0  0  0  0  0  0  0  0  0  0  0
   15.8190    3.8786   -2.8511 N   0  0  0  0  0  0  0  0  0  0  0  0
   15.8672    2.5503   -3.0885 C   0  0  0  0  0  0  0  0  0  0  0  0
   16.0509    2.2184   -4.1041 H   0  0  0  0  0  0  0  0  0  0  0  0
   15.6877    1.5699   -2.0971 C   0  0  0  0  0  0  0  0  0  0  0  0
   15.7719    0.1204   -2.4108 C   0  0  0  0  0  0  0  0  0  0  0  0
   16.3430   -0.3198   -3.6118 C   0  0  0  0  0  0  0  0  0  0  0  0
   16.7221    0.4132   -4.3158 H   0  0  0  0  0  0  0  0  0  0  0  0
   16.4324   -1.6871   -3.9088 C   0  0  0  0  0  0  0  0  0  0  0  0
   16.8638   -2.0074   -4.8513 H   0  0  0  0  0  0  0  0  0  0  0  0
   15.9472   -2.6426   -3.0072 C   0  0  0  0  0  0  0  0  0  0  0  0
   16.0030   -3.7008   -3.2547 H   0  0  0  0  0  0  0  0  0  0  0  0
   15.3814   -2.2404   -1.7875 C   0  0  0  0  0  0  0  0  0  0  0  0
   14.8190   -3.2495   -0.7894 C   0  0  2  0  0  0  0  0  0  0  0  0
   15.1783   -4.7150   -1.0770 C   0  0  0  0  0  0  0  0  0  0  0  0
   16.3949   -5.2373   -0.6090 C   0  0  0  0  0  0  0  0  0  0  0  0
   17.0686   -4.5837   -0.0628 H   0  0  0  0  0  0  0  0  0  0  0  0
   16.7322   -6.5808   -0.8039 C   0  0  0  0  0  0  0  0  0  0  0  0
   17.6722   -6.9574   -0.4153 H   0  0  0  0  0  0  0  0  0  0  0  0
   15.8544   -7.4367   -1.4734 C   0  0  0  0  0  0  0  0  0  0  0  0
   16.1177   -8.4831   -1.6123 H   0  0  0  0  0  0  0  0  0  0  0  0
   14.6431   -6.9365   -1.9606 C   0  0  0  0  0  0  0  0  0  0  0  0
   13.9700   -7.6062   -2.4877 H   0  0  0  0  0  0  0  0  0  0  0  0
   14.3058   -5.5858   -1.7669 C   0  0  0  0  0  0  0  0  0  0  0  0
   13.3554   -5.2237   -2.1483 H   0  0  0  0  0  0  0  0  0  0  0  0
   13.3018   -3.0266   -0.6191 C   0  0  0  0  0  0  0  0  0  0  0  0
   12.4793   -3.1340   -1.5367 O   0  0  0  0  0  0  0  0  0  0  0  0
   13.0239   -2.6385    0.6913 N   0  0  0  0  0  0  0  0  0  0  0  0
   11.7193   -2.5520    1.3312 N   0  0  0  0  0  0  0  0  0  0  0  0
   11.6383   -1.7381    1.9560 H   0  0  0  0  0  0  0  0  0  0  0  0
   11.3343   -3.7796    2.0482 C   0  0  0  0  0  0  0  0  0  0  0  0
   12.1749   -4.1009    2.6730 H   0  0  0  0  0  0  0  0  0  0  0  0
   10.4724   -3.5890    2.6988 H   0  0  0  0  0  0  0  0  0  0  0  0
   11.0047   -4.8884    1.0465 C   0  0  0  0  0  0  0  0  0  0  0  0
   10.1965   -4.5609    0.3883 H   0  0  0  0  0  0  0  0  0  0  0  0
   11.8808   -5.0745    0.4165 H   0  0  0  0  0  0  0  0  0  0  0  0
   10.6012   -6.1926    1.7502 C   0  0  0  0  0  0  0  0  0  0  0  0
   10.5713   -7.0054    1.0163 H   0  0  0  0  0  0  0  0  0  0  0  0
   11.3525   -6.4524    2.5025 H   0  0  0  0  0  0  0  0  0  0  0  0
    9.2287   -6.0853    2.4169 C   0  0  0  0  0  0  0  0  0  0  0  0
    8.4741   -5.7684    1.6904 H   0  0  0  0  0  0  0  0  0  0  0  0
    8.9322   -7.0609    2.8196 H   0  0  0  0  0  0  0  0  0  0  0  0
    9.2522   -5.3588    3.2356 H   0  0  0  0  0  0  0  0  0  0  0  0
   14.2527   -2.6176    1.3537 C   0  0  0  0  0  0  0  0  0  0  0  0
   14.4310   -2.3450    2.6879 N   0  0  0  0  0  0  0  0  0  0  0  0
   15.3661   -2.3569    3.0995 H   0  0  0  0  0  0  0  0  0  0  0  0
   13.6187   -2.1194    3.2582 H   0  0  0  0  0  0  0  0  0  0  0  0
   15.2491   -2.8979    0.5813 N   0  0  0  0  0  4  0  0  0  0  0  0
   16.2215   -2.9308    0.8971 H   0  0  0  0  0  0  0  0  0  0  0  0
   15.3007   -0.8552   -1.5139 C   0  0  0  0  0  0  0  0  0  0  0  0
   14.8697   -0.5221   -0.5768 H   0  0  0  0  0  0  0  0  0  0  0  0
   15.4380    2.0216   -0.7987 C   0  0  0  0  0  0  0  0  0  0  0  0
   15.3063    1.3001   -0.0010 H   0  0  0  0  0  0  0  0  0  0  0  0
   15.3755    3.3983   -0.5520 C   0  0  0  0  0  0  0  0  0  0  0  0
   15.1693    3.7857    0.4404 H   0  0  0  0  0  0  0  0  0  0  0  0
  1  2  1  0
  2  3  2  0
  3  4  1  0
  4  5  1  0
  4  6  2  0
  6  7  1  0
  7  8  2  0
  8  9  1  0
  8 10  1  0
 10 11  1  0
 10 12  2  0
 12 13  1  0
 12 14  1  0
 15 14  1  6
 15 16  1  0
 16 17  2  0
 17 18  1  0
 17 19  1  0
 19 20  1  0
 19 21  2  0
 21 22  1  0
 21 23  1  0
 23 24  1  0
 23 25  2  0
 25 26  1  0
 15 27  1  0
 27 28  2  0
 27 29  1  0
 29 30  1  0
 30 31  1  0
 30 32  1  0
 32 33  1  0
 32 34  1  0
 32 35  1  0
 35 36  1  0
 35 37  1  0
 35 38  1  0
 38 39  1  0
 38 40  1  0
 38 41  1  0
 41 42  1  0
 41 43  1  0
 41 44  1  0
 29 45  1  0
 45 46  1  0
 46 47  1  0
 46 48  1  0
 45 49  2  0
 49 50  1  0
 14 51  2  0
 51 52  1  0
  6 53  1  0
 53 54  1  0
 53 55  2  0
 55 56  1  0
 55  2  1  0
 51  7  1  0
 49 15  1  0
 25 16  1  0
M  CHG  1  49   1
M  END
>  <score>  (164) 
5.67277

$$$$

     RDKit          3D

 55 59  0  0  0  0  0  0  0  0999 V2000
   15.5613    5.3348   -1.4091 H   0  0  0  0  0  0  0  0  0  0  0  0
   15.6224    4.2684   -1.6060 C   0  0  0  0  0  0  0  0  0  0  0  0
   15.8618    3.8503   -2.8578 N   0  0  0  0  0  0  0  0  0  0  0  0
   15.9334    2.5252   -3.0869 C   0  0  0  0  0  0  0  0  0  0  0  0
   16.1151    2.1969   -4.1054 H   0  0  0  0  0  0  0  0  0  0  0  0
   15.7694    1.5567   -2.0811 C   0  0  0  0  0  0  0  0  0  0  0  0
   15.8339    0.1130   -2.3828 C   0  0  0  0  0  0  0  0  0  0  0  0
   16.3478   -0.3551   -3.6006 C   0  0  0  0  0  0  0  0  0  0  0  0
   16.7222    0.3515   -4.3326 H   0  0  0  0  0  0  0  0  0  0  0  0
   16.3933   -1.7257   -3.8788 C   0  0  0  0  0  0  0  0  0  0  0  0
   16.7977   -2.0742   -4.8227 H   0  0  0  0  0  0  0  0  0  0  0  0
   15.9182   -2.6481   -2.9432 C   0  0  0  0  0  0  0  0  0  0  0  0
   15.9462   -3.7101   -3.1720 H   0  0  0  0  0  0  0  0  0  0  0  0
   15.4028   -2.2111   -1.7129 C   0  0  0  0  0  0  0  0  0  0  0  0
   14.8037   -3.1802   -0.7045 C   0  0  2  0  0  0  0  0  0  0  0  0
   15.1756   -4.6416   -0.9852 C   0  0  0  0  0  0  0  0  0  0  0  0
   16.4043   -5.1672   -0.5451 C   0  0  0  0  0  0  0  0  0  0  0  0
   17.0916   -4.5272    0.0009 H   0  0  0  0  0  0  0  0  0  0  0  0
   16.7541   -6.5009   -0.7938 C   0  0  0  0  0  0  0  0  0  0  0  0
   17.7042   -6.8836   -0.4330 H   0  0  0  0  0  0  0  0  0  0  0  0
   15.8786   -7.3361   -1.4931 C   0  0  0  0  0  0  0  0  0  0  0  0
   16.1388   -8.3775   -1.6661 H   0  0  0  0  0  0  0  0  0  0  0  0
   14.6617   -6.8253   -1.9554 C   0  0  0  0  0  0  0  0  0  0  0  0
   13.9824   -7.4701   -2.5034 H   0  0  0  0  0  0  0  0  0  0  0  0
   14.3142   -5.4890   -1.7079 C   0  0  0  0  0  0  0  0  0  0  0  0
   13.3676   -5.1106   -2.0818 H   0  0  0  0  0  0  0  0  0  0  0  0
   13.2880   -2.9141   -0.5919 C   0  0  0  0  0  0  0  0  0  0  0  0
   12.4282   -3.2216   -1.4160 O   0  0  0  0  0  0  0  0  0  0  0  0
   12.9667   -2.3815    0.6412 N   0  0  0  0  0  0  0  0  0  0  0  0
   11.6234   -2.4909    1.2161 C   0  0  0  0  0  0  0  0  0  0  0  0
   10.8468   -2.3041    0.4672 H   0  0  0  0  0  0  0  0  0  0  0  0
   11.4728   -1.7744    2.0290 H   0  0  0  0  0  0  0  0  0  0  0  0
   11.5541   -3.9052    1.7074 C   0  0  0  0  0  0  0  0  0  0  0  0
   11.9464   -4.2018    3.0134 C   0  0  0  0  0  0  0  0  0  0  0  0
   12.1346   -3.3891    3.7034 H   0  0  0  0  0  0  0  0  0  0  0  0
   12.1947   -5.5239    3.3963 C   0  0  0  0  0  0  0  0  0  0  0  0
   12.5034   -5.7347    4.4157 H   0  0  0  0  0  0  0  0  0  0  0  0
   12.1302   -6.5502    2.4423 C   0  0  0  0  0  0  0  0  0  0  0  0
   12.6428   -8.1701    2.8429 Cl  0  0  0  0  0  0  0  0  0  0  0  0
   11.7115   -6.2562    1.1369 C   0  0  0  0  0  0  0  0  0  0  0  0
   11.6604   -7.5125   -0.0751 Cl  0  0  0  0  0  0  0  0  0  0  0  0
   11.3816   -4.9423    0.7863 C   0  0  0  0  0  0  0  0  0  0  0  0
   11.0926   -4.7053   -0.2337 H   0  0  0  0  0  0  0  0  0  0  0  0
   14.1303   -2.4833    1.3824 C   0  0  0  0  0  0  0  0  0  0  0  0
   14.2679   -2.3381    2.7323 N   0  0  0  0  0  0  0  0  0  0  0  0
   13.4915   -1.9651    3.2755 H   0  0  0  0  0  0  0  0  0  0  0  0
   15.2143   -2.2796    3.1077 H   0  0  0  0  0  0  0  0  0  0  0  0
   15.1644   -2.8177    0.6784 N   0  0  0  0  0  4  0  0  0  0  0  0
   16.0842   -3.0034    1.0807 H   0  0  0  0  0  0  0  0  0  0  0  0
   15.3676   -0.8292   -1.4534 C   0  0  0  0  0  0  0  0  0  0  0  0
   14.9529   -0.4788   -0.5126 H   0  0  0  0  0  0  0  0  0  0  0  0
   15.5337    2.0055   -0.7779 C   0  0  0  0  0  0  0  0  0  0  0  0
   15.4276    1.2956    0.0378 H   0  0  0  0  0  0  0  0  0  0  0  0
   15.4517    3.3772   -0.5462 C   0  0  0  0  0  0  0  0  0  0  0  0
   15.2606    3.7639    0.4475 H   0  0  0  0  0  0  0  0  0  0  0  0
  1  2  1  0
  2  3  2  0
  3  4  1  0
  4  5  1  0
  4  6  2  0
  6  7  1  0
  7  8  2  0
  8  9  1  0
  8 10  1  0
 10 11  1  0
 10 12  2  0
 12 13  1  0
 12 14  1  0
 15 14  1  6
 15 16  1  0
 16 17  2  0
 17 18  1  0
 17 19  1  0
 19 20  1  0
 19 21  2  0
 21 22  1  0
 21 23  1  0
 23 24  1  0
 23 25  2  0
 25 26  1  0
 15 27  1  0
 27 28  2  0
 27 29  1  0
 29 30  1  0
 30 31  1  0
 30 32  1  0
 30 33  1  0
 33 34  2  0
 34 35  1  0
 34 36  1  0
 36 37  1  0
 36 38  2  0
 38 39  1  0
 38 40  1  0
 40 41  1  0
 40 42  2  0
 42 43  1  0
 29 44  1  0
 44 45  1  0
 45 46  1  0
 45 47  1  0
 44 48  2  0
 48 49  1  0
 14 50  2  0
 50 51  1  0
  6 52  1  0
 52 53  1  0
 52 54  2  0
 54 55  1  0
 54  2  1  0
 50  7  1  0
 48 15  1  0
 25 16  1  0
 42 33  1  0
M  CHG  1  48   1
M  END
>  <score>  (165) 
5.67143

$$$$

     RDKit          3D

 65 70  0  0  0  0  0  0  0  0999 V2000
   15.9974    4.7660   -0.9021 H   0  0  0  0  0  0  0  0  0  0  0  0
   16.0209    3.7426   -1.2628 C   0  0  0  0  0  0  0  0  0  0  0  0
   16.2883    3.5219   -2.5591 N   0  0  0  0  0  0  0  0  0  0  0  0
   16.3280    2.2465   -2.9898 C   0  0  0  0  0  0  0  0  0  0  0  0
   16.5389    2.0755   -4.0414 H   0  0  0  0  0  0  0  0  0  0  0  0
   16.1074    1.1363   -2.1506 C   0  0  0  0  0  0  0  0  0  0  0  0
   16.1705   -0.2462   -2.6669 C   0  0  0  0  0  0  0  0  0  0  0  0
   16.3126   -0.4915   -4.0391 C   0  0  0  0  0  0  0  0  0  0  0  0
   16.4039    0.3390   -4.7310 H   0  0  0  0  0  0  0  0  0  0  0  0
   16.3136   -1.7975   -4.5361 C   0  0  0  0  0  0  0  0  0  0  0  0
   16.4058   -1.9591   -5.6053 H   0  0  0  0  0  0  0  0  0  0  0  0
   16.1794   -2.8800   -3.6593 C   0  0  0  0  0  0  0  0  0  0  0  0
   16.1486   -3.8922   -4.0502 H   0  0  0  0  0  0  0  0  0  0  0  0
   16.0773   -2.6714   -2.2777 C   0  0  0  0  0  0  0  0  0  0  0  0
   15.8415   -3.8361   -1.3312 C   0  0  2  0  0  0  0  0  0  0  0  0
   16.4674   -5.1622   -1.7326 C   0  0  0  0  0  0  0  0  0  0  0  0
   17.5135   -5.7206   -0.9799 C   0  0  0  0  0  0  0  0  0  0  0  0
   17.9314   -5.1514   -0.1577 H   0  0  0  0  0  0  0  0  0  0  0  0
   17.9847   -7.0101   -1.2258 C   0  0  0  0  0  0  0  0  0  0  0  0
   18.7701   -7.4198   -0.5918 H   0  0  0  0  0  0  0  0  0  0  0  0
   17.4221   -7.7601   -2.2601 C   0  0  0  0  0  0  0  0  0  0  0  0
   17.7999   -8.7628   -2.4450 H   0  0  0  0  0  0  0  0  0  0  0  0
   16.3868   -7.2168   -3.0391 C   0  0  0  0  0  0  0  0  0  0  0  0
   15.9381   -7.7928   -3.8439 H   0  0  0  0  0  0  0  0  0  0  0  0
   15.9081   -5.9277   -2.7666 C   0  0  0  0  0  0  0  0  0  0  0  0
   15.0709   -5.5321   -3.3367 H   0  0  0  0  0  0  0  0  0  0  0  0
   14.3440   -4.0500   -1.1233 C   0  0  0  0  0  0  0  0  0  0  0  0
   13.5007   -4.1112   -2.0199 O   0  0  0  0  0  0  0  0  0  0  0  0
   14.0799   -4.1412    0.2271 N   0  0  0  0  0  0  0  0  0  0  0  0
   12.8651   -3.6793    0.6937 C   0  0  0  0  0  0  0  0  0  0  0  0
   12.5985   -2.3078    0.6978 C   0  0  0  0  0  0  0  0  0  0  0  0
   13.3922   -1.5915    0.5137 H   0  0  0  0  0  0  0  0  0  0  0  0
   11.2863   -1.8772    0.8236 C   0  0  0  0  0  0  0  0  0  0  0  0
   11.0390   -0.8275    0.7643 H   0  0  0  0  0  0  0  0  0  0  0  0
   10.2639   -2.8041    0.9656 C   0  0  0  0  0  0  0  0  0  0  0  0
    8.9539   -2.3449    0.9380 N   0  0  0  0  0  0  0  0  0  0  0  0
    8.6426   -1.2999   -0.0659 C   0  0  0  0  0  0  0  0  0  0  0  0
    7.6550   -1.4752   -0.5124 H   0  0  0  0  0  0  0  0  0  0  0  0
    9.3671   -1.3305   -0.8848 H   0  0  0  0  0  0  0  0  0  0  0  0
    8.7019    0.0724    0.5996 C   0  0  0  0  0  0  0  0  0  0  0  0
    9.7131    0.2575    0.9847 H   0  0  0  0  0  0  0  0  0  0  0  0
    8.4789    0.8546   -0.1340 H   0  0  0  0  0  0  0  0  0  0  0  0
    7.7447    0.0850    1.6661 O   0  0  0  0  0  0  0  0  0  0  0  0
    8.0813   -0.8239    2.7328 C   0  0  0  0  0  0  0  0  0  0  0  0
    7.2710   -0.8328    3.4607 H   0  0  0  0  0  0  0  0  0  0  0  0
    8.9672   -0.4630    3.2508 H   0  0  0  0  0  0  0  0  0  0  0  0
    8.2928   -2.2712    2.2567 C   0  0  0  0  0  0  0  0  0  0  0  0
    8.8855   -2.7940    3.0121 H   0  0  0  0  0  0  0  0  0  0  0  0
    7.3337   -2.7915    2.2012 H   0  0  0  0  0  0  0  0  0  0  0  0
   10.5604   -4.1575    1.1316 C   0  0  0  0  0  0  0  0  0  0  0  0
    9.7647   -4.8624    1.3190 H   0  0  0  0  0  0  0  0  0  0  0  0
   11.8742   -4.6037    0.9820 C   0  0  0  0  0  0  0  0  0  0  0  0
   12.1459   -5.6556    1.0330 H   0  0  0  0  0  0  0  0  0  0  0  0
   15.2628   -3.8692    0.8671 C   0  0  0  0  0  0  0  0  0  0  0  0
   15.4630   -3.9957    2.2084 N   0  0  0  0  0  0  0  0  0  0  0  0
   14.6391   -4.1427    2.7839 H   0  0  0  0  0  0  0  0  0  0  0  0
   16.2521   -3.4714    2.5871 H   0  0  0  0  0  0  0  0  0  0  0  0
   16.2147   -3.5447    0.0570 N   0  0  0  0  0  4  0  0  0  0  0  0
   17.1887   -3.5110    0.3612 H   0  0  0  0  0  0  0  0  0  0  0  0
   16.0667   -1.3478   -1.8006 C   0  0  0  0  0  0  0  0  0  0  0  0
   15.9569   -1.1667   -0.7364 H   0  0  0  0  0  0  0  0  0  0  0  0
   15.8109    1.3833   -0.8069 C   0  0  0  0  0  0  0  0  0  0  0  0
   15.6123    0.5655   -0.1176 H   0  0  0  0  0  0  0  0  0  0  0  0
   15.7688    2.7025   -0.3666 C   0  0  0  0  0  0  0  0  0  0  0  0
   15.5410    2.9286    0.6671 H   0  0  0  0  0  0  0  0  0  0  0  0
  1  2  1  0
  2  3  2  0
  3  4  1  0
  4  5  1  0
  4  6  2  0
  6  7  1  0
  7  8  2  0
  8  9  1  0
  8 10  1  0
 10 11  1  0
 10 12  2  0
 12 13  1  0
 12 14  1  0
 15 14  1  6
 15 16  1  0
 16 17  2  0
 17 18  1  0
 17 19  1  0
 19 20  1  0
 19 21  2  0
 21 22  1  0
 21 23  1  0
 23 24  1  0
 23 25  2  0
 25 26  1  0
 15 27  1  0
 27 28  2  0
 27 29  1  0
 29 30  1  0
 30 31  2  0
 31 32  1  0
 31 33  1  0
 33 34  1  0
 33 35  2  0
 35 36  1  0
 36 37  1  0
 37 38  1  0
 37 39  1  0
 37 40  1  0
 40 41  1  0
 40 42  1  0
 40 43  1  0
 43 44  1  0
 44 45  1  0
 44 46  1  0
 44 47  1  0
 47 48  1  0
 47 49  1  0
 35 50  1  0
 50 51  1  0
 50 52  2  0
 52 53  1  0
 29 54  1  0
 54 55  1  0
 55 56  1  0
 55 57  1  0
 54 58  2  0
 58 59  1  0
 14 60  2  0
 60 61  1  0
  6 62  1  0
 62 63  1  0
 62 64  2  0
 64 65  1  0
 64  2  1  0
 60  7  1  0
 58 15  1  0
 25 16  1  0
 52 30  1  0
 47 36  1  0
M  CHG  1  58   1
M  END
>  <score>  (166) 
5.6669

$$$$

     RDKit          3D

 52 55  0  0  0  0  0  0  0  0999 V2000
   15.5698    5.3721   -1.3879 H   0  0  0  0  0  0  0  0  0  0  0  0
   15.5837    4.3032   -1.5952 C   0  0  0  0  0  0  0  0  0  0  0  0
   15.8196    3.8809   -2.8470 N   0  0  0  0  0  0  0  0  0  0  0  0
   15.8635    2.5533   -3.0877 C   0  0  0  0  0  0  0  0  0  0  0  0
   16.0454    2.2260   -4.1059 H   0  0  0  0  0  0  0  0  0  0  0  0
   15.6856    1.5715   -2.0957 C   0  0  0  0  0  0  0  0  0  0  0  0
   15.7715    0.1190   -2.4110 C   0  0  0  0  0  0  0  0  0  0  0  0
   16.3484   -0.3215   -3.6115 C   0  0  0  0  0  0  0  0  0  0  0  0
   16.7253    0.4075   -4.3219 H   0  0  0  0  0  0  0  0  0  0  0  0
   16.4324   -1.6895   -3.9097 C   0  0  0  0  0  0  0  0  0  0  0  0
   16.8652   -2.0075   -4.8533 H   0  0  0  0  0  0  0  0  0  0  0  0
   15.9463   -2.6452   -3.0071 C   0  0  0  0  0  0  0  0  0  0  0  0
   16.0049   -3.7015   -3.2583 H   0  0  0  0  0  0  0  0  0  0  0  0
   15.3820   -2.2440   -1.7850 C   0  0  0  0  0  0  0  0  0  0  0  0
   14.8171   -3.2512   -0.7856 C   0  0  2  0  0  0  0  0  0  0  0  0
   15.1736   -4.7166   -1.0739 C   0  0  0  0  0  0  0  0  0  0  0  0
   16.3918   -5.2386   -0.6100 C   0  0  0  0  0  0  0  0  0  0  0  0
   17.0670   -4.5871   -0.0641 H   0  0  0  0  0  0  0  0  0  0  0  0
   16.7293   -6.5826   -0.8026 C   0  0  0  0  0  0  0  0  0  0  0  0
   17.6724   -6.9564   -0.4170 H   0  0  0  0  0  0  0  0  0  0  0  0
   15.8535   -7.4403   -1.4724 C   0  0  0  0  0  0  0  0  0  0  0  0
   16.1211   -8.4858   -1.6115 H   0  0  0  0  0  0  0  0  0  0  0  0
   14.6427   -6.9393   -1.9614 C   0  0  0  0  0  0  0  0  0  0  0  0
   13.9723   -7.6126   -2.4880 H   0  0  0  0  0  0  0  0  0  0  0  0
   14.3032   -5.5884   -1.7671 C   0  0  0  0  0  0  0  0  0  0  0  0
   13.3533   -5.2325   -2.1564 H   0  0  0  0  0  0  0  0  0  0  0  0
   13.3052   -3.0275   -0.6038 C   0  0  0  0  0  0  0  0  0  0  0  0
   12.4347   -3.1075   -1.4671 O   0  0  0  0  0  0  0  0  0  0  0  0
   13.0280   -2.6513    0.6951 N   0  0  0  0  0  0  0  0  0  0  0  0
   11.6939   -2.5576    1.3027 C   0  0  0  0  0  0  0  0  0  0  0  0
   11.6885   -1.7953    2.0881 H   0  0  0  0  0  0  0  0  0  0  0  0
   10.9451   -2.2535    0.5639 H   0  0  0  0  0  0  0  0  0  0  0  0
   11.2843   -3.9036    1.8893 C   0  0  0  0  0  0  0  0  0  0  0  0
   11.2999   -4.6667    1.1035 H   0  0  0  0  0  0  0  0  0  0  0  0
   12.0121   -4.1990    2.6511 H   0  0  0  0  0  0  0  0  0  0  0  0
    9.9664   -3.8133    2.4514 O   0  0  0  0  0  0  0  0  0  0  0  0
    9.9747   -3.5386    3.8608 C   0  0  0  0  0  0  0  0  0  0  0  0
   10.5602   -2.6422    4.0779 H   0  0  0  0  0  0  0  0  0  0  0  0
    8.9531   -3.3863    4.2330 H   0  0  0  0  0  0  0  0  0  0  0  0
   10.4285   -4.3714    4.4073 H   0  0  0  0  0  0  0  0  0  0  0  0
   14.2288   -2.6248    1.3630 C   0  0  0  0  0  0  0  0  0  0  0  0
   14.3994   -2.3511    2.6894 N   0  0  0  0  0  0  0  0  0  0  0  0
   15.3387   -2.3472    3.0894 H   0  0  0  0  0  0  0  0  0  0  0  0
   13.5851   -2.1488    3.2657 H   0  0  0  0  0  0  0  0  0  0  0  0
   15.2242   -2.8959    0.5897 N   0  0  0  0  0  4  0  0  0  0  0  0
   16.1916   -2.9129    0.9061 H   0  0  0  0  0  0  0  0  0  0  0  0
   15.2976   -0.8589   -1.5158 C   0  0  0  0  0  0  0  0  0  0  0  0
   14.8693   -0.5290   -0.5763 H   0  0  0  0  0  0  0  0  0  0  0  0
   15.4350    2.0256   -0.7967 C   0  0  0  0  0  0  0  0  0  0  0  0
   15.2970    1.3090    0.0040 H   0  0  0  0  0  0  0  0  0  0  0  0
   15.3718    3.4019   -0.5508 C   0  0  0  0  0  0  0  0  0  0  0  0
   15.1679    3.7878    0.4413 H   0  0  0  0  0  0  0  0  0  0  0  0
  1  2  1  0
  2  3  2  0
  3  4  1  0
  4  5  1  0
  4  6  2  0
  6  7  1  0
  7  8  2  0
  8  9  1  0
  8 10  1  0
 10 11  1  0
 10 12  2  0
 12 13  1  0
 12 14  1  0
 15 14  1  6
 15 16  1  0
 16 17  2  0
 17 18  1  0
 17 19  1  0
 19 20  1  0
 19 21  2  0
 21 22  1  0
 21 23  1  0
 23 24  1  0
 23 25  2  0
 25 26  1  0
 15 27  1  0
 27 28  2  0
 27 29  1  0
 29 30  1  0
 30 31  1  0
 30 32  1  0
 30 33  1  0
 33 34  1  0
 33 35  1  0
 33 36  1  0
 36 37  1  0
 37 38  1  0
 37 39  1  0
 37 40  1  0
 29 41  1  0
 41 42  1  0
 42 43  1  0
 42 44  1  0
 41 45  2  0
 45 46  1  0
 14 47  2  0
 47 48  1  0
  6 49  1  0
 49 50  1  0
 49 51  2  0
 51 52  1  0
 51  2  1  0
 47  7  1  0
 45 15  1  0
 25 16  1  0
M  CHG  1  45   1
M  END
>  <score>  (167) 
5.66576

$$$$

     RDKit          3D

 51 55  0  0  0  0  0  0  0  0999 V2000
   15.5396    5.3309   -1.4072 H   0  0  0  0  0  0  0  0  0  0  0  0
   15.5864    4.2673   -1.6113 C   0  0  0  0  0  0  0  0  0  0  0  0
   15.8349    3.8589   -2.8646 N   0  0  0  0  0  0  0  0  0  0  0  0
   15.8902    2.5351   -3.0995 C   0  0  0  0  0  0  0  0  0  0  0  0
   16.0864    2.1988   -4.1135 H   0  0  0  0  0  0  0  0  0  0  0  0
   15.7064    1.5672   -2.0973 C   0  0  0  0  0  0  0  0  0  0  0  0
   15.7860    0.1281   -2.4003 C   0  0  0  0  0  0  0  0  0  0  0  0
   16.3333   -0.3100   -3.6112 C   0  0  0  0  0  0  0  0  0  0  0  0
   16.7078    0.4276   -4.3131 H   0  0  0  0  0  0  0  0  0  0  0  0
   16.4131   -1.6757   -3.9093 C   0  0  0  0  0  0  0  0  0  0  0  0
   16.8643   -2.0030   -4.8420 H   0  0  0  0  0  0  0  0  0  0  0  0
   15.9376   -2.6193   -2.9889 C   0  0  0  0  0  0  0  0  0  0  0  0
   15.9974   -3.6778   -3.2225 H   0  0  0  0  0  0  0  0  0  0  0  0
   15.3918   -2.2155   -1.7590 C   0  0  0  0  0  0  0  0  0  0  0  0
   14.8233   -3.2232   -0.7652 C   0  0  2  0  0  0  0  0  0  0  0  0
   15.1768   -4.6806   -1.0691 C   0  0  0  0  0  0  0  0  0  0  0  0
   16.3940   -5.2086   -0.6064 C   0  0  0  0  0  0  0  0  0  0  0  0
   17.0742   -4.5624   -0.0615 H   0  0  0  0  0  0  0  0  0  0  0  0
   16.7287   -6.5530   -0.7981 C   0  0  0  0  0  0  0  0  0  0  0  0
   17.6695   -6.9383   -0.4140 H   0  0  0  0  0  0  0  0  0  0  0  0
   15.8488   -7.3951   -1.4816 C   0  0  0  0  0  0  0  0  0  0  0  0
   16.1012   -8.4424   -1.6212 H   0  0  0  0  0  0  0  0  0  0  0  0
   14.6382   -6.8898   -1.9682 C   0  0  0  0  0  0  0  0  0  0  0  0
   13.9544   -7.5549   -2.4885 H   0  0  0  0  0  0  0  0  0  0  0  0
   14.3009   -5.5410   -1.7620 C   0  0  0  0  0  0  0  0  0  0  0  0
   13.3458   -5.1712   -2.1236 H   0  0  0  0  0  0  0  0  0  0  0  0
   13.3068   -2.9926   -0.5905 C   0  0  0  0  0  0  0  0  0  0  0  0
   12.3979   -3.0700   -1.4168 O   0  0  0  0  0  0  0  0  0  0  0  0
   13.0596   -2.7320    0.7290 N   0  0  0  0  0  0  0  0  0  0  0  0
   11.8127   -2.4268    1.2317 C   0  0  0  0  0  0  0  0  0  0  0  0
   11.0580   -1.8219    0.4778 O   0  0  0  0  0  0  0  0  0  0  0  0
   11.2739   -3.1268    2.4286 C   0  0  0  0  0  0  0  0  0  0  0  0
   10.0872   -2.8664    3.0931 O   0  0  0  0  0  0  0  0  0  0  0  0
    9.9425   -3.8415    4.0539 C   0  0  0  0  0  0  0  0  0  0  0  0
    9.1095   -3.9153    4.7436 H   0  0  0  0  0  0  0  0  0  0  0  0
   10.9881   -4.7171    4.0276 C   0  0  0  0  0  0  0  0  0  0  0  0
   11.1168   -5.5830    4.6789 H   0  0  0  0  0  0  0  0  0  0  0  0
   11.8543   -4.2514    2.9794 C   0  0  0  0  0  0  0  0  0  0  0  0
   12.7691   -4.7478    2.6672 H   0  0  0  0  0  0  0  0  0  0  0  0
   14.2481   -2.7074    1.4005 C   0  0  0  0  0  0  0  0  0  0  0  0
   14.3752   -2.4397    2.7284 N   0  0  0  0  0  0  0  0  0  0  0  0
   15.3120   -2.2916    3.1040 H   0  0  0  0  0  0  0  0  0  0  0  0
   13.5732   -2.0575    3.2233 H   0  0  0  0  0  0  0  0  0  0  0  0
   15.2532   -2.9229    0.6223 N   0  0  0  0  0  4  0  0  0  0  0  0
   16.2291   -2.9817    0.9339 H   0  0  0  0  0  0  0  0  0  0  0  0
   15.3152   -0.8338   -1.4903 C   0  0  0  0  0  0  0  0  0  0  0  0
   14.8645   -0.4925   -0.5642 H   0  0  0  0  0  0  0  0  0  0  0  0
   15.4584    2.0037   -0.7975 C   0  0  0  0  0  0  0  0  0  0  0  0
   15.3531    1.2718   -0.0029 H   0  0  0  0  0  0  0  0  0  0  0  0
   15.3881    3.3729   -0.5590 C   0  0  0  0  0  0  0  0  0  0  0  0
   15.1971    3.7525    0.4359 H   0  0  0  0  0  0  0  0  0  0  0  0
  1  2  1  0
  2  3  2  0
  3  4  1  0
  4  5  1  0
  4  6  2  0
  6  7  1  0
  7  8  2  0
  8  9  1  0
  8 10  1  0
 10 11  1  0
 10 12  2  0
 12 13  1  0
 12 14  1  0
 15 14  1  6
 15 16  1  0
 16 17  2  0
 17 18  1  0
 17 19  1  0
 19 20  1  0
 19 21  2  0
 21 22  1  0
 21 23  1  0
 23 24  1  0
 23 25  2  0
 25 26  1  0
 15 27  1  0
 27 28  2  0
 27 29  1  0
 29 30  1  0
 30 31  2  0
 30 32  1  0
 32 33  1  0
 33 34  1  0
 34 35  1  0
 34 36  2  0
 36 37  1  0
 36 38  1  0
 38 39  1  0
 29 40  1  0
 40 41  1  0
 41 42  1  0
 41 43  1  0
 40 44  2  0
 44 45  1  0
 14 46  2  0
 46 47  1  0
  6 48  1  0
 48 49  1  0
 48 50  2  0
 50 51  1  0
 50  2  1  0
 46  7  1  0
 44 15  1  0
 25 16  1  0
 38 32  2  0
M  CHG  1  44   1
M  END
>  <score>  (168) 
5.66546

$$$$

     RDKit          3D

 57 61  0  0  0  0  0  0  0  0999 V2000
   15.5679    5.3709   -1.3880 H   0  0  0  0  0  0  0  0  0  0  0  0
   15.5850    4.3016   -1.5970 C   0  0  0  0  0  0  0  0  0  0  0  0
   15.8195    3.8802   -2.8500 N   0  0  0  0  0  0  0  0  0  0  0  0
   15.8660    2.5521   -3.0878 C   0  0  0  0  0  0  0  0  0  0  0  0
   16.0472    2.2241   -4.1051 H   0  0  0  0  0  0  0  0  0  0  0  0
   15.6864    1.5706   -2.0968 C   0  0  0  0  0  0  0  0  0  0  0  0
   15.7730    0.1203   -2.4110 C   0  0  0  0  0  0  0  0  0  0  0  0
   16.3440   -0.3207   -3.6128 C   0  0  0  0  0  0  0  0  0  0  0  0
   16.7247    0.4091   -4.3194 H   0  0  0  0  0  0  0  0  0  0  0  0
   16.4330   -1.6879   -3.9105 C   0  0  0  0  0  0  0  0  0  0  0  0
   16.8654   -2.0062   -4.8538 H   0  0  0  0  0  0  0  0  0  0  0  0
   15.9488   -2.6437   -3.0083 C   0  0  0  0  0  0  0  0  0  0  0  0
   16.0040   -3.7020   -3.2562 H   0  0  0  0  0  0  0  0  0  0  0  0
   15.3861   -2.2400   -1.7875 C   0  0  0  0  0  0  0  0  0  0  0  0
   14.8220   -3.2447   -0.7874 C   0  0  2  0  0  0  0  0  0  0  0  0
   15.1756   -4.7143   -1.0752 C   0  0  0  0  0  0  0  0  0  0  0  0
   16.3922   -5.2383   -0.6080 C   0  0  0  0  0  0  0  0  0  0  0  0
   17.0690   -4.5862   -0.0642 H   0  0  0  0  0  0  0  0  0  0  0  0
   16.7310   -6.5814   -0.8031 C   0  0  0  0  0  0  0  0  0  0  0  0
   17.6727   -6.9570   -0.4161 H   0  0  0  0  0  0  0  0  0  0  0  0
   15.8543   -7.4382   -1.4726 C   0  0  0  0  0  0  0  0  0  0  0  0
   16.1193   -8.4844   -1.6120 H   0  0  0  0  0  0  0  0  0  0  0  0
   14.6430   -6.9379   -1.9605 C   0  0  0  0  0  0  0  0  0  0  0  0
   13.9708   -7.6088   -2.4878 H   0  0  0  0  0  0  0  0  0  0  0  0
   14.3046   -5.5867   -1.7670 C   0  0  0  0  0  0  0  0  0  0  0  0
   13.3544   -5.2277   -2.1522 H   0  0  0  0  0  0  0  0  0  0  0  0
   13.3088   -3.0036   -0.6204 C   0  0  0  0  0  0  0  0  0  0  0  0
   12.4826   -3.1298   -1.5307 O   0  0  0  0  0  0  0  0  0  0  0  0
   13.0226   -2.6244    0.6899 N   0  0  0  0  0  0  0  0  0  0  0  0
   11.7230   -2.7282    1.3262 N   0  0  0  0  0  0  0  0  0  0  0  0
   11.6277   -2.1606    2.1772 H   0  0  0  0  0  0  0  0  0  0  0  0
   11.3366   -4.1096    1.5980 C   0  0  0  0  0  0  0  0  0  0  0  0
   11.5785   -4.7310    0.7347 H   0  0  0  0  0  0  0  0  0  0  0  0
    9.8581   -4.2197    1.8873 C   0  0  0  0  0  0  0  0  0  0  0  0
    9.5112   -3.3244    2.4120 H   0  0  0  0  0  0  0  0  0  0  0  0
    9.2861   -4.3203    0.9604 H   0  0  0  0  0  0  0  0  0  0  0  0
    9.7120   -5.4492    2.7816 C   0  0  0  0  0  0  0  0  0  0  0  0
    9.3186   -6.2970    2.2110 H   0  0  0  0  0  0  0  0  0  0  0  0
    9.0224   -5.2389    3.6045 H   0  0  0  0  0  0  0  0  0  0  0  0
   11.1092   -5.7798    3.3097 C   0  0  0  0  0  0  0  0  0  0  0  0
   11.4426   -6.7423    2.9053 H   0  0  0  0  0  0  0  0  0  0  0  0
   11.1151   -5.8425    4.4010 H   0  0  0  0  0  0  0  0  0  0  0  0
   12.0277   -4.6634    2.8282 C   0  0  0  0  0  0  0  0  0  0  0  0
   13.0302   -5.0292    2.5960 H   0  0  0  0  0  0  0  0  0  0  0  0
   12.1219   -3.8870    3.5919 H   0  0  0  0  0  0  0  0  0  0  0  0
   14.2471   -2.6133    1.3555 C   0  0  0  0  0  0  0  0  0  0  0  0
   14.4282   -2.3550    2.6929 N   0  0  0  0  0  0  0  0  0  0  0  0
   13.6322   -2.0458    3.2465 H   0  0  0  0  0  0  0  0  0  0  0  0
   15.3629   -2.3853    3.1038 H   0  0  0  0  0  0  0  0  0  0  0  0
   15.2462   -2.8955    0.5855 N   0  0  0  0  0  4  0  0  0  0  0  0
   16.2181   -2.9237    0.9010 H   0  0  0  0  0  0  0  0  0  0  0  0
   15.3027   -0.8559   -1.5145 C   0  0  0  0  0  0  0  0  0  0  0  0
   14.8674   -0.5288   -0.5767 H   0  0  0  0  0  0  0  0  0  0  0  0
   15.4346    2.0235   -0.7982 C   0  0  0  0  0  0  0  0  0  0  0  0
   15.3008    1.3054    0.0022 H   0  0  0  0  0  0  0  0  0  0  0  0
   15.3736    3.4002   -0.5510 C   0  0  0  0  0  0  0  0  0  0  0  0
   15.1684    3.7869    0.4421 H   0  0  0  0  0  0  0  0  0  0  0  0
  1  2  1  0
  2  3  2  0
  3  4  1  0
  4  5  1  0
  4  6  2  0
  6  7  1  0
  7  8  2  0
  8  9  1  0
  8 10  1  0
 10 11  1  0
 10 12  2  0
 12 13  1  0
 12 14  1  0
 15 14  1  6
 15 16  1  0
 16 17  2  0
 17 18  1  0
 17 19  1  0
 19 20  1  0
 19 21  2  0
 21 22  1  0
 21 23  1  0
 23 24  1  0
 23 25  2  0
 25 26  1  0
 15 27  1  0
 27 28  2  0
 27 29  1  0
 29 30  1  0
 30 31  1  0
 30 32  1  0
 32 33  1  0
 32 34  1  0
 34 35  1  0
 34 36  1  0
 34 37  1  0
 37 38  1  0
 37 39  1  0
 37 40  1  0
 40 41  1  0
 40 42  1  0
 40 43  1  0
 43 44  1  0
 43 45  1  0
 29 46  1  0
 46 47  1  0
 47 48  1  0
 47 49  1  0
 46 50  2  0
 50 51  1  0
 14 52  2  0
 52 53  1  0
  6 54  1  0
 54 55  1  0
 54 56  2  0
 56 57  1  0
 56  2  1  0
 52  7  1  0
 50 15  1  0
 25 16  1  0
 43 32  1  0
M  CHG  1  50   1
M  END
>  <score>  (169) 
5.66526

$$$$

     RDKit          3D

 58 61  0  0  0  0  0  0  0  0999 V2000
   15.5575    5.3384   -1.4291 H   0  0  0  0  0  0  0  0  0  0  0  0
   15.6209    4.2688   -1.6087 C   0  0  0  0  0  0  0  0  0  0  0  0
   15.8614    3.8300   -2.8538 N   0  0  0  0  0  0  0  0  0  0  0  0
   15.9332    2.5012   -3.0620 C   0  0  0  0  0  0  0  0  0  0  0  0
   16.1184    2.1525   -4.0728 H   0  0  0  0  0  0  0  0  0  0  0  0
   15.7643    1.5471   -2.0446 C   0  0  0  0  0  0  0  0  0  0  0  0
   15.8136    0.0977   -2.3333 C   0  0  0  0  0  0  0  0  0  0  0  0
   16.3244   -0.3897   -3.5479 C   0  0  0  0  0  0  0  0  0  0  0  0
   16.6987    0.3068   -4.2910 H   0  0  0  0  0  0  0  0  0  0  0  0
   16.3507   -1.7653   -3.8108 C   0  0  0  0  0  0  0  0  0  0  0  0
   16.7371   -2.1364   -4.7555 H   0  0  0  0  0  0  0  0  0  0  0  0
   15.8667   -2.6677   -2.8593 C   0  0  0  0  0  0  0  0  0  0  0  0
   15.8931   -3.7339   -3.0688 H   0  0  0  0  0  0  0  0  0  0  0  0
   15.3416   -2.2118   -1.6374 C   0  0  0  0  0  0  0  0  0  0  0  0
   14.7447   -3.1778   -0.6201 C   0  0  2  0  0  0  0  0  0  0  0  0
   15.1370   -4.6191   -0.9242 C   0  0  0  0  0  0  0  0  0  0  0  0
   16.3772   -5.1396   -0.5168 C   0  0  0  0  0  0  0  0  0  0  0  0
   17.0721   -4.5065    0.0283 H   0  0  0  0  0  0  0  0  0  0  0  0
   16.7254   -6.4646   -0.8077 C   0  0  0  0  0  0  0  0  0  0  0  0
   17.6819   -6.8563   -0.4743 H   0  0  0  0  0  0  0  0  0  0  0  0
   15.8407   -7.2819   -1.5195 C   0  0  0  0  0  0  0  0  0  0  0  0
   16.1014   -8.3143   -1.7327 H   0  0  0  0  0  0  0  0  0  0  0  0
   14.6194   -6.7641   -1.9598 C   0  0  0  0  0  0  0  0  0  0  0  0
   13.9337   -7.3888   -2.5232 H   0  0  0  0  0  0  0  0  0  0  0  0
   14.2758   -5.4403   -1.6706 C   0  0  0  0  0  0  0  0  0  0  0  0
   13.3300   -5.0461   -2.0297 H   0  0  0  0  0  0  0  0  0  0  0  0
   13.2178   -2.9857   -0.5094 C   0  0  0  0  0  0  0  0  0  0  0  0
   12.3598   -3.2362   -1.3537 O   0  0  0  0  0  0  0  0  0  0  0  0
   12.9024   -2.6482    0.7692 N   0  0  0  0  0  0  0  0  0  0  0  0
   11.6164   -2.7168    1.1950 C   0  0  0  0  0  0  0  0  0  0  0  0
   10.7252   -2.4560    0.4099 O   0  0  0  0  0  0  0  0  0  0  0  0
   11.3489   -3.2304    2.4232 N   0  0  0  0  0  0  0  0  0  0  0  0
   12.1416   -3.4570    3.0108 H   0  0  0  0  0  0  0  0  0  0  0  0
   10.0118   -3.4705    2.9157 C   0  0  0  0  0  0  0  0  0  0  0  0
    9.4136   -2.1232    3.2989 C   0  0  0  0  0  0  0  0  0  0  0  0
    8.3891   -2.2435    3.6557 H   0  0  0  0  0  0  0  0  0  0  0  0
   10.0172   -1.6573    4.0843 H   0  0  0  0  0  0  0  0  0  0  0  0
    9.3932   -1.4627    2.4253 H   0  0  0  0  0  0  0  0  0  0  0  0
    9.1246   -4.1581    1.8748 C   0  0  0  0  0  0  0  0  0  0  0  0
    9.0696   -3.5633    0.9570 H   0  0  0  0  0  0  0  0  0  0  0  0
    8.1118   -4.2871    2.2743 H   0  0  0  0  0  0  0  0  0  0  0  0
    9.5309   -5.1449    1.6307 H   0  0  0  0  0  0  0  0  0  0  0  0
   10.1755   -4.4098    4.0949 C   0  0  0  0  0  0  0  0  0  0  0  0
    9.2151   -4.5823    4.5904 H   0  0  0  0  0  0  0  0  0  0  0  0
   10.8901   -3.9931    4.8118 H   0  0  0  0  0  0  0  0  0  0  0  0
   10.5664   -5.3671    3.7347 H   0  0  0  0  0  0  0  0  0  0  0  0
   14.0369   -2.6489    1.5158 C   0  0  0  0  0  0  0  0  0  0  0  0
   14.1500   -2.4844    2.8618 N   0  0  0  0  0  0  0  0  0  0  0  0
   13.3610   -2.0762    3.3570 H   0  0  0  0  0  0  0  0  0  0  0  0
   15.0893   -2.2880    3.2110 H   0  0  0  0  0  0  0  0  0  0  0  0
   15.0835   -2.8415    0.7815 N   0  0  0  0  0  4  0  0  0  0  0  0
   16.0207   -2.9600    1.1672 H   0  0  0  0  0  0  0  0  0  0  0  0
   15.3188   -0.8277   -1.3993 C   0  0  0  0  0  0  0  0  0  0  0  0
   14.8921   -0.4579   -0.4729 H   0  0  0  0  0  0  0  0  0  0  0  0
   15.5359    2.0171   -0.7467 C   0  0  0  0  0  0  0  0  0  0  0  0
   15.4311    1.3154    0.0758 H   0  0  0  0  0  0  0  0  0  0  0  0
   15.4585    3.3938   -0.5336 C   0  0  0  0  0  0  0  0  0  0  0  0
   15.2775    3.7980    0.4556 H   0  0  0  0  0  0  0  0  0  0  0  0
  1  2  1  0
  2  3  2  0
  3  4  1  0
  4  5  1  0
  4  6  2  0
  6  7  1  0
  7  8  2  0
  8  9  1  0
  8 10  1  0
 10 11  1  0
 10 12  2  0
 12 13  1  0
 12 14  1  0
 15 14  1  6
 15 16  1  0
 16 17  2  0
 17 18  1  0
 17 19  1  0
 19 20  1  0
 19 21  2  0
 21 22  1  0
 21 23  1  0
 23 24  1  0
 23 25  2  0
 25 26  1  0
 15 27  1  0
 27 28  2  0
 27 29  1  0
 29 30  1  0
 30 31  2  0
 30 32  1  0
 32 33  1  0
 32 34  1  0
 34 35  1  0
 35 36  1  0
 35 37  1  0
 35 38  1  0
 34 39  1  0
 39 40  1  0
 39 41  1  0
 39 42  1  0
 34 43  1  0
 43 44  1  0
 43 45  1  0
 43 46  1  0
 29 47  1  0
 47 48  1  0
 48 49  1  0
 48 50  1  0
 47 51  2  0
 51 52  1  0
 14 53  2  0
 53 54  1  0
  6 55  1  0
 55 56  1  0
 55 57  2  0
 57 58  1  0
 57  2  1  0
 53  7  1  0
 51 15  1  0
 25 16  1  0
M  CHG  1  51   1
M  END
>  <score>  (170) 
5.6636

$$$$

     RDKit          3D

 46 49  0  0  0  0  0  0  0  0999 V2000
   15.5446    5.3369   -1.4013 H   0  0  0  0  0  0  0  0  0  0  0  0
   15.5876    4.2727   -1.6086 C   0  0  0  0  0  0  0  0  0  0  0  0
   15.8294    3.8615   -2.8620 N   0  0  0  0  0  0  0  0  0  0  0  0
   15.8843    2.5363   -3.0969 C   0  0  0  0  0  0  0  0  0  0  0  0
   16.0815    2.1966   -4.1095 H   0  0  0  0  0  0  0  0  0  0  0  0
   15.6997    1.5662   -2.0966 C   0  0  0  0  0  0  0  0  0  0  0  0
   15.7764    0.1213   -2.4013 C   0  0  0  0  0  0  0  0  0  0  0  0
   16.3278   -0.3160   -3.6097 C   0  0  0  0  0  0  0  0  0  0  0  0
   16.7052    0.4313   -4.3001 H   0  0  0  0  0  0  0  0  0  0  0  0
   16.4140   -1.6812   -3.9082 C   0  0  0  0  0  0  0  0  0  0  0  0
   16.8655   -2.0002   -4.8418 H   0  0  0  0  0  0  0  0  0  0  0  0
   15.9404   -2.6303   -2.9933 C   0  0  0  0  0  0  0  0  0  0  0  0
   16.0043   -3.6887   -3.2284 H   0  0  0  0  0  0  0  0  0  0  0  0
   15.3871   -2.2312   -1.7658 C   0  0  0  0  0  0  0  0  0  0  0  0
   14.8305   -3.2496   -0.7656 C   0  0  2  0  0  0  0  0  0  0  0  0
   15.1959   -4.7010   -1.0739 C   0  0  0  0  0  0  0  0  0  0  0  0
   16.4112   -5.2263   -0.6081 C   0  0  0  0  0  0  0  0  0  0  0  0
   17.0867   -4.5781   -0.0579 H   0  0  0  0  0  0  0  0  0  0  0  0
   16.7431   -6.5722   -0.8011 C   0  0  0  0  0  0  0  0  0  0  0  0
   17.6798   -6.9625   -0.4105 H   0  0  0  0  0  0  0  0  0  0  0  0
   15.8611   -7.4141   -1.4853 C   0  0  0  0  0  0  0  0  0  0  0  0
   16.1023   -8.4645   -1.6182 H   0  0  0  0  0  0  0  0  0  0  0  0
   14.6502   -6.9100   -1.9719 C   0  0  0  0  0  0  0  0  0  0  0  0
   13.9573   -7.5709   -2.4876 H   0  0  0  0  0  0  0  0  0  0  0  0
   14.3203   -5.5605   -1.7669 C   0  0  0  0  0  0  0  0  0  0  0  0
   13.3663   -5.1827   -2.1217 H   0  0  0  0  0  0  0  0  0  0  0  0
   13.3072   -3.0665   -0.5872 C   0  0  0  0  0  0  0  0  0  0  0  0
   12.4441   -3.1010   -1.4615 O   0  0  0  0  0  0  0  0  0  0  0  0
   13.0299   -2.7363    0.7264 N   0  0  0  0  0  0  0  0  0  0  0  0
   11.7707   -2.1405    1.1920 C   0  0  0  0  0  0  0  0  0  0  0  0
   10.9292   -2.5890    0.6561 H   0  0  0  0  0  0  0  0  0  0  0  0
   11.6156   -2.3637    2.2580 H   0  0  0  0  0  0  0  0  0  0  0  0
   11.7005   -0.6893    0.9196 C   0  0  0  0  0  0  0  0  0  0  0  0
   11.5835    0.4391    0.6493 N   0  0  0  0  0  0  0  0  0  0  0  0
   14.2489   -2.6471    1.3714 C   0  0  0  0  0  0  0  0  0  0  0  0
   14.4188   -2.2661    2.6645 N   0  0  0  0  0  0  0  0  0  0  0  0
   15.3471   -2.3306    3.0785 H   0  0  0  0  0  0  0  0  0  0  0  0
   13.6027   -2.1282    3.2559 H   0  0  0  0  0  0  0  0  0  0  0  0
   15.2586   -2.9297    0.6133 N   0  0  0  0  0  4  0  0  0  0  0  0
   16.2328   -2.9555    0.9318 H   0  0  0  0  0  0  0  0  0  0  0  0
   15.3077   -0.8469   -1.4938 C   0  0  0  0  0  0  0  0  0  0  0  0
   14.8618   -0.5052   -0.5645 H   0  0  0  0  0  0  0  0  0  0  0  0
   15.4511    2.0061   -0.7988 C   0  0  0  0  0  0  0  0  0  0  0  0
   15.3473    1.2659   -0.0115 H   0  0  0  0  0  0  0  0  0  0  0  0
   15.3860    3.3772   -0.5590 C   0  0  0  0  0  0  0  0  0  0  0  0
   15.1894    3.7593    0.4331 H   0  0  0  0  0  0  0  0  0  0  0  0
  1  2  1  0
  2  3  2  0
  3  4  1  0
  4  5  1  0
  4  6  2  0
  6  7  1  0
  7  8  2  0
  8  9  1  0
  8 10  1  0
 10 11  1  0
 10 12  2  0
 12 13  1  0
 12 14  1  0
 15 14  1  6
 15 16  1  0
 16 17  2  0
 17 18  1  0
 17 19  1  0
 19 20  1  0
 19 21  2  0
 21 22  1  0
 21 23  1  0
 23 24  1  0
 23 25  2  0
 25 26  1  0
 15 27  1  0
 27 28  2  0
 27 29  1  0
 29 30  1  0
 30 31  1  0
 30 32  1  0
 30 33  1  0
 33 34  3  0
 29 35  1  0
 35 36  1  0
 36 37  1  0
 36 38  1  0
 35 39  2  0
 39 40  1  0
 14 41  2  0
 41 42  1  0
  6 43  1  0
 43 44  1  0
 43 45  2  0
 45 46  1  0
 45  2  1  0
 41  7  1  0
 39 15  1  0
 25 16  1  0
M  CHG  1  39   1
M  END
>  <score>  (171) 
5.66298

$$$$

     RDKit          3D

 53 57  0  0  0  0  0  0  0  0999 V2000
   10.2864   -3.1215    4.0827 H   0  0  0  0  0  0  0  0  0  0  0  0
   10.4235   -2.8419    3.0409 C   0  0  0  0  0  0  0  0  0  0  0  0
   11.6270   -2.9370    2.4941 N   0  0  0  0  0  0  0  0  0  0  0  0
   11.7643   -2.5740    1.2351 C   0  0  0  0  0  0  0  0  0  0  0  0
   13.0005   -2.6842    0.7158 N   0  0  0  0  0  0  0  0  0  0  0  0
   13.2321   -3.0244   -0.5788 C   0  0  0  0  0  0  0  0  0  0  0  0
   12.3222   -3.1600   -1.3985 O   0  0  0  0  0  0  0  0  0  0  0  0
   14.7616   -3.2283   -0.7439 C   0  0  1  0  0  0  0  0  0  0  0  0
   15.1493   -4.6802   -1.0448 C   0  0  0  0  0  0  0  0  0  0  0  0
   16.3768   -5.1982   -0.5913 C   0  0  0  0  0  0  0  0  0  0  0  0
   17.0578   -4.5486   -0.0487 H   0  0  0  0  0  0  0  0  0  0  0  0
   16.7196   -6.5396   -0.7937 C   0  0  0  0  0  0  0  0  0  0  0  0
   17.6684   -6.9170   -0.4185 H   0  0  0  0  0  0  0  0  0  0  0  0
   15.8434   -7.3854   -1.4781 C   0  0  0  0  0  0  0  0  0  0  0  0
   16.1076   -8.4280   -1.6253 H   0  0  0  0  0  0  0  0  0  0  0  0
   14.6310   -6.8843   -1.9654 C   0  0  0  0  0  0  0  0  0  0  0  0
   13.9565   -7.5502   -2.4967 H   0  0  0  0  0  0  0  0  0  0  0  0
   14.2855   -5.5417   -1.7491 C   0  0  0  0  0  0  0  0  0  0  0  0
   13.3319   -5.1774   -2.1209 H   0  0  0  0  0  0  0  0  0  0  0  0
   15.3430   -2.2218   -1.7409 C   0  0  0  0  0  0  0  0  0  0  0  0
   15.9034   -2.6263   -2.9660 C   0  0  0  0  0  0  0  0  0  0  0  0
   15.9739   -3.6841   -3.1988 H   0  0  0  0  0  0  0  0  0  0  0  0
   16.3951   -1.6867   -3.8831 C   0  0  0  0  0  0  0  0  0  0  0  0
   16.8561   -2.0151   -4.8119 H   0  0  0  0  0  0  0  0  0  0  0  0
   16.3258   -0.3224   -3.5927 C   0  0  0  0  0  0  0  0  0  0  0  0
   16.7070    0.4034   -4.3046 H   0  0  0  0  0  0  0  0  0  0  0  0
   15.7676    0.1200   -2.3875 C   0  0  0  0  0  0  0  0  0  0  0  0
   15.7048    1.5614   -2.0932 C   0  0  0  0  0  0  0  0  0  0  0  0
   15.8920    2.5293   -3.0972 C   0  0  0  0  0  0  0  0  0  0  0  0
   16.0863    2.2012   -4.1151 H   0  0  0  0  0  0  0  0  0  0  0  0
   15.8389    3.8535   -2.8621 N   0  0  0  0  0  0  0  0  0  0  0  0
   15.5843    4.2650   -1.6113 C   0  0  0  0  0  0  0  0  0  0  0  0
   15.5389    5.3303   -1.4105 H   0  0  0  0  0  0  0  0  0  0  0  0
   15.3900    3.3715   -0.5579 C   0  0  0  0  0  0  0  0  0  0  0  0
   15.2003    3.7493    0.4378 H   0  0  0  0  0  0  0  0  0  0  0  0
   15.4642    2.0029   -0.7942 C   0  0  0  0  0  0  0  0  0  0  0  0
   15.3498    1.2797    0.0067 H   0  0  0  0  0  0  0  0  0  0  0  0
   15.2784   -0.8382   -1.4788 C   0  0  0  0  0  0  0  0  0  0  0  0
   14.8414   -0.4885   -0.5484 H   0  0  0  0  0  0  0  0  0  0  0  0
   15.1752   -2.9057    0.6423 N   0  0  0  0  0  4  0  0  0  0  0  0
   16.1425   -2.9696    0.9720 H   0  0  0  0  0  0  0  0  0  0  0  0
   14.1683   -2.6725    1.4162 C   0  0  0  0  0  0  0  0  0  0  0  0
   14.3288   -2.4298    2.7522 N   0  0  0  0  0  0  0  0  0  0  0  0
   13.5490   -2.0294    3.2718 H   0  0  0  0  0  0  0  0  0  0  0  0
   15.2750   -2.2844    3.0978 H   0  0  0  0  0  0  0  0  0  0  0  0
   10.7717   -2.1581    0.4403 N   0  0  0  0  0  0  0  0  0  0  0  0
    9.5309   -2.0371    0.9495 C   0  0  0  0  0  0  0  0  0  0  0  0
    8.3337   -1.5201    0.0987 C   0  0  0  0  0  0  0  0  0  0  0  0
    7.7865   -0.4141    0.6791 F   0  0  0  0  0  0  0  0  0  0  0  0
    7.3565   -2.4696    0.0281 F   0  0  0  0  0  0  0  0  0  0  0  0
    8.6648   -1.1827   -1.1824 F   0  0  0  0  0  0  0  0  0  0  0  0
    9.3417   -2.3950    2.2956 C   0  0  0  0  0  0  0  0  0  0  0  0
    8.3742   -2.3292    2.7758 H   0  0  0  0  0  0  0  0  0  0  0  0
  1  2  1  0
  2  3  2  0
  3  4  1  0
  4  5  1  0
  5  6  1  0
  6  7  2  0
  6  8  1  0
  8  9  1  6
  9 10  2  0
 10 11  1  0
 10 12  1  0
 12 13  1  0
 12 14  2  0
 14 15  1  0
 14 16  1  0
 16 17  1  0
 16 18  2  0
 18 19  1  0
  8 20  1  0
 20 21  2  0
 21 22  1  0
 21 23  1  0
 23 24  1  0
 23 25  2  0
 25 26  1  0
 25 27  1  0
 27 28  1  0
 28 29  2  0
 29 30  1  0
 29 31  1  0
 31 32  2  0
 32 33  1  0
 32 34  1  0
 34 35  1  0
 34 36  2  0
 36 37  1  0
 27 38  2  0
 38 39  1  0
  8 40  1  0
 40 41  1  0
 40 42  2  0
 42 43  1  0
 43 44  1  0
 43 45  1  0
  4 46  2  0
 46 47  1  0
 47 48  1  0
 48 49  1  0
 48 50  1  0
 48 51  1  0
 47 52  2  0
 52 53  1  0
 52  2  1  0
 42  5  1  0
 18  9  1  0
 38 20  1  0
 36 28  1  0
M  CHG  1  40   1
M  END
>  <score>  (172) 
5.65874

$$$$

     RDKit          3D

 55 59  0  0  0  0  0  0  0  0999 V2000
   15.5373    5.3285   -1.4061 H   0  0  0  0  0  0  0  0  0  0  0  0
   15.5878    4.2650   -1.6134 C   0  0  0  0  0  0  0  0  0  0  0  0
   15.8326    3.8566   -2.8680 N   0  0  0  0  0  0  0  0  0  0  0  0
   15.8926    2.5319   -3.1000 C   0  0  0  0  0  0  0  0  0  0  0  0
   16.0920    2.1897   -4.1110 H   0  0  0  0  0  0  0  0  0  0  0  0
   15.7063    1.5644   -2.0988 C   0  0  0  0  0  0  0  0  0  0  0  0
   15.7780    0.1252   -2.4022 C   0  0  0  0  0  0  0  0  0  0  0  0
   16.3223   -0.3110   -3.6122 C   0  0  0  0  0  0  0  0  0  0  0  0
   16.7031    0.4361   -4.3006 H   0  0  0  0  0  0  0  0  0  0  0  0
   16.4068   -1.6766   -3.9085 C   0  0  0  0  0  0  0  0  0  0  0  0
   16.8646   -2.0002   -4.8379 H   0  0  0  0  0  0  0  0  0  0  0  0
   15.9291   -2.6219   -2.9916 C   0  0  0  0  0  0  0  0  0  0  0  0
   15.9977   -3.6819   -3.2192 H   0  0  0  0  0  0  0  0  0  0  0  0
   15.3755   -2.2179   -1.7672 C   0  0  0  0  0  0  0  0  0  0  0  0
   14.8279   -3.2308   -0.7637 C   0  0  2  0  0  0  0  0  0  0  0  0
   15.1976   -4.6857   -1.0616 C   0  0  0  0  0  0  0  0  0  0  0  0
   16.4124   -5.2134   -0.5973 C   0  0  0  0  0  0  0  0  0  0  0  0
   17.0937   -4.5664   -0.0521 H   0  0  0  0  0  0  0  0  0  0  0  0
   16.7429   -6.5596   -0.7978 C   0  0  0  0  0  0  0  0  0  0  0  0
   17.6783   -6.9562   -0.4104 H   0  0  0  0  0  0  0  0  0  0  0  0
   15.8591   -7.3991   -1.4835 C   0  0  0  0  0  0  0  0  0  0  0  0
   16.0957   -8.4499   -1.6199 H   0  0  0  0  0  0  0  0  0  0  0  0
   14.6490   -6.8914   -1.9678 C   0  0  0  0  0  0  0  0  0  0  0  0
   13.9528   -7.5496   -2.4822 H   0  0  0  0  0  0  0  0  0  0  0  0
   14.3218   -5.5432   -1.7563 C   0  0  0  0  0  0  0  0  0  0  0  0
   13.3679   -5.1625   -2.1070 H   0  0  0  0  0  0  0  0  0  0  0  0
   13.3012   -3.0561   -0.5969 C   0  0  0  0  0  0  0  0  0  0  0  0
   12.4179   -3.2452   -1.4384 O   0  0  0  0  0  0  0  0  0  0  0  0
   13.0364   -2.6487    0.6916 N   0  0  0  0  0  0  0  0  0  0  0  0
   11.7290   -2.7591    1.3296 C   0  0  0  0  0  0  0  0  0  0  0  0
   10.9187   -2.5598    0.6197 H   0  0  0  0  0  0  0  0  0  0  0  0
   11.6314   -2.0457    2.1602 H   0  0  0  0  0  0  0  0  0  0  0  0
   11.5736   -4.1545    1.8365 C   0  0  0  0  0  0  0  0  0  0  0  0
   11.5996   -4.3671    3.2174 C   0  0  0  0  0  0  0  0  0  0  0  0
   11.7294   -3.5274    3.8958 H   0  0  0  0  0  0  0  0  0  0  0  0
   11.4813   -5.6544    3.7271 C   0  0  0  0  0  0  0  0  0  0  0  0
   11.4876   -5.7754    4.8091 H   0  0  0  0  0  0  0  0  0  0  0  0
   11.3772   -6.7411    2.8416 C   0  0  0  0  0  0  0  0  0  0  0  0
   11.3299   -7.7634    3.1943 H   0  0  0  0  0  0  0  0  0  0  0  0
   11.3451   -6.5406    1.4621 C   0  0  0  0  0  0  0  0  0  0  0  0
   11.1967   -7.9135    0.3946 Cl  0  0  0  0  0  0  0  0  0  0  0  0
   11.4308   -5.2423    0.9549 C   0  0  0  0  0  0  0  0  0  0  0  0
   11.4119   -5.0946   -0.1228 H   0  0  0  0  0  0  0  0  0  0  0  0
   14.2419   -2.6260    1.3683 C   0  0  0  0  0  0  0  0  0  0  0  0
   14.3998   -2.4035    2.7025 N   0  0  0  0  0  0  0  0  0  0  0  0
   15.3482   -2.3113    3.0686 H   0  0  0  0  0  0  0  0  0  0  0  0
   13.6060   -2.0929    3.2592 H   0  0  0  0  0  0  0  0  0  0  0  0
   15.2568   -2.8816    0.6096 N   0  0  0  0  0  4  0  0  0  0  0  0
   16.2186   -2.9866    0.9570 H   0  0  0  0  0  0  0  0  0  0  0  0
   15.3051   -0.8358   -1.4932 C   0  0  0  0  0  0  0  0  0  0  0  0
   14.8625   -0.4916   -0.5629 H   0  0  0  0  0  0  0  0  0  0  0  0
   15.4610    1.9991   -0.8004 C   0  0  0  0  0  0  0  0  0  0  0  0
   15.3645    1.2572   -0.0123 H   0  0  0  0  0  0  0  0  0  0  0  0
   15.3919    3.3697   -0.5601 C   0  0  0  0  0  0  0  0  0  0  0  0
   15.1986    3.7519    0.4333 H   0  0  0  0  0  0  0  0  0  0  0  0
  1  2  1  0
  2  3  2  0
  3  4  1  0
  4  5  1  0
  4  6  2  0
  6  7  1  0
  7  8  2  0
  8  9  1  0
  8 10  1  0
 10 11  1  0
 10 12  2  0
 12 13  1  0
 12 14  1  0
 15 14  1  6
 15 16  1  0
 16 17  2  0
 17 18  1  0
 17 19  1  0
 19 20  1  0
 19 21  2  0
 21 22  1  0
 21 23  1  0
 23 24  1  0
 23 25  2  0
 25 26  1  0
 15 27  1  0
 27 28  2  0
 27 29  1  0
 29 30  1  0
 30 31  1  0
 30 32  1  0
 30 33  1  0
 33 34  2  0
 34 35  1  0
 34 36  1  0
 36 37  1  0
 36 38  2  0
 38 39  1  0
 38 40  1  0
 40 41  1  0
 40 42  2  0
 42 43  1  0
 29 44  1  0
 44 45  1  0
 45 46  1  0
 45 47  1  0
 44 48  2  0
 48 49  1  0
 14 50  2  0
 50 51  1  0
  6 52  1  0
 52 53  1  0
 52 54  2  0
 54 55  1  0
 54  2  1  0
 50  7  1  0
 48 15  1  0
 25 16  1  0
 42 33  1  0
M  CHG  1  48   1
M  END
>  <score>  (173) 
5.65865

$$$$

     RDKit          3D

 51 55  0  0  0  0  0  0  0  0999 V2000
   15.5702    5.3722   -1.3880 H   0  0  0  0  0  0  0  0  0  0  0  0
   15.5843    4.3033   -1.5950 C   0  0  0  0  0  0  0  0  0  0  0  0
   15.8200    3.8811   -2.8470 N   0  0  0  0  0  0  0  0  0  0  0  0
   15.8632    2.5538   -3.0871 C   0  0  0  0  0  0  0  0  0  0  0  0
   16.0433    2.2292   -4.1064 H   0  0  0  0  0  0  0  0  0  0  0  0
   15.6847    1.5715   -2.0954 C   0  0  0  0  0  0  0  0  0  0  0  0
   15.7729    0.1191   -2.4105 C   0  0  0  0  0  0  0  0  0  0  0  0
   16.3477   -0.3223   -3.6122 C   0  0  0  0  0  0  0  0  0  0  0  0
   16.7274    0.4040   -4.3240 H   0  0  0  0  0  0  0  0  0  0  0  0
   16.4318   -1.6903   -3.9090 C   0  0  0  0  0  0  0  0  0  0  0  0
   16.8655   -2.0083   -4.8529 H   0  0  0  0  0  0  0  0  0  0  0  0
   15.9451   -2.6453   -3.0055 C   0  0  0  0  0  0  0  0  0  0  0  0
   16.0050   -3.7010   -3.2602 H   0  0  0  0  0  0  0  0  0  0  0  0
   15.3797   -2.2428   -1.7822 C   0  0  0  0  0  0  0  0  0  0  0  0
   14.8012   -3.2441   -0.7827 C   0  0  2  0  0  0  0  0  0  0  0  0
   15.1642   -4.7134   -1.0699 C   0  0  0  0  0  0  0  0  0  0  0  0
   16.3864   -5.2372   -0.6088 C   0  0  0  0  0  0  0  0  0  0  0  0
   17.0672   -4.5888   -0.0656 H   0  0  0  0  0  0  0  0  0  0  0  0
   16.7283   -6.5812   -0.8022 C   0  0  0  0  0  0  0  0  0  0  0  0
   17.6726   -6.9557   -0.4176 H   0  0  0  0  0  0  0  0  0  0  0  0
   15.8538   -7.4406   -1.4717 C   0  0  0  0  0  0  0  0  0  0  0  0
   16.1218   -8.4862   -1.6114 H   0  0  0  0  0  0  0  0  0  0  0  0
   14.6427   -6.9400   -1.9610 C   0  0  0  0  0  0  0  0  0  0  0  0
   13.9725   -7.6134   -2.4882 H   0  0  0  0  0  0  0  0  0  0  0  0
   14.3006   -5.5890   -1.7666 C   0  0  0  0  0  0  0  0  0  0  0  0
   13.3520   -5.2350   -2.1588 H   0  0  0  0  0  0  0  0  0  0  0  0
   13.2865   -2.9902   -0.6081 C   0  0  0  0  0  0  0  0  0  0  0  0
   12.4365   -3.0926   -1.4930 O   0  0  0  0  0  0  0  0  0  0  0  0
   12.9931   -2.6736    0.7117 N   0  0  0  0  0  0  0  0  0  0  0  0
   11.7061   -2.4881    1.2775 C   0  0  0  0  0  0  0  0  0  0  0  0
   11.2737   -3.1943    2.4307 C   0  0  0  0  0  0  0  0  0  0  0  0
   11.9658   -3.8994    2.8688 H   0  0  0  0  0  0  0  0  0  0  0  0
   10.0460   -3.0749    2.9702 N   0  0  0  0  0  0  0  0  0  0  0  0
    9.2181   -2.1981    2.3803 C   0  0  0  0  0  0  0  0  0  0  0  0
    8.2290   -2.0781    2.7983 H   0  0  0  0  0  0  0  0  0  0  0  0
    9.5546   -1.4352    1.2487 C   0  0  0  0  0  0  0  0  0  0  0  0
    8.6570   -0.5740    0.7137 F   0  0  0  0  0  0  0  0  0  0  0  0
   10.8195   -1.5885    0.6772 C   0  0  0  0  0  0  0  0  0  0  0  0
   11.1161   -1.0017   -0.1938 H   0  0  0  0  0  0  0  0  0  0  0  0
   14.2091   -2.6448    1.3711 C   0  0  0  0  0  0  0  0  0  0  0  0
   14.4001   -2.3515    2.6948 N   0  0  0  0  0  0  0  0  0  0  0  0
   15.3380   -2.3850    3.0959 H   0  0  0  0  0  0  0  0  0  0  0  0
   13.6081   -2.0316    3.2505 H   0  0  0  0  0  0  0  0  0  0  0  0
   15.2110   -2.9075    0.5971 N   0  0  0  0  0  4  0  0  0  0  0  0
   16.1838   -2.9098    0.9038 H   0  0  0  0  0  0  0  0  0  0  0  0
   15.3001   -0.8582   -1.5145 C   0  0  0  0  0  0  0  0  0  0  0  0
   14.8680   -0.5296   -0.5763 H   0  0  0  0  0  0  0  0  0  0  0  0
   15.4320    2.0266   -0.7965 C   0  0  0  0  0  0  0  0  0  0  0  0
   15.2945    1.3134    0.0074 H   0  0  0  0  0  0  0  0  0  0  0  0
   15.3707    3.4025   -0.5504 C   0  0  0  0  0  0  0  0  0  0  0  0
   15.1676    3.7878    0.4427 H   0  0  0  0  0  0  0  0  0  0  0  0
  1  2  1  0
  2  3  2  0
  3  4  1  0
  4  5  1  0
  4  6  2  0
  6  7  1  0
  7  8  2  0
  8  9  1  0
  8 10  1  0
 10 11  1  0
 10 12  2  0
 12 13  1  0
 12 14  1  0
 15 14  1  6
 15 16  1  0
 16 17  2  0
 17 18  1  0
 17 19  1  0
 19 20  1  0
 19 21  2  0
 21 22  1  0
 21 23  1  0
 23 24  1  0
 23 25  2  0
 25 26  1  0
 15 27  1  0
 27 28  2  0
 27 29  1  0
 29 30  1  0
 30 31  2  0
 31 32  1  0
 31 33  1  0
 33 34  2  0
 34 35  1  0
 34 36  1  0
 36 37  1  0
 36 38  2  0
 38 39  1  0
 29 40  1  0
 40 41  1  0
 41 42  1  0
 41 43  1  0
 40 44  2  0
 44 45  1  0
 14 46  2  0
 46 47  1  0
  6 48  1  0
 48 49  1  0
 48 50  2  0
 50 51  1  0
 50  2  1  0
 46  7  1  0
 44 15  1  0
 25 16  1  0
 38 30  1  0
M  CHG  1  44   1
M  END
>  <score>  (174) 
5.65831

$$$$

     RDKit          3D

 59 63  0  0  0  0  0  0  0  0999 V2000
   15.5632    5.3638   -1.3902 H   0  0  0  0  0  0  0  0  0  0  0  0
   15.5866    4.2955   -1.5996 C   0  0  0  0  0  0  0  0  0  0  0  0
   15.8204    3.8757   -2.8533 N   0  0  0  0  0  0  0  0  0  0  0  0
   15.8704    2.5485   -3.0890 C   0  0  0  0  0  0  0  0  0  0  0  0
   16.0538    2.2174   -4.1055 H   0  0  0  0  0  0  0  0  0  0  0  0
   15.6897    1.5700   -2.0958 C   0  0  0  0  0  0  0  0  0  0  0  0
   15.7727    0.1189   -2.4072 C   0  0  0  0  0  0  0  0  0  0  0  0
   16.3378   -0.3221   -3.6124 C   0  0  0  0  0  0  0  0  0  0  0  0
   16.7217    0.4122   -4.3137 H   0  0  0  0  0  0  0  0  0  0  0  0
   16.4257   -1.6893   -3.9041 C   0  0  0  0  0  0  0  0  0  0  0  0
   16.8639   -2.0076   -4.8449 H   0  0  0  0  0  0  0  0  0  0  0  0
   15.9369   -2.6416   -3.0003 C   0  0  0  0  0  0  0  0  0  0  0  0
   16.0009   -3.6972   -3.2495 H   0  0  0  0  0  0  0  0  0  0  0  0
   15.3613   -2.2419   -1.7812 C   0  0  0  0  0  0  0  0  0  0  0  0
   14.7926   -3.2575   -0.7763 C   0  0  2  0  0  0  0  0  0  0  0  0
   15.1715   -4.7158   -1.0692 C   0  0  0  0  0  0  0  0  0  0  0  0
   16.3919   -5.2335   -0.6040 C   0  0  0  0  0  0  0  0  0  0  0  0
   17.0714   -4.5816   -0.0613 H   0  0  0  0  0  0  0  0  0  0  0  0
   16.7332   -6.5763   -0.8025 C   0  0  0  0  0  0  0  0  0  0  0  0
   17.6732   -6.9566   -0.4159 H   0  0  0  0  0  0  0  0  0  0  0  0
   15.8576   -7.4318   -1.4752 C   0  0  0  0  0  0  0  0  0  0  0  0
   16.1151   -8.4785   -1.6126 H   0  0  0  0  0  0  0  0  0  0  0  0
   14.6458   -6.9340   -1.9626 C   0  0  0  0  0  0  0  0  0  0  0  0
   13.9681   -7.6007   -2.4884 H   0  0  0  0  0  0  0  0  0  0  0  0
   14.3061   -5.5854   -1.7666 C   0  0  0  0  0  0  0  0  0  0  0  0
   13.3555   -5.2195   -2.1439 H   0  0  0  0  0  0  0  0  0  0  0  0
   13.2695   -3.0784   -0.5789 C   0  0  0  0  0  0  0  0  0  0  0  0
   12.3959   -3.1073   -1.4408 O   0  0  0  0  0  0  0  0  0  0  0  0
   13.0126   -2.6826    0.7072 N   0  0  0  0  0  0  0  0  0  0  0  0
   11.6998   -2.4856    1.2667 C   0  0  0  0  0  0  0  0  0  0  0  0
   11.0916   -1.8497    0.6079 H   0  0  0  0  0  0  0  0  0  0  0  0
   11.7661   -1.9869    2.2447 H   0  0  0  0  0  0  0  0  0  0  0  0
   11.0852   -3.8146    1.3986 N   0  0  0  0  0  0  0  0  0  0  0  0
   11.7220   -4.6886    2.4225 C   0  0  0  0  0  0  0  0  0  0  0  0
   11.6509   -4.2045    3.4042 H   0  0  0  0  0  0  0  0  0  0  0  0
   12.7864   -4.8213    2.1942 H   0  0  0  0  0  0  0  0  0  0  0  0
   11.0389   -6.0756    2.5165 C   0  0  0  0  0  0  0  0  0  0  0  0
   11.5129   -6.6436    3.3150 H   0  0  0  0  0  0  0  0  0  0  0  0
   11.2117   -6.6082    1.5751 H   0  0  0  0  0  0  0  0  0  0  0  0
    9.5838   -5.9648    2.7757 N   0  0  0  0  0  0  0  0  0  0  0  0
    9.1405   -6.8879    2.8497 H   0  0  0  0  0  0  0  0  0  0  0  0
    8.9357   -5.1218    1.7480 C   0  0  0  0  0  0  0  0  0  0  0  0
    7.8771   -4.9841    1.9885 H   0  0  0  0  0  0  0  0  0  0  0  0
    9.0022   -5.6068    0.7683 H   0  0  0  0  0  0  0  0  0  0  0  0
    9.6183   -3.7353    1.6483 C   0  0  0  0  0  0  0  0  0  0  0  0
    9.4459   -3.2040    2.5916 H   0  0  0  0  0  0  0  0  0  0  0  0
    9.1419   -3.1600    0.8477 H   0  0  0  0  0  0  0  0  0  0  0  0
   14.2016   -2.6442    1.3731 C   0  0  0  0  0  0  0  0  0  0  0  0
   14.3840   -2.3529    2.6927 N   0  0  0  0  0  0  0  0  0  0  0  0
   15.3265   -2.3446    3.0744 H   0  0  0  0  0  0  0  0  0  0  0  0
   13.5763   -2.1543    3.2816 H   0  0  0  0  0  0  0  0  0  0  0  0
   15.2070   -2.9092    0.6039 N   0  0  0  0  0  4  0  0  0  0  0  0
   16.1749   -2.9218    0.9267 H   0  0  0  0  0  0  0  0  0  0  0  0
   15.2975   -0.8558   -1.5075 C   0  0  0  0  0  0  0  0  0  0  0  0
   14.8642   -0.5180   -0.5714 H   0  0  0  0  0  0  0  0  0  0  0  0
   15.4358    2.0204   -0.7981 C   0  0  0  0  0  0  0  0  0  0  0  0
   15.3120    1.2978    0.0004 H   0  0  0  0  0  0  0  0  0  0  0  0
   15.3766    3.3959   -0.5527 C   0  0  0  0  0  0  0  0  0  0  0  0
   15.1726    3.7811    0.4401 H   0  0  0  0  0  0  0  0  0  0  0  0
  1  2  1  0
  2  3  2  0
  3  4  1  0
  4  5  1  0
  4  6  2  0
  6  7  1  0
  7  8  2  0
  8  9  1  0
  8 10  1  0
 10 11  1  0
 10 12  2  0
 12 13  1  0
 12 14  1  0
 15 14  1  6
 15 16  1  0
 16 17  2  0
 17 18  1  0
 17 19  1  0
 19 20  1  0
 19 21  2  0
 21 22  1  0
 21 23  1  0
 23 24  1  0
 23 25  2  0
 25 26  1  0
 15 27  1  0
 27 28  2  0
 27 29  1  0
 29 30  1  0
 30 31  1  0
 30 32  1  0
 30 33  1  0
 33 34  1  0
 34 35  1  0
 34 36  1  0
 34 37  1  0
 37 38  1  0
 37 39  1  0
 37 40  1  0
 40 41  1  0
 40 42  1  0
 42 43  1  0
 42 44  1  0
 42 45  1  0
 45 46  1  0
 45 47  1  0
 29 48  1  0
 48 49  1  0
 49 50  1  0
 49 51  1  0
 48 52  2  0
 52 53  1  0
 14 54  2  0
 54 55  1  0
  6 56  1  0
 56 57  1  0
 56 58  2  0
 58 59  1  0
 58  2  1  0
 54  7  1  0
 52 15  1  0
 25 16  1  0
 45 33  1  0
M  CHG  1  52   1
M  END
>  <score>  (175) 
5.65746

$$$$

     RDKit          3D

 55 60  0  0  0  0  0  0  0  0999 V2000
   15.5553    5.3540   -1.3938 H   0  0  0  0  0  0  0  0  0  0  0  0
   15.5868    4.2873   -1.6040 C   0  0  0  0  0  0  0  0  0  0  0  0
   15.8229    3.8710   -2.8584 N   0  0  0  0  0  0  0  0  0  0  0  0
   15.8772    2.5440   -3.0929 C   0  0  0  0  0  0  0  0  0  0  0  0
   16.0669    2.2059   -4.1063 H   0  0  0  0  0  0  0  0  0  0  0  0
   15.6950    1.5690   -2.0977 C   0  0  0  0  0  0  0  0  0  0  0  0
   15.7738    0.1222   -2.4054 C   0  0  0  0  0  0  0  0  0  0  0  0
   16.3330   -0.3188   -3.6102 C   0  0  0  0  0  0  0  0  0  0  0  0
   16.7137    0.4217   -4.3052 H   0  0  0  0  0  0  0  0  0  0  0  0
   16.4216   -1.6854   -3.9042 C   0  0  0  0  0  0  0  0  0  0  0  0
   16.8642   -2.0044   -4.8415 H   0  0  0  0  0  0  0  0  0  0  0  0
   15.9393   -2.6360   -2.9962 C   0  0  0  0  0  0  0  0  0  0  0  0
   15.9970   -3.6950   -3.2334 H   0  0  0  0  0  0  0  0  0  0  0  0
   15.3771   -2.2301   -1.7753 C   0  0  0  0  0  0  0  0  0  0  0  0
   14.8061   -3.2380   -0.7778 C   0  0  2  0  0  0  0  0  0  0  0  0
   15.1726   -4.7007   -1.0697 C   0  0  0  0  0  0  0  0  0  0  0  0
   16.3917   -5.2232   -0.6033 C   0  0  0  0  0  0  0  0  0  0  0  0
   17.0701   -4.5728   -0.0586 H   0  0  0  0  0  0  0  0  0  0  0  0
   16.7325   -6.5667   -0.8020 C   0  0  0  0  0  0  0  0  0  0  0  0
   17.6705   -6.9519   -0.4149 H   0  0  0  0  0  0  0  0  0  0  0  0
   15.8564   -7.4180   -1.4792 C   0  0  0  0  0  0  0  0  0  0  0  0
   16.1086   -8.4665   -1.6143 H   0  0  0  0  0  0  0  0  0  0  0  0
   14.6446   -6.9179   -1.9644 C   0  0  0  0  0  0  0  0  0  0  0  0
   13.9649   -7.5841   -2.4878 H   0  0  0  0  0  0  0  0  0  0  0  0
   14.3042   -5.5692   -1.7632 C   0  0  0  0  0  0  0  0  0  0  0  0
   13.3528   -5.2003   -2.1335 H   0  0  0  0  0  0  0  0  0  0  0  0
   13.2880   -3.0070   -0.6160 C   0  0  0  0  0  0  0  0  0  0  0  0
   12.4299   -3.1138   -1.4945 O   0  0  0  0  0  0  0  0  0  0  0  0
   13.0228   -2.6598    0.6899 N   0  0  0  0  0  0  0  0  0  0  0  0
   11.7616   -2.4831    1.2441 C   0  0  0  0  0  0  0  0  0  0  0  0
   10.8532   -1.5969    0.6604 C   0  0  0  0  0  0  0  0  0  0  0  0
   11.1551   -1.0194   -0.2105 H   0  0  0  0  0  0  0  0  0  0  0  0
    9.5762   -1.4403    1.2216 C   0  0  0  0  0  0  0  0  0  0  0  0
    8.8824   -0.7331    0.7843 H   0  0  0  0  0  0  0  0  0  0  0  0
    9.2150   -2.2106    2.3398 C   0  0  0  0  0  0  0  0  0  0  0  0
    8.0293   -2.3648    3.1588 C   0  0  0  0  0  0  0  0  0  0  0  0
    7.1390   -1.7568    3.1017 H   0  0  0  0  0  0  0  0  0  0  0  0
    8.1746   -3.2944    4.0766 N   0  0  0  0  0  0  0  0  0  0  0  0
    9.4644   -3.7149    3.9477 N   0  0  0  0  0  0  0  0  0  0  0  0
    9.9167   -4.3726    4.5868 H   0  0  0  0  0  0  0  0  0  0  0  0
   10.1168   -3.0882    2.8990 C   0  0  0  0  0  0  0  0  0  0  0  0
   11.4021   -3.2163    2.3769 C   0  0  0  0  0  0  0  0  0  0  0  0
   12.1143   -3.9027    2.8144 H   0  0  0  0  0  0  0  0  0  0  0  0
   14.2151   -2.6485    1.3752 C   0  0  0  0  0  0  0  0  0  0  0  0
   14.3938   -2.3768    2.7054 N   0  0  0  0  0  0  0  0  0  0  0  0
   13.6093   -2.0370    3.2623 H   0  0  0  0  0  0  0  0  0  0  0  0
   15.3411   -2.3453    3.0808 H   0  0  0  0  0  0  0  0  0  0  0  0
   15.2202   -2.9163    0.6087 N   0  0  0  0  0  4  0  0  0  0  0  0
   16.1893   -2.9445    0.9366 H   0  0  0  0  0  0  0  0  0  0  0  0
   15.3024   -0.8464   -1.5016 C   0  0  0  0  0  0  0  0  0  0  0  0
   14.8623   -0.5095   -0.5679 H   0  0  0  0  0  0  0  0  0  0  0  0
   15.4448    2.0136   -0.7998 C   0  0  0  0  0  0  0  0  0  0  0  0
   15.3299    1.2807   -0.0087 H   0  0  0  0  0  0  0  0  0  0  0  0
   15.3820    3.3879   -0.5558 C   0  0  0  0  0  0  0  0  0  0  0  0
   15.1796    3.7719    0.4368 H   0  0  0  0  0  0  0  0  0  0  0  0
  1  2  1  0
  2  3  2  0
  3  4  1  0
  4  5  1  0
  4  6  2  0
  6  7  1  0
  7  8  2  0
  8  9  1  0
  8 10  1  0
 10 11  1  0
 10 12  2  0
 12 13  1  0
 12 14  1  0
 15 14  1  6
 15 16  1  0
 16 17  2  0
 17 18  1  0
 17 19  1  0
 19 20  1  0
 19 21  2  0
 21 22  1  0
 21 23  1  0
 23 24  1  0
 23 25  2  0
 25 26  1  0
 15 27  1  0
 27 28  2  0
 27 29  1  0
 29 30  1  0
 30 31  2  0
 31 32  1  0
 31 33  1  0
 33 34  1  0
 33 35  2  0
 35 36  1  0
 36 37  1  0
 36 38  2  0
 38 39  1  0
 39 40  1  0
 39 41  1  0
 41 42  2  0
 42 43  1  0
 29 44  1  0
 44 45  1  0
 45 46  1  0
 45 47  1  0
 44 48  2  0
 48 49  1  0
 14 50  2  0
 50 51  1  0
  6 52  1  0
 52 53  1  0
 52 54  2  0
 54 55  1  0
 54  2  1  0
 50  7  1  0
 48 15  1  0
 25 16  1  0
 42 30  1  0
 41 35  1  0
M  CHG  1  48   1
M  END
>  <score>  (176) 
5.6555

$$$$

     RDKit          3D

 51 54  0  0  0  0  0  0  0  0999 V2000
   15.5453    5.3393   -1.4052 H   0  0  0  0  0  0  0  0  0  0  0  0
   15.5858    4.2737   -1.6074 C   0  0  0  0  0  0  0  0  0  0  0  0
   15.8349    3.8626   -2.8591 N   0  0  0  0  0  0  0  0  0  0  0  0
   15.8858    2.5381   -3.0959 C   0  0  0  0  0  0  0  0  0  0  0  0
   16.0760    2.2114   -4.1140 H   0  0  0  0  0  0  0  0  0  0  0  0
   15.7017    1.5651   -2.0965 C   0  0  0  0  0  0  0  0  0  0  0  0
   15.7774    0.1207   -2.4050 C   0  0  0  0  0  0  0  0  0  0  0  0
   16.3365   -0.3146   -3.6144 C   0  0  0  0  0  0  0  0  0  0  0  0
   16.7162    0.4191   -4.3208 H   0  0  0  0  0  0  0  0  0  0  0  0
   16.4154   -1.6795   -3.9120 C   0  0  0  0  0  0  0  0  0  0  0  0
   16.8693   -1.9987   -4.8473 H   0  0  0  0  0  0  0  0  0  0  0  0
   15.9247   -2.6252   -2.9995 C   0  0  0  0  0  0  0  0  0  0  0  0
   16.0019   -3.6814   -3.2388 H   0  0  0  0  0  0  0  0  0  0  0  0
   15.3535   -2.2306   -1.7766 C   0  0  0  0  0  0  0  0  0  0  0  0
   14.8061   -3.2579   -0.7786 C   0  0  2  0  0  0  0  0  0  0  0  0
   15.1920   -4.6985   -1.0777 C   0  0  0  0  0  0  0  0  0  0  0  0
   16.4079   -5.2171   -0.6078 C   0  0  0  0  0  0  0  0  0  0  0  0
   17.0868   -4.5707   -0.0591 H   0  0  0  0  0  0  0  0  0  0  0  0
   16.7377   -6.5627   -0.7981 C   0  0  0  0  0  0  0  0  0  0  0  0
   17.6773   -6.9471   -0.4107 H   0  0  0  0  0  0  0  0  0  0  0  0
   15.8565   -7.4094   -1.4774 C   0  0  0  0  0  0  0  0  0  0  0  0
   16.1096   -8.4567   -1.6195 H   0  0  0  0  0  0  0  0  0  0  0  0
   14.6478   -6.9056   -1.9686 C   0  0  0  0  0  0  0  0  0  0  0  0
   13.9590   -7.5671   -2.4872 H   0  0  0  0  0  0  0  0  0  0  0  0
   14.3180   -5.5581   -1.7705 C   0  0  0  0  0  0  0  0  0  0  0  0
   13.3632   -5.1883   -2.1345 H   0  0  0  0  0  0  0  0  0  0  0  0
   13.2872   -3.1587   -0.5624 C   0  0  0  0  0  0  0  0  0  0  0  0
   12.3965   -3.0755   -1.3945 O   0  0  0  0  0  0  0  0  0  0  0  0
   13.0458   -3.1504    0.7667 N   0  0  0  0  0  0  0  0  0  0  0  0
   11.6515   -2.4343    1.2641 S   0  0  0  0  0  0  0  0  0  0  0  0
   12.0135   -1.1667    1.8887 O   0  0  0  0  0  0  0  0  0  0  0  0
   10.7487   -2.2729    0.1162 O   0  0  0  0  0  0  0  0  0  0  0  0
   11.0468   -3.6918    2.4219 C   0  0  0  0  0  0  0  0  0  0  0  0
   11.0107   -4.6206    1.8563 H   0  0  0  0  0  0  0  0  0  0  0  0
   11.8017   -3.7920    3.2033 H   0  0  0  0  0  0  0  0  0  0  0  0
    9.6633   -3.4475    3.0589 C   0  0  0  0  0  0  0  0  0  0  0  0
    9.6789   -2.5462    3.6776 H   0  0  0  0  0  0  0  0  0  0  0  0
    8.8802   -3.3438    2.2996 H   0  0  0  0  0  0  0  0  0  0  0  0
    9.3899   -4.2980    3.7004 H   0  0  0  0  0  0  0  0  0  0  0  0
   14.1934   -2.8242    1.3872 C   0  0  0  0  0  0  0  0  0  0  0  0
   14.3046   -2.3580    2.6490 N   0  0  0  0  0  0  0  0  0  0  0  0
   13.4696   -2.1503    3.1903 H   0  0  0  0  0  0  0  0  0  0  0  0
   15.2377   -2.2654    3.0519 H   0  0  0  0  0  0  0  0  0  0  0  0
   15.2025   -2.9445    0.6042 N   0  0  0  0  0  4  0  0  0  0  0  0
   16.1728   -2.8486    0.8979 H   0  0  0  0  0  0  0  0  0  0  0  0
   15.2909   -0.8478   -1.5029 C   0  0  0  0  0  0  0  0  0  0  0  0
   14.8551   -0.5128   -0.5681 H   0  0  0  0  0  0  0  0  0  0  0  0
   15.4526    2.0080   -0.7963 C   0  0  0  0  0  0  0  0  0  0  0  0
   15.3354    1.2869    0.0063 H   0  0  0  0  0  0  0  0  0  0  0  0
   15.3847    3.3783   -0.5561 C   0  0  0  0  0  0  0  0  0  0  0  0
   15.1923    3.7574    0.4398 H   0  0  0  0  0  0  0  0  0  0  0  0
  1  2  1  0
  2  3  2  0
  3  4  1  0
  4  5  1  0
  4  6  2  0
  6  7  1  0
  7  8  2  0
  8  9  1  0
  8 10  1  0
 10 11  1  0
 10 12  2  0
 12 13  1  0
 12 14  1  0
 15 14  1  6
 15 16  1  0
 16 17  2  0
 17 18  1  0
 17 19  1  0
 19 20  1  0
 19 21  2  0
 21 22  1  0
 21 23  1  0
 23 24  1  0
 23 25  2  0
 25 26  1  0
 15 27  1  0
 27 28  2  0
 27 29  1  0
 29 30  1  0
 30 31  2  0
 30 32  2  0
 30 33  1  0
 33 34  1  0
 33 35  1  0
 33 36  1  0
 36 37  1  0
 36 38  1  0
 36 39  1  0
 29 40  1  0
 40 41  1  0
 41 42  1  0
 41 43  1  0
 40 44  2  0
 44 45  1  0
 14 46  2  0
 46 47  1  0
  6 48  1  0
 48 49  1  0
 48 50  2  0
 50 51  1  0
 50  2  1  0
 46  7  1  0
 44 15  1  0
 25 16  1  0
M  CHG  1  44   1
M  END
>  <score>  (177) 
5.6537

$$$$

     RDKit          3D

 59 63  0  0  0  0  0  0  0  0999 V2000
   15.5199    5.3206   -1.4218 H   0  0  0  0  0  0  0  0  0  0  0  0
   15.5943    4.2547   -1.6136 C   0  0  0  0  0  0  0  0  0  0  0  0
   15.8464    3.8408   -2.8648 N   0  0  0  0  0  0  0  0  0  0  0  0
   15.9194    2.5167   -3.0932 C   0  0  0  0  0  0  0  0  0  0  0  0
   16.1189    2.1833   -4.1069 H   0  0  0  0  0  0  0  0  0  0  0  0
   15.7372    1.5499   -2.0904 C   0  0  0  0  0  0  0  0  0  0  0  0
   15.7987    0.1126   -2.3976 C   0  0  0  0  0  0  0  0  0  0  0  0
   16.3322   -0.3321   -3.6133 C   0  0  0  0  0  0  0  0  0  0  0  0
   16.7011    0.3914   -4.3330 H   0  0  0  0  0  0  0  0  0  0  0  0
   16.4052   -1.6971   -3.9003 C   0  0  0  0  0  0  0  0  0  0  0  0
   16.8300   -2.0209   -4.8447 H   0  0  0  0  0  0  0  0  0  0  0  0
   15.9386   -2.6343   -2.9718 C   0  0  0  0  0  0  0  0  0  0  0  0
   15.9980   -3.6931   -3.2041 H   0  0  0  0  0  0  0  0  0  0  0  0
   15.3980   -2.2190   -1.7439 C   0  0  0  0  0  0  0  0  0  0  0  0
   14.8521   -3.2104   -0.7267 C   0  0  2  0  0  0  0  0  0  0  0  0
   15.2215   -4.6584   -1.0249 C   0  0  0  0  0  0  0  0  0  0  0  0
   16.4416   -5.1931   -0.5814 C   0  0  0  0  0  0  0  0  0  0  0  0
   17.1412   -4.5588   -0.0439 H   0  0  0  0  0  0  0  0  0  0  0  0
   16.7567   -6.5376   -0.8040 C   0  0  0  0  0  0  0  0  0  0  0  0
   17.6958   -6.9356   -0.4316 H   0  0  0  0  0  0  0  0  0  0  0  0
   15.8590   -7.3627   -1.4899 C   0  0  0  0  0  0  0  0  0  0  0  0
   16.0992   -8.4087   -1.6540 H   0  0  0  0  0  0  0  0  0  0  0  0
   14.6528   -6.8377   -1.9634 C   0  0  0  0  0  0  0  0  0  0  0  0
   13.9524   -7.4719   -2.4992 H   0  0  0  0  0  0  0  0  0  0  0  0
   14.3398   -5.4934   -1.7359 C   0  0  0  0  0  0  0  0  0  0  0  0
   13.3951   -5.1044   -2.1023 H   0  0  0  0  0  0  0  0  0  0  0  0
   13.3330   -3.0258   -0.5668 C   0  0  0  0  0  0  0  0  0  0  0  0
   12.4572   -3.3273   -1.3768 O   0  0  0  0  0  0  0  0  0  0  0  0
   13.0531   -2.5840    0.7085 N   0  0  0  0  0  0  0  0  0  0  0  0
   11.7237   -2.6610    1.2938 C   0  0  0  0  0  0  0  0  0  0  0  0
   10.9936   -2.0970    0.7035 H   0  0  0  0  0  0  0  0  0  0  0  0
   11.7126   -2.2319    2.3047 H   0  0  0  0  0  0  0  0  0  0  0  0
   11.3778   -4.1235    1.3329 C   0  0  0  0  0  0  0  0  0  0  0  0
   10.6477   -4.7610    0.3070 C   0  0  0  0  0  0  0  0  0  0  0  0
   10.2963   -4.1817   -0.5481 H   0  0  0  0  0  0  0  0  0  0  0  0
   10.3720   -6.1381    0.3884 C   0  0  0  0  0  0  0  0  0  0  0  0
    9.7673   -6.6211   -0.3743 H   0  0  0  0  0  0  0  0  0  0  0  0
   10.8659   -6.8962    1.4601 C   0  0  0  0  0  0  0  0  0  0  0  0
   10.6482   -7.9601    1.5534 H   0  0  0  0  0  0  0  0  0  0  0  0
   11.6421   -6.2558    2.4289 C   0  0  0  0  0  0  0  0  0  0  0  0
   12.0850   -6.8265    3.2262 H   0  0  0  0  0  0  0  0  0  0  0  0
   11.8640   -4.8774    2.4048 C   0  0  0  0  0  0  0  0  0  0  0  0
   12.5376   -4.2494    3.4247 O   0  0  0  0  0  0  0  0  0  0  0  0
   12.0683   -4.6464    4.7224 C   0  0  0  0  0  0  0  0  0  0  0  0
   12.6989   -4.2368    5.5150 H   0  0  0  0  0  0  0  0  0  0  0  0
   11.0334   -4.3218    4.8742 H   0  0  0  0  0  0  0  0  0  0  0  0
   12.0804   -5.7254    4.8191 H   0  0  0  0  0  0  0  0  0  0  0  0
   14.2430   -2.6161    1.4067 C   0  0  0  0  0  0  0  0  0  0  0  0
   14.4033   -2.4705    2.7533 N   0  0  0  0  0  0  0  0  0  0  0  0
   13.6014   -2.1506    3.2929 H   0  0  0  0  0  0  0  0  0  0  0  0
   15.3409   -2.2349    3.0753 H   0  0  0  0  0  0  0  0  0  0  0  0
   15.2598   -2.8540    0.6485 N   0  0  0  0  0  4  0  0  0  0  0  0
   16.1985   -3.0315    1.0137 H   0  0  0  0  0  0  0  0  0  0  0  0
   15.3249   -0.8397   -1.4813 C   0  0  0  0  0  0  0  0  0  0  0  0
   14.8863   -0.4995   -0.5476 H   0  0  0  0  0  0  0  0  0  0  0  0
   15.5032    1.9918   -0.7873 C   0  0  0  0  0  0  0  0  0  0  0  0
   15.3955    1.2776    0.0241 H   0  0  0  0  0  0  0  0  0  0  0  0
   15.4257    3.3611   -0.5526 C   0  0  0  0  0  0  0  0  0  0  0  0
   15.2349    3.7331    0.4467 H   0  0  0  0  0  0  0  0  0  0  0  0
  1  2  1  0
  2  3  2  0
  3  4  1  0
  4  5  1  0
  4  6  2  0
  6  7  1  0
  7  8  2  0
  8  9  1  0
  8 10  1  0
 10 11  1  0
 10 12  2  0
 12 13  1  0
 12 14  1  0
 15 14  1  6
 15 16  1  0
 16 17  2  0
 17 18  1  0
 17 19  1  0
 19 20  1  0
 19 21  2  0
 21 22  1  0
 21 23  1  0
 23 24  1  0
 23 25  2  0
 25 26  1  0
 15 27  1  0
 27 28  2  0
 27 29  1  0
 29 30  1  0
 30 31  1  0
 30 32  1  0
 30 33  1  0
 33 34  2  0
 34 35  1  0
 34 36  1  0
 36 37  1  0
 36 38  2  0
 38 39  1  0
 38 40  1  0
 40 41  1  0
 40 42  2  0
 42 43  1  0
 43 44  1  0
 44 45  1  0
 44 46  1  0
 44 47  1  0
 29 48  1  0
 48 49  1  0
 49 50  1  0
 49 51  1  0
 48 52  2  0
 52 53  1  0
 14 54  2  0
 54 55  1  0
  6 56  1  0
 56 57  1  0
 56 58  2  0
 58 59  1  0
 58  2  1  0
 54  7  1  0
 52 15  1  0
 25 16  1  0
 42 33  1  0
M  CHG  1  52   1
M  END
>  <score>  (178) 
5.65227

$$$$

     RDKit          3D

 58 62  0  0  0  0  0  0  0  0999 V2000
   15.5292    5.3377   -1.3969 H   0  0  0  0  0  0  0  0  0  0  0  0
   15.6067    4.2737   -1.6033 C   0  0  0  0  0  0  0  0  0  0  0  0
   15.8534    3.8744   -2.8596 N   0  0  0  0  0  0  0  0  0  0  0  0
   15.9540    2.5538   -3.1025 C   0  0  0  0  0  0  0  0  0  0  0  0
   16.1407    2.2397   -4.1244 H   0  0  0  0  0  0  0  0  0  0  0  0
   15.8142    1.5691   -2.1087 C   0  0  0  0  0  0  0  0  0  0  0  0
   15.9281    0.1326   -2.4357 C   0  0  0  0  0  0  0  0  0  0  0  0
   16.4120   -0.2879   -3.6829 C   0  0  0  0  0  0  0  0  0  0  0  0
   16.7199    0.4500   -4.4174 H   0  0  0  0  0  0  0  0  0  0  0  0
   16.5014   -1.6495   -3.9896 C   0  0  0  0  0  0  0  0  0  0  0  0
   16.8790   -1.9507   -4.9609 H   0  0  0  0  0  0  0  0  0  0  0  0
   16.0943   -2.6116   -3.0573 C   0  0  0  0  0  0  0  0  0  0  0  0
   16.1524   -3.6641   -3.3184 H   0  0  0  0  0  0  0  0  0  0  0  0
   15.6001   -2.2232   -1.8010 C   0  0  0  0  0  0  0  0  0  0  0  0
   15.0369   -3.2294   -0.8040 C   0  0  2  0  0  0  0  0  0  0  0  0
   15.3765   -4.6894   -1.0962 C   0  0  0  0  0  0  0  0  0  0  0  0
   16.5745   -5.2579   -0.6307 C   0  0  0  0  0  0  0  0  0  0  0  0
   17.2879   -4.6410   -0.0913 H   0  0  0  0  0  0  0  0  0  0  0  0
   16.8489   -6.6162   -0.8289 C   0  0  0  0  0  0  0  0  0  0  0  0
   17.7718   -7.0407   -0.4454 H   0  0  0  0  0  0  0  0  0  0  0  0
   15.9304   -7.4273   -1.5028 C   0  0  0  0  0  0  0  0  0  0  0  0
   16.1336   -8.4855   -1.6407 H   0  0  0  0  0  0  0  0  0  0  0  0
   14.7434   -6.8727   -1.9907 C   0  0  0  0  0  0  0  0  0  0  0  0
   14.0249   -7.4980   -2.5121 H   0  0  0  0  0  0  0  0  0  0  0  0
   14.4720   -5.5136   -1.7934 C   0  0  0  0  0  0  0  0  0  0  0  0
   13.5402   -5.1003   -2.1694 H   0  0  0  0  0  0  0  0  0  0  0  0
   13.5155   -3.0189   -0.6981 C   0  0  0  0  0  0  0  0  0  0  0  0
   12.6799   -3.1332   -1.5932 O   0  0  0  0  0  0  0  0  0  0  0  0
   13.1975   -2.7297    0.6051 N   0  0  0  0  0  0  0  0  0  0  0  0
   11.9055   -2.7380    1.1056 C   0  0  0  0  0  0  0  0  0  0  0  0
   11.0288   -1.7452    0.6907 C   0  0  0  0  0  0  0  0  0  0  0  0
   11.3659   -0.9910   -0.0174 H   0  0  0  0  0  0  0  0  0  0  0  0
    9.7519   -1.6789    1.2410 C   0  0  0  0  0  0  0  0  0  0  0  0
    9.0993   -0.8586    0.9508 H   0  0  0  0  0  0  0  0  0  0  0  0
    9.3307   -2.6252    2.2008 C   0  0  0  0  0  0  0  0  0  0  0  0
    8.0489   -2.4369    2.8850 C   0  0  0  0  0  0  0  0  0  0  0  0
    7.6881   -1.2692    2.9842 O   0  0  0  0  0  0  0  0  0  0  0  0
    7.3773   -3.5069    3.4004 O   0  0  0  0  0  0  0  0  0  0  0  0
    5.9979   -3.2687    3.7235 C   0  0  0  0  0  0  0  0  0  0  0  0
    5.8122   -2.2404    4.0543 H   0  0  0  0  0  0  0  0  0  0  0  0
    5.6684   -3.9473    4.5200 H   0  0  0  0  0  0  0  0  0  0  0  0
    5.4037   -3.4455    2.8225 H   0  0  0  0  0  0  0  0  0  0  0  0
   10.1912   -3.6766    2.5487 C   0  0  0  0  0  0  0  0  0  0  0  0
    9.8708   -4.4255    3.2726 H   0  0  0  0  0  0  0  0  0  0  0  0
   11.4903   -3.7082    2.0251 C   0  0  0  0  0  0  0  0  0  0  0  0
   12.1913   -4.4689    2.3524 H   0  0  0  0  0  0  0  0  0  0  0  0
   14.3578   -2.7097    1.3396 C   0  0  0  0  0  0  0  0  0  0  0  0
   14.4420   -2.4923    2.6916 N   0  0  0  0  0  0  0  0  0  0  0  0
   13.6211   -2.1063    3.1571 H   0  0  0  0  0  0  0  0  0  0  0  0
   15.3650   -2.3111    3.0857 H   0  0  0  0  0  0  0  0  0  0  0  0
   15.3973   -2.9103    0.5976 N   0  0  0  0  0  4  0  0  0  0  0  0
   16.3400   -3.0312    0.9724 H   0  0  0  0  0  0  0  0  0  0  0  0
   15.5308   -0.8473   -1.5111 C   0  0  0  0  0  0  0  0  0  0  0  0
   15.1364   -0.5291   -0.5511 H   0  0  0  0  0  0  0  0  0  0  0  0
   15.5535    1.9973   -0.8024 C   0  0  0  0  0  0  0  0  0  0  0  0
   15.4460    1.2795    0.0068 H   0  0  0  0  0  0  0  0  0  0  0  0
   15.4466    3.3652   -0.5551 C   0  0  0  0  0  0  0  0  0  0  0  0
   15.2443    3.7315    0.4441 H   0  0  0  0  0  0  0  0  0  0  0  0
  1  2  1  0
  2  3  2  0
  3  4  1  0
  4  5  1  0
  4  6  2  0
  6  7  1  0
  7  8  2  0
  8  9  1  0
  8 10  1  0
 10 11  1  0
 10 12  2  0
 12 13  1  0
 12 14  1  0
 15 14  1  6
 15 16  1  0
 16 17  2  0
 17 18  1  0
 17 19  1  0
 19 20  1  0
 19 21  2  0
 21 22  1  0
 21 23  1  0
 23 24  1  0
 23 25  2  0
 25 26  1  0
 15 27  1  0
 27 28  2  0
 27 29  1  0
 29 30  1  0
 30 31  2  0
 31 32  1  0
 31 33  1  0
 33 34  1  0
 33 35  2  0
 35 36  1  0
 36 37  2  0
 36 38  1  0
 38 39  1  0
 39 40  1  0
 39 41  1  0
 39 42  1  0
 35 43  1  0
 43 44  1  0
 43 45  2  0
 45 46  1  0
 29 47  1  0
 47 48  1  0
 48 49  1  0
 48 50  1  0
 47 51  2  0
 51 52  1  0
 14 53  2  0
 53 54  1  0
  6 55  1  0
 55 56  1  0
 55 57  2  0
 57 58  1  0
 57  2  1  0
 53  7  1  0
 51 15  1  0
 25 16  1  0
 45 30  1  0
M  CHG  1  51   1
M  END
>  <score>  (179) 
5.64752

$$$$

     RDKit          3D

 53 57  0  0  0  0  0  0  0  0999 V2000
   15.5331    5.3239   -1.4192 H   0  0  0  0  0  0  0  0  0  0  0  0
   15.5969    4.2567   -1.6102 C   0  0  0  0  0  0  0  0  0  0  0  0
   15.8454    3.8343   -2.8594 N   0  0  0  0  0  0  0  0  0  0  0  0
   15.9044    2.5079   -3.0842 C   0  0  0  0  0  0  0  0  0  0  0  0
   16.1019    2.1756   -4.0991 H   0  0  0  0  0  0  0  0  0  0  0  0
   15.7099    1.5441   -2.0776 C   0  0  0  0  0  0  0  0  0  0  0  0
   15.7556    0.0994   -2.3711 C   0  0  0  0  0  0  0  0  0  0  0  0
   16.3029   -0.3559   -3.5763 C   0  0  0  0  0  0  0  0  0  0  0  0
   16.6937    0.3601   -4.2915 H   0  0  0  0  0  0  0  0  0  0  0  0
   16.3690   -1.7216   -3.8594 C   0  0  0  0  0  0  0  0  0  0  0  0
   16.8067   -2.0520   -4.7963 H   0  0  0  0  0  0  0  0  0  0  0  0
   15.8830   -2.6531   -2.9359 C   0  0  0  0  0  0  0  0  0  0  0  0
   15.9393   -3.7124   -3.1701 H   0  0  0  0  0  0  0  0  0  0  0  0
   15.3316   -2.2340   -1.7117 C   0  0  0  0  0  0  0  0  0  0  0  0
   14.8008   -3.2401   -0.6936 C   0  0  2  0  0  0  0  0  0  0  0  0
   15.1965   -4.6787   -1.0161 C   0  0  0  0  0  0  0  0  0  0  0  0
   16.4226   -5.2029   -0.5776 C   0  0  0  0  0  0  0  0  0  0  0  0
   17.1101   -4.5649   -0.0306 H   0  0  0  0  0  0  0  0  0  0  0  0
   16.7573   -6.5427   -0.8049 C   0  0  0  0  0  0  0  0  0  0  0  0
   17.7003   -6.9305   -0.4279 H   0  0  0  0  0  0  0  0  0  0  0  0
   15.8701   -7.3773   -1.4945 C   0  0  0  0  0  0  0  0  0  0  0  0
   16.1189   -8.4227   -1.6544 H   0  0  0  0  0  0  0  0  0  0  0  0
   14.6589   -6.8624   -1.9710 C   0  0  0  0  0  0  0  0  0  0  0  0
   13.9648   -7.5038   -2.5079 H   0  0  0  0  0  0  0  0  0  0  0  0
   14.3296   -5.5210   -1.7386 C   0  0  0  0  0  0  0  0  0  0  0  0
   13.3809   -5.1378   -2.1024 H   0  0  0  0  0  0  0  0  0  0  0  0
   13.2751   -3.1342   -0.5056 C   0  0  0  0  0  0  0  0  0  0  0  0
   12.4070   -3.2673   -1.3701 O   0  0  0  0  0  0  0  0  0  0  0  0
   13.0116   -2.9224    0.8305 N   0  0  0  0  0  0  0  0  0  0  0  0
   11.7074   -2.7916    1.3886 O   0  0  0  0  0  0  0  0  0  0  0  0
   11.1305   -1.5738    1.1510 C   0  0  0  0  0  0  0  0  0  0  0  0
    9.7805   -1.3863    1.4840 C   0  0  0  0  0  0  0  0  0  0  0  0
    9.2334   -2.2090    1.9361 H   0  0  0  0  0  0  0  0  0  0  0  0
    9.1799   -0.1372    1.2769 C   0  0  0  0  0  0  0  0  0  0  0  0
    8.1365   -0.0053    1.5452 H   0  0  0  0  0  0  0  0  0  0  0  0
    9.9363    0.9366    0.7773 C   0  0  0  0  0  0  0  0  0  0  0  0
    9.5141    1.9342    0.6763 H   0  0  0  0  0  0  0  0  0  0  0  0
   11.2661    0.7374    0.4122 C   0  0  0  0  0  0  0  0  0  0  0  0
   11.8934    1.5427    0.0504 H   0  0  0  0  0  0  0  0  0  0  0  0
   11.8494   -0.5117    0.5827 C   0  0  0  0  0  0  0  0  0  0  0  0
   12.8914   -0.6427    0.3137 H   0  0  0  0  0  0  0  0  0  0  0  0
   14.2176   -2.7681    1.4943 C   0  0  0  0  0  0  0  0  0  0  0  0
   14.4344   -2.4962    2.8243 N   0  0  0  0  0  0  0  0  0  0  0  0
   15.3843   -2.2631    3.1167 H   0  0  0  0  0  0  0  0  0  0  0  0
   13.6511   -2.1919    3.4034 H   0  0  0  0  0  0  0  0  0  0  0  0
   15.2207   -2.8966    0.6858 N   0  0  0  0  0  4  0  0  0  0  0  0
   16.1987   -2.8391    0.9806 H   0  0  0  0  0  0  0  0  0  0  0  0
   15.2649   -0.8505   -1.4551 C   0  0  0  0  0  0  0  0  0  0  0  0
   14.8249   -0.5032   -0.5256 H   0  0  0  0  0  0  0  0  0  0  0  0
   15.4831    1.9964   -0.7783 C   0  0  0  0  0  0  0  0  0  0  0  0
   15.3768    1.2832    0.0324 H   0  0  0  0  0  0  0  0  0  0  0  0
   15.4180    3.3675   -0.5485 C   0  0  0  0  0  0  0  0  0  0  0  0
   15.2310    3.7462    0.4484 H   0  0  0  0  0  0  0  0  0  0  0  0
  1  2  1  0
  2  3  2  0
  3  4  1  0
  4  5  1  0
  4  6  2  0
  6  7  1  0
  7  8  2  0
  8  9  1  0
  8 10  1  0
 10 11  1  0
 10 12  2  0
 12 13  1  0
 12 14  1  0
 15 14  1  6
 15 16  1  0
 16 17  2  0
 17 18  1  0
 17 19  1  0
 19 20  1  0
 19 21  2  0
 21 22  1  0
 21 23  1  0
 23 24  1  0
 23 25  2  0
 25 26  1  0
 15 27  1  0
 27 28  2  0
 27 29  1  0
 29 30  1  0
 30 31  1  0
 31 32  2  0
 32 33  1  0
 32 34  1  0
 34 35  1  0
 34 36  2  0
 36 37  1  0
 36 38  1  0
 38 39  1  0
 38 40  2  0
 40 41  1  0
 29 42  1  0
 42 43  1  0
 43 44  1  0
 43 45  1  0
 42 46  2  0
 46 47  1  0
 14 48  2  0
 48 49  1  0
  6 50  1  0
 50 51  1  0
 50 52  2  0
 52 53  1  0
 52  2  1  0
 48  7  1  0
 46 15  1  0
 25 16  1  0
 40 31  1  0
M  CHG  1  46   1
M  END
>  <score>  (180) 
5.64737

$$$$

     RDKit          3D

 55 58  0  0  0  0  0  0  0  0999 V2000
   10.3069   -2.2261    4.0949 H   0  0  0  0  0  0  0  0  0  0  0  0
   10.2299   -2.4630    3.1543 O   0  0  0  0  0  0  0  0  0  0  0  0
   11.5422   -2.4615    2.5635 C   0  0  0  0  0  0  0  0  0  0  0  0
   12.1837   -3.1517    3.1284 H   0  0  0  0  0  0  0  0  0  0  0  0
   11.9878   -1.4624    2.6088 H   0  0  0  0  0  0  0  0  0  0  0  0
   11.5681   -2.8372    1.0975 C   0  0  0  0  0  0  0  0  0  0  0  0
   12.9406   -2.7427    0.5970 N   0  0  0  0  0  0  0  0  0  0  0  0
   13.2937   -3.0709   -0.6918 C   0  0  0  0  0  0  0  0  0  0  0  0
   12.4748   -3.2671   -1.5859 O   0  0  0  0  0  0  0  0  0  0  0  0
   14.8204   -3.2388   -0.7777 C   0  0  1  0  0  0  0  0  0  0  0  0
   15.2048   -4.6786   -1.0607 C   0  0  0  0  0  0  0  0  0  0  0  0
   16.4218   -5.1991   -0.5927 C   0  0  0  0  0  0  0  0  0  0  0  0
   17.1087   -4.5556   -0.0484 H   0  0  0  0  0  0  0  0  0  0  0  0
   16.7431   -6.5417   -0.7998 C   0  0  0  0  0  0  0  0  0  0  0  0
   17.6801   -6.9319   -0.4159 H   0  0  0  0  0  0  0  0  0  0  0  0
   15.8539   -7.3766   -1.4832 C   0  0  0  0  0  0  0  0  0  0  0  0
   16.0997   -8.4218   -1.6372 H   0  0  0  0  0  0  0  0  0  0  0  0
   14.6445   -6.8648   -1.9626 C   0  0  0  0  0  0  0  0  0  0  0  0
   13.9506   -7.5064   -2.4944 H   0  0  0  0  0  0  0  0  0  0  0  0
   14.3218   -5.5239   -1.7513 C   0  0  0  0  0  0  0  0  0  0  0  0
   13.3707   -5.1393   -2.1095 H   0  0  0  0  0  0  0  0  0  0  0  0
   15.3926   -2.2156   -1.7448 C   0  0  0  0  0  0  0  0  0  0  0  0
   15.9441   -2.6185   -2.9658 C   0  0  0  0  0  0  0  0  0  0  0  0
   15.9948   -3.6757   -3.1982 H   0  0  0  0  0  0  0  0  0  0  0  0
   16.4140   -1.6807   -3.8862 C   0  0  0  0  0  0  0  0  0  0  0  0
   16.8407   -2.0022   -4.8282 H   0  0  0  0  0  0  0  0  0  0  0  0
   16.3289   -0.3197   -3.6021 C   0  0  0  0  0  0  0  0  0  0  0  0
   16.6964    0.4076   -4.3192 H   0  0  0  0  0  0  0  0  0  0  0  0
   15.7859    0.1167   -2.3899 C   0  0  0  0  0  0  0  0  0  0  0  0
   15.7202    1.5517   -2.0949 C   0  0  0  0  0  0  0  0  0  0  0  0
   15.9096    2.5177   -3.0997 C   0  0  0  0  0  0  0  0  0  0  0  0
   16.1081    2.1937   -4.1172 H   0  0  0  0  0  0  0  0  0  0  0  0
   15.8418    3.8407   -2.8681 N   0  0  0  0  0  0  0  0  0  0  0  0
   15.5872    4.2529   -1.6172 C   0  0  0  0  0  0  0  0  0  0  0  0
   15.5229    5.3183   -1.4220 H   0  0  0  0  0  0  0  0  0  0  0  0
   15.4081    3.3593   -0.5586 C   0  0  0  0  0  0  0  0  0  0  0  0
   15.2180    3.7306    0.4405 H   0  0  0  0  0  0  0  0  0  0  0  0
   15.4819    1.9916   -0.7943 C   0  0  0  0  0  0  0  0  0  0  0  0
   15.3772    1.2752    0.0154 H   0  0  0  0  0  0  0  0  0  0  0  0
   15.3134   -0.8368   -1.4697 C   0  0  0  0  0  0  0  0  0  0  0  0
   14.8652   -0.4961   -0.5387 H   0  0  0  0  0  0  0  0  0  0  0  0
   15.1654   -2.9375    0.6184 N   0  0  0  0  0  4  0  0  0  0  0  0
   16.1045   -3.0285    1.0134 H   0  0  0  0  0  0  0  0  0  0  0  0
   14.1198   -2.7083    1.3282 C   0  0  0  0  0  0  0  0  0  0  0  0
   14.3632   -2.4453    2.6380 N   0  0  0  0  0  0  0  0  0  0  0  0
   15.3525   -2.4012    2.8913 H   0  0  0  0  0  0  0  0  0  0  0  0
   13.7090   -1.8299    3.1173 H   0  0  0  0  0  0  0  0  0  0  0  0
   11.0821   -4.2846    0.9553 C   0  0  0  0  0  0  0  0  0  0  0  0
   11.7532   -4.9531    1.5084 H   0  0  0  0  0  0  0  0  0  0  0  0
   11.0720   -4.5892   -0.0946 H   0  0  0  0  0  0  0  0  0  0  0  0
   10.0716   -4.3926    1.3646 H   0  0  0  0  0  0  0  0  0  0  0  0
   10.6895   -1.8292    0.3318 C   0  0  0  0  0  0  0  0  0  0  0  0
   11.1458   -0.8314    0.3587 H   0  0  0  0  0  0  0  0  0  0  0  0
    9.6975   -1.7606    0.7918 H   0  0  0  0  0  0  0  0  0  0  0  0
   10.5676   -2.1250   -0.7125 H   0  0  0  0  0  0  0  0  0  0  0  0
  1  2  1  0
  2  3  1  0
  3  4  1  0
  3  5  1  0
  3  6  1  0
  6  7  1  0
  7  8  1  0
  8  9  2  0
  8 10  1  0
 10 11  1  6
 11 12  2  0
 12 13  1  0
 12 14  1  0
 14 15  1  0
 14 16  2  0
 16 17  1  0
 16 18  1  0
 18 19  1  0
 18 20  2  0
 20 21  1  0
 10 22  1  0
 22 23  2  0
 23 24  1  0
 23 25  1  0
 25 26  1  0
 25 27  2  0
 27 28  1  0
 27 29  1  0
 29 30  1  0
 30 31  2  0
 31 32  1  0
 31 33  1  0
 33 34  2  0
 34 35  1  0
 34 36  1  0
 36 37  1  0
 36 38  2  0
 38 39  1  0
 29 40  2  0
 40 41  1  0
 10 42  1  0
 42 43  1  0
 42 44  2  0
 44 45  1  0
 45 46  1  0
 45 47  1  0
  6 48  1  0
 48 49  1  0
 48 50  1  0
 48 51  1  0
  6 52  1  0
 52 53  1  0
 52 54  1  0
 52 55  1  0
 44  7  1  0
 20 11  1  0
 40 22  1  0
 38 30  1  0
M  CHG  1  42   1
M  END
>  <score>  (181) 
5.64706

$$$$

     RDKit          3D

 57 61  0  0  0  0  0  0  0  0999 V2000
   15.5332    5.3345   -1.4136 H   0  0  0  0  0  0  0  0  0  0  0  0
   15.5902    4.2681   -1.6100 C   0  0  0  0  0  0  0  0  0  0  0  0
   15.8392    3.8534   -2.8614 N   0  0  0  0  0  0  0  0  0  0  0  0
   15.9039    2.5294   -3.0935 C   0  0  0  0  0  0  0  0  0  0  0  0
   16.0980    2.1985   -4.1091 H   0  0  0  0  0  0  0  0  0  0  0  0
   15.7211    1.5614   -2.0918 C   0  0  0  0  0  0  0  0  0  0  0  0
   15.7909    0.1227   -2.3966 C   0  0  0  0  0  0  0  0  0  0  0  0
   16.3369   -0.3249   -3.6056 C   0  0  0  0  0  0  0  0  0  0  0  0
   16.7120    0.3980   -4.3225 H   0  0  0  0  0  0  0  0  0  0  0  0
   16.4114   -1.6914   -3.8905 C   0  0  0  0  0  0  0  0  0  0  0  0
   16.8438   -2.0191   -4.8304 H   0  0  0  0  0  0  0  0  0  0  0  0
   15.9313   -2.6287   -2.9674 C   0  0  0  0  0  0  0  0  0  0  0  0
   15.9845   -3.6879   -3.2017 H   0  0  0  0  0  0  0  0  0  0  0  0
   15.3778   -2.2102   -1.7446 C   0  0  0  0  0  0  0  0  0  0  0  0
   14.7944   -3.1908   -0.7335 C   0  0  2  0  0  0  0  0  0  0  0  0
   15.1475   -4.6539   -1.0333 C   0  0  0  0  0  0  0  0  0  0  0  0
   16.3754   -5.1819   -0.5894 C   0  0  0  0  0  0  0  0  0  0  0  0
   17.0701   -4.5400   -0.0549 H   0  0  0  0  0  0  0  0  0  0  0  0
   16.7140   -6.5225   -0.8031 C   0  0  0  0  0  0  0  0  0  0  0  0
   17.6598   -6.9049   -0.4293 H   0  0  0  0  0  0  0  0  0  0  0  0
   15.8338   -7.3637   -1.4866 C   0  0  0  0  0  0  0  0  0  0  0  0
   16.0934   -8.4075   -1.6419 H   0  0  0  0  0  0  0  0  0  0  0  0
   14.6205   -6.8548   -1.9620 C   0  0  0  0  0  0  0  0  0  0  0  0
   13.9420   -7.5113   -2.4988 H   0  0  0  0  0  0  0  0  0  0  0  0
   14.2793   -5.5099   -1.7398 C   0  0  0  0  0  0  0  0  0  0  0  0
   13.3308   -5.1380   -2.1151 H   0  0  0  0  0  0  0  0  0  0  0  0
   13.2867   -2.8981   -0.5346 C   0  0  0  0  0  0  0  0  0  0  0  0
   12.3716   -3.0762   -1.3339 O   0  0  0  0  0  0  0  0  0  0  0  0
   13.0778   -2.5059    0.7596 N   0  0  0  0  0  0  0  0  0  0  0  0
   11.8450   -2.3345    1.3374 C   0  0  0  0  0  0  0  0  0  0  0  0
   10.9552   -1.8883    0.6260 O   0  0  0  0  0  0  0  0  0  0  0  0
   11.4735   -3.1631    2.4910 C   0  0  0  0  0  0  0  0  0  0  0  0
   10.2484   -2.9930    3.1678 C   0  0  0  0  0  0  0  0  0  0  0  0
    9.6330   -2.1071    3.0322 H   0  0  0  0  0  0  0  0  0  0  0  0
    9.7384   -4.0370    3.9415 C   0  0  0  0  0  0  0  0  0  0  0  0
    8.7536   -3.9471    4.3869 H   0  0  0  0  0  0  0  0  0  0  0  0
   10.4228   -5.2504    4.0372 C   0  0  0  0  0  0  0  0  0  0  0  0
    9.6906   -6.4402    4.5825 C   0  0  0  0  0  0  0  0  0  0  0  0
    9.7495   -6.4979    5.6701 H   0  0  0  0  0  0  0  0  0  0  0  0
    8.6439   -6.3850    4.2862 H   0  0  0  0  0  0  0  0  0  0  0  0
   10.0746   -7.3594    4.1488 H   0  0  0  0  0  0  0  0  0  0  0  0
   11.7024   -5.3666    3.4834 C   0  0  0  0  0  0  0  0  0  0  0  0
   12.2767   -6.2862    3.5147 H   0  0  0  0  0  0  0  0  0  0  0  0
   12.2334   -4.3155    2.7526 C   0  0  0  0  0  0  0  0  0  0  0  0
   13.1906   -4.4939    2.2760 H   0  0  0  0  0  0  0  0  0  0  0  0
   14.2484   -2.6162    1.4311 C   0  0  0  0  0  0  0  0  0  0  0  0
   14.3625   -2.4534    2.7739 N   0  0  0  0  0  0  0  0  0  0  0  0
   15.2991   -2.2750    3.1311 H   0  0  0  0  0  0  0  0  0  0  0  0
   13.5683   -2.0428    3.2593 H   0  0  0  0  0  0  0  0  0  0  0  0
   15.2345   -2.8796    0.6465 N   0  0  0  0  0  4  0  0  0  0  0  0
   16.1878   -3.0413    0.9777 H   0  0  0  0  0  0  0  0  0  0  0  0
   15.3125   -0.8301   -1.4834 C   0  0  0  0  0  0  0  0  0  0  0  0
   14.8699   -0.4888   -0.5525 H   0  0  0  0  0  0  0  0  0  0  0  0
   15.4772    2.0038   -0.7907 C   0  0  0  0  0  0  0  0  0  0  0  0
   15.3634    1.2870    0.0168 H   0  0  0  0  0  0  0  0  0  0  0  0
   15.4049    3.3737   -0.5536 C   0  0  0  0  0  0  0  0  0  0  0  0
   15.2105    3.7495    0.4433 H   0  0  0  0  0  0  0  0  0  0  0  0
  1  2  1  0
  2  3  2  0
  3  4  1  0
  4  5  1  0
  4  6  2  0
  6  7  1  0
  7  8  2  0
  8  9  1  0
  8 10  1  0
 10 11  1  0
 10 12  2  0
 12 13  1  0
 12 14  1  0
 15 14  1  6
 15 16  1  0
 16 17  2  0
 17 18  1  0
 17 19  1  0
 19 20  1  0
 19 21  2  0
 21 22  1  0
 21 23  1  0
 23 24  1  0
 23 25  2  0
 25 26  1  0
 15 27  1  0
 27 28  2  0
 27 29  1  0
 29 30  1  0
 30 31  2  0
 30 32  1  0
 32 33  2  0
 33 34  1  0
 33 35  1  0
 35 36  1  0
 35 37  2  0
 37 38  1  0
 38 39  1  0
 38 40  1  0
 38 41  1  0
 37 42  1  0
 42 43  1  0
 42 44  2  0
 44 45  1  0
 29 46  1  0
 46 47  1  0
 47 48  1  0
 47 49  1  0
 46 50  2  0
 50 51  1  0
 14 52  2  0
 52 53  1  0
  6 54  1  0
 54 55  1  0
 54 56  2  0
 56 57  1  0
 56  2  1  0
 52  7  1  0
 50 15  1  0
 25 16  1  0
 44 32  1  0
M  CHG  1  50   1
M  END
>  <score>  (182) 
5.64466

$$$$

     RDKit          3D

 55 60  0  0  0  0  0  0  0  0999 V2000
   15.5202    5.3186   -1.4224 H   0  0  0  0  0  0  0  0  0  0  0  0
   15.5882    4.2526   -1.6166 C   0  0  0  0  0  0  0  0  0  0  0  0
   15.8401    3.8390   -2.8682 N   0  0  0  0  0  0  0  0  0  0  0  0
   15.9118    2.5161   -3.0994 C   0  0  0  0  0  0  0  0  0  0  0  0
   16.1135    2.1858   -4.1143 H   0  0  0  0  0  0  0  0  0  0  0  0
   15.7233    1.5510   -2.0962 C   0  0  0  0  0  0  0  0  0  0  0  0
   15.7867    0.1188   -2.3996 C   0  0  0  0  0  0  0  0  0  0  0  0
   16.3296   -0.3162   -3.6112 C   0  0  0  0  0  0  0  0  0  0  0  0
   16.6960    0.4163   -4.3227 H   0  0  0  0  0  0  0  0  0  0  0  0
   16.4156   -1.6784   -3.8980 C   0  0  0  0  0  0  0  0  0  0  0  0
   16.8360   -2.0001   -4.8419 H   0  0  0  0  0  0  0  0  0  0  0  0
   15.9528   -2.6178   -2.9765 C   0  0  0  0  0  0  0  0  0  0  0  0
   16.0003   -3.6764   -3.2086 H   0  0  0  0  0  0  0  0  0  0  0  0
   15.4172   -2.2109   -1.7508 C   0  0  0  0  0  0  0  0  0  0  0  0
   14.8931   -3.2249   -0.7541 C   0  0  2  0  0  0  0  0  0  0  0  0
   15.2345   -4.6725   -1.0590 C   0  0  0  0  0  0  0  0  0  0  0  0
   16.4427   -5.2071   -0.5970 C   0  0  0  0  0  0  0  0  0  0  0  0
   17.1292   -4.5672   -0.0492 H   0  0  0  0  0  0  0  0  0  0  0  0
   16.7508   -6.5510   -0.8054 C   0  0  0  0  0  0  0  0  0  0  0  0
   17.6827   -6.9462   -0.4155 H   0  0  0  0  0  0  0  0  0  0  0  0
   15.8549   -7.3787   -1.4889 C   0  0  0  0  0  0  0  0  0  0  0  0
   16.0924   -8.4269   -1.6419 H   0  0  0  0  0  0  0  0  0  0  0  0
   14.6469   -6.8561   -1.9634 C   0  0  0  0  0  0  0  0  0  0  0  0
   13.9464   -7.4947   -2.4921 H   0  0  0  0  0  0  0  0  0  0  0  0
   14.3361   -5.5094   -1.7478 C   0  0  0  0  0  0  0  0  0  0  0  0
   13.3845   -5.1184   -2.1008 H   0  0  0  0  0  0  0  0  0  0  0  0
   13.3813   -3.0510   -0.6125 C   0  0  0  0  0  0  0  0  0  0  0  0
   12.5416   -3.1731   -1.5015 O   0  0  0  0  0  0  0  0  0  0  0  0
   13.1038   -2.8034    0.7107 N   0  0  0  0  0  0  0  0  0  0  0  0
   11.8432   -2.6002    1.2385 C   0  0  0  0  0  0  0  0  0  0  0  0
   11.4544   -3.2889    2.3895 C   0  0  0  0  0  0  0  0  0  0  0  0
   12.1436   -4.0170    2.8108 H   0  0  0  0  0  0  0  0  0  0  0  0
   10.2000   -3.0462    2.9615 C   0  0  0  0  0  0  0  0  0  0  0  0
    9.8998   -3.6066    3.8423 H   0  0  0  0  0  0  0  0  0  0  0  0
    9.3927   -2.0510    2.3925 C   0  0  0  0  0  0  0  0  0  0  0  0
    9.7884   -1.3769    1.2570 C   0  0  0  0  0  0  0  0  0  0  0  0
    8.7796   -0.3834    0.9950 C   0  0  0  0  0  0  0  0  0  0  0  0
    8.8036    0.3201    0.1730 H   0  0  0  0  0  0  0  0  0  0  0  0
    7.8307   -0.4514    1.9007 N   0  0  0  0  0  0  0  0  0  0  0  0
    8.1770   -1.4858    2.7289 N   0  0  0  0  0  0  0  0  0  0  0  0
    7.6287   -1.7927    3.5310 H   0  0  0  0  0  0  0  0  0  0  0  0
   10.9924   -1.6802    0.6278 C   0  0  0  0  0  0  0  0  0  0  0  0
   11.3301   -1.1826   -0.2763 H   0  0  0  0  0  0  0  0  0  0  0  0
   14.2935   -2.7258    1.4092 C   0  0  0  0  0  0  0  0  0  0  0  0
   14.4535   -2.4698    2.7472 N   0  0  0  0  0  0  0  0  0  0  0  0
   13.6553   -2.0881    3.2561 H   0  0  0  0  0  0  0  0  0  0  0  0
   15.3944   -2.2439    3.0746 H   0  0  0  0  0  0  0  0  0  0  0  0
   15.3074   -2.9072    0.6298 N   0  0  0  0  0  4  0  0  0  0  0  0
   16.2628   -3.0144    0.9734 H   0  0  0  0  0  0  0  0  0  0  0  0
   15.3220   -0.8340   -1.4800 C   0  0  0  0  0  0  0  0  0  0  0  0
   14.8825   -0.4943   -0.5447 H   0  0  0  0  0  0  0  0  0  0  0  0
   15.4883    1.9886   -0.7944 C   0  0  0  0  0  0  0  0  0  0  0  0
   15.3838    1.2696    0.0139 H   0  0  0  0  0  0  0  0  0  0  0  0
   15.4138    3.3572   -0.5583 C   0  0  0  0  0  0  0  0  0  0  0  0
   15.2212    3.7290    0.4401 H   0  0  0  0  0  0  0  0  0  0  0  0
  1  2  1  0
  2  3  2  0
  3  4  1  0
  4  5  1  0
  4  6  2  0
  6  7  1  0
  7  8  2  0
  8  9  1  0
  8 10  1  0
 10 11  1  0
 10 12  2  0
 12 13  1  0
 12 14  1  0
 15 14  1  6
 15 16  1  0
 16 17  2  0
 17 18  1  0
 17 19  1  0
 19 20  1  0
 19 21  2  0
 21 22  1  0
 21 23  1  0
 23 24  1  0
 23 25  2  0
 25 26  1  0
 15 27  1  0
 27 28  2  0
 27 29  1  0
 29 30  1  0
 30 31  2  0
 31 32  1  0
 31 33  1  0
 33 34  1  0
 33 35  2  0
 35 36  1  0
 36 37  1  0
 37 38  1  0
 37 39  2  0
 39 40  1  0
 40 41  1  0
 36 42  2  0
 42 43  1  0
 29 44  1  0
 44 45  1  0
 45 46  1  0
 45 47  1  0
 44 48  2  0
 48 49  1  0
 14 50  2  0
 50 51  1  0
  6 52  1  0
 52 53  1  0
 52 54  2  0
 54 55  1  0
 54  2  1  0
 50  7  1  0
 48 15  1  0
 25 16  1  0
 42 30  1  0
 40 35  1  0
M  CHG  1  48   1
M  END
>  <score>  (183) 
5.6446

$$$$

     RDKit          3D

 55 60  0  0  0  0  0  0  0  0999 V2000
   15.5523    5.3488   -1.3960 H   0  0  0  0  0  0  0  0  0  0  0  0
   15.5866    4.2828   -1.6056 C   0  0  0  0  0  0  0  0  0  0  0  0
   15.8239    3.8673   -2.8600 N   0  0  0  0  0  0  0  0  0  0  0  0
   15.8796    2.5412   -3.0936 C   0  0  0  0  0  0  0  0  0  0  0  0
   16.0719    2.2026   -4.1064 H   0  0  0  0  0  0  0  0  0  0  0  0
   15.6962    1.5681   -2.0972 C   0  0  0  0  0  0  0  0  0  0  0  0
   15.7750    0.1227   -2.4027 C   0  0  0  0  0  0  0  0  0  0  0  0
   16.3303   -0.3175   -3.6096 C   0  0  0  0  0  0  0  0  0  0  0  0
   16.7098    0.4240   -4.3031 H   0  0  0  0  0  0  0  0  0  0  0  0
   16.4183   -1.6841   -3.9031 C   0  0  0  0  0  0  0  0  0  0  0  0
   16.8623   -2.0049   -4.8403 H   0  0  0  0  0  0  0  0  0  0  0  0
   15.9382   -2.6341   -2.9915 C   0  0  0  0  0  0  0  0  0  0  0  0
   15.9959   -3.6925   -3.2309 H   0  0  0  0  0  0  0  0  0  0  0  0
   15.3777   -2.2289   -1.7667 C   0  0  0  0  0  0  0  0  0  0  0  0
   14.8073   -3.2392   -0.7649 C   0  0  2  0  0  0  0  0  0  0  0  0
   15.1751   -4.6981   -1.0676 C   0  0  0  0  0  0  0  0  0  0  0  0
   16.3942   -5.2223   -0.6040 C   0  0  0  0  0  0  0  0  0  0  0  0
   17.0723   -4.5725   -0.0582 H   0  0  0  0  0  0  0  0  0  0  0  0
   16.7340   -6.5663   -0.8024 C   0  0  0  0  0  0  0  0  0  0  0  0
   17.6718   -6.9536   -0.4143 H   0  0  0  0  0  0  0  0  0  0  0  0
   15.8564   -7.4155   -1.4811 C   0  0  0  0  0  0  0  0  0  0  0  0
   16.1063   -8.4638   -1.6158 H   0  0  0  0  0  0  0  0  0  0  0  0
   14.6446   -6.9139   -1.9663 C   0  0  0  0  0  0  0  0  0  0  0  0
   13.9627   -7.5799   -2.4882 H   0  0  0  0  0  0  0  0  0  0  0  0
   14.3066   -5.5648   -1.7636 C   0  0  0  0  0  0  0  0  0  0  0  0
   13.3541   -5.1942   -2.1293 H   0  0  0  0  0  0  0  0  0  0  0  0
   13.2888   -3.0263   -0.5930 C   0  0  0  0  0  0  0  0  0  0  0  0
   12.4476   -3.0930   -1.4895 O   0  0  0  0  0  0  0  0  0  0  0  0
   13.0100   -2.7286    0.7244 N   0  0  0  0  0  0  0  0  0  0  0  0
   11.7769   -2.2858    1.2086 C   0  0  0  0  0  0  0  0  0  0  0  0
   11.1523   -2.9142    2.2519 C   0  0  0  0  0  0  0  0  0  0  0  0
   11.5776   -3.7699    2.7650 H   0  0  0  0  0  0  0  0  0  0  0  0
    9.5864   -2.1941    2.6265 S   0  0  0  0  0  0  0  0  0  0  0  0
    9.7963   -0.9832    1.3636 C   0  0  0  0  0  0  0  0  0  0  0  0
    8.9673    0.1060    1.0674 C   0  0  0  0  0  0  0  0  0  0  0  0
    8.0486    0.2529    1.6248 H   0  0  0  0  0  0  0  0  0  0  0  0
    9.3584    1.0195    0.0820 C   0  0  0  0  0  0  0  0  0  0  0  0
    8.7230    1.8661   -0.1469 H   0  0  0  0  0  0  0  0  0  0  0  0
   10.5765    0.8583   -0.5872 C   0  0  0  0  0  0  0  0  0  0  0  0
   10.8860    1.5796   -1.3366 H   0  0  0  0  0  0  0  0  0  0  0  0
   11.4056   -0.2228   -0.2704 C   0  0  0  0  0  0  0  0  0  0  0  0
   12.3698   -0.3295   -0.7491 H   0  0  0  0  0  0  0  0  0  0  0  0
   11.0129   -1.1489    0.7011 C   0  0  0  0  0  0  0  0  0  0  0  0
   14.2170   -2.6611    1.3876 C   0  0  0  0  0  0  0  0  0  0  0  0
   14.4099   -2.3291    2.7018 N   0  0  0  0  0  0  0  0  0  0  0  0
   15.3524   -2.3339    3.0874 H   0  0  0  0  0  0  0  0  0  0  0  0
   13.6110   -2.0944    3.2868 H   0  0  0  0  0  0  0  0  0  0  0  0
   15.2250   -2.9219    0.6192 N   0  0  0  0  0  4  0  0  0  0  0  0
   16.2009   -2.9388    0.9337 H   0  0  0  0  0  0  0  0  0  0  0  0
   15.3059   -0.8451   -1.4966 C   0  0  0  0  0  0  0  0  0  0  0  0
   14.8643   -0.5060   -0.5647 H   0  0  0  0  0  0  0  0  0  0  0  0
   15.4458    2.0106   -0.7993 C   0  0  0  0  0  0  0  0  0  0  0  0
   15.3350    1.2756   -0.0091 H   0  0  0  0  0  0  0  0  0  0  0  0
   15.3825    3.3845   -0.5563 C   0  0  0  0  0  0  0  0  0  0  0  0
   15.1820    3.7690    0.4361 H   0  0  0  0  0  0  0  0  0  0  0  0
  1  2  1  0
  2  3  2  0
  3  4  1  0
  4  5  1  0
  4  6  2  0
  6  7  1  0
  7  8  2  0
  8  9  1  0
  8 10  1  0
 10 11  1  0
 10 12  2  0
 12 13  1  0
 12 14  1  0
 15 14  1  6
 15 16  1  0
 16 17  2  0
 17 18  1  0
 17 19  1  0
 19 20  1  0
 19 21  2  0
 21 22  1  0
 21 23  1  0
 23 24  1  0
 23 25  2  0
 25 26  1  0
 15 27  1  0
 27 28  2  0
 27 29  1  0
 29 30  1  0
 30 31  2  0
 31 32  1  0
 31 33  1  0
 33 34  1  0
 34 35  2  0
 35 36  1  0
 35 37  1  0
 37 38  1  0
 37 39  2  0
 39 40  1  0
 39 41  1  0
 41 42  1  0
 41 43  2  0
 29 44  1  0
 44 45  1  0
 45 46  1  0
 45 47  1  0
 44 48  2  0
 48 49  1  0
 14 50  2  0
 50 51  1  0
  6 52  1  0
 52 53  1  0
 52 54  2  0
 54 55  1  0
 54  2  1  0
 50  7  1  0
 48 15  1  0
 25 16  1  0
 43 30  1  0
 43 34  1  0
M  CHG  1  48   1
M  END
>  <score>  (184) 
5.64155

$$$$

     RDKit          3D

 55 58  0  0  0  0  0  0  0  0999 V2000
   15.5225    5.3115   -1.4218 H   0  0  0  0  0  0  0  0  0  0  0  0
   15.5845    4.2467   -1.6188 C   0  0  0  0  0  0  0  0  0  0  0  0
   15.8433    3.8383   -2.8697 N   0  0  0  0  0  0  0  0  0  0  0  0
   15.9058    2.5162   -3.1033 C   0  0  0  0  0  0  0  0  0  0  0  0
   16.1091    2.1899   -4.1190 H   0  0  0  0  0  0  0  0  0  0  0  0
   15.7172    1.5498   -2.0996 C   0  0  0  0  0  0  0  0  0  0  0  0
   15.7922    0.1172   -2.3958 C   0  0  0  0  0  0  0  0  0  0  0  0
   16.3313   -0.3131   -3.6107 C   0  0  0  0  0  0  0  0  0  0  0  0
   16.6912    0.4247   -4.3211 H   0  0  0  0  0  0  0  0  0  0  0  0
   16.4157   -1.6743   -3.9032 C   0  0  0  0  0  0  0  0  0  0  0  0
   16.8475   -1.9916   -4.8466 H   0  0  0  0  0  0  0  0  0  0  0  0
   15.9612   -2.6185   -2.9756 C   0  0  0  0  0  0  0  0  0  0  0  0
   16.0201   -3.6748   -3.2131 H   0  0  0  0  0  0  0  0  0  0  0  0
   15.4312   -2.2185   -1.7402 C   0  0  0  0  0  0  0  0  0  0  0  0
   14.8789   -3.2266   -0.7408 C   0  0  2  0  0  0  0  0  0  0  0  0
   15.2302   -4.6807   -1.0449 C   0  0  0  0  0  0  0  0  0  0  0  0
   16.4453   -5.2235   -0.5978 C   0  0  0  0  0  0  0  0  0  0  0  0
   17.1415   -4.5888   -0.0578 H   0  0  0  0  0  0  0  0  0  0  0  0
   16.7562   -6.5705   -0.8078 C   0  0  0  0  0  0  0  0  0  0  0  0
   17.6873   -6.9706   -0.4174 H   0  0  0  0  0  0  0  0  0  0  0  0
   15.8596   -7.3965   -1.4921 C   0  0  0  0  0  0  0  0  0  0  0  0
   16.0925   -8.4481   -1.6368 H   0  0  0  0  0  0  0  0  0  0  0  0
   14.6555   -6.8665   -1.9682 C   0  0  0  0  0  0  0  0  0  0  0  0
   13.9526   -7.5118   -2.4867 H   0  0  0  0  0  0  0  0  0  0  0  0
   14.3408   -5.5184   -1.7456 C   0  0  0  0  0  0  0  0  0  0  0  0
   13.3890   -5.1324   -2.1008 H   0  0  0  0  0  0  0  0  0  0  0  0
   13.3659   -2.9982   -0.5991 C   0  0  0  0  0  0  0  0  0  0  0  0
   12.5392   -3.1509   -1.5001 O   0  0  0  0  0  0  0  0  0  0  0  0
   13.0590   -2.5840    0.6960 N   0  0  0  0  0  0  0  0  0  0  0  0
   11.7679   -2.1095    1.2059 N   0  0  0  0  0  0  0  0  0  0  0  0
   11.7574   -1.2291    1.7194 H   0  0  0  0  0  0  0  0  0  0  0  0
   10.4929   -2.6274    0.9633 C   0  0  0  0  0  0  0  0  0  0  0  0
   10.3322   -3.6378    0.2945 O   0  0  0  0  0  0  0  0  0  0  0  0
    9.2469   -1.8799    1.4485 C   0  0  0  0  0  0  0  0  0  0  0  0
    9.5434   -0.8593    1.6923 H   0  0  0  0  0  0  0  0  0  0  0  0
    8.5131   -1.8379    0.6356 H   0  0  0  0  0  0  0  0  0  0  0  0
    8.6048   -2.5200    2.6874 C   0  0  0  0  0  0  0  0  0  0  0  0
    8.3263   -3.5630    2.4930 H   0  0  0  0  0  0  0  0  0  0  0  0
    7.6826   -1.9870    2.9450 H   0  0  0  0  0  0  0  0  0  0  0  0
    9.5831   -2.4281    3.8485 C   0  0  0  0  0  0  0  0  0  0  0  0
   10.5604   -2.8490    3.5911 H   0  0  0  0  0  0  0  0  0  0  0  0
    9.1715   -2.9444    4.7175 H   0  0  0  0  0  0  0  0  0  0  0  0
    9.7320   -1.3867    4.0956 H   0  0  0  0  0  0  0  0  0  0  0  0
   14.2865   -2.5472    1.3732 C   0  0  0  0  0  0  0  0  0  0  0  0
   14.5062   -2.2024    2.6811 N   0  0  0  0  0  0  0  0  0  0  0  0
   13.7064   -2.1422    3.3074 H   0  0  0  0  0  0  0  0  0  0  0  0
   15.4344   -2.3740    3.0697 H   0  0  0  0  0  0  0  0  0  0  0  0
   15.2908   -2.8967    0.6338 N   0  0  0  0  0  4  0  0  0  0  0  0
   16.2449   -3.0291    0.9776 H   0  0  0  0  0  0  0  0  0  0  0  0
   15.3343   -0.8403   -1.4754 C   0  0  0  0  0  0  0  0  0  0  0  0
   14.8814   -0.5052   -0.5457 H   0  0  0  0  0  0  0  0  0  0  0  0
   15.4808    1.9848   -0.7977 C   0  0  0  0  0  0  0  0  0  0  0  0
   15.3808    1.2628    0.0082 H   0  0  0  0  0  0  0  0  0  0  0  0
   15.4038    3.3523   -0.5608 C   0  0  0  0  0  0  0  0  0  0  0  0
   15.2201    3.7281    0.4380 H   0  0  0  0  0  0  0  0  0  0  0  0
  1  2  1  0
  2  3  2  0
  3  4  1  0
  4  5  1  0
  4  6  2  0
  6  7  1  0
  7  8  2  0
  8  9  1  0
  8 10  1  0
 10 11  1  0
 10 12  2  0
 12 13  1  0
 12 14  1  0
 15 14  1  6
 15 16  1  0
 16 17  2  0
 17 18  1  0
 17 19  1  0
 19 20  1  0
 19 21  2  0
 21 22  1  0
 21 23  1  0
 23 24  1  0
 23 25  2  0
 25 26  1  0
 15 27  1  0
 27 28  2  0
 27 29  1  0
 29 30  1  0
 30 31  1  0
 30 32  1  0
 32 33  2  0
 32 34  1  0
 34 35  1  0
 34 36  1  0
 34 37  1  0
 37 38  1  0
 37 39  1  0
 37 40  1  0
 40 41  1  0
 40 42  1  0
 40 43  1  0
 29 44  1  0
 44 45  1  0
 45 46  1  0
 45 47  1  0
 44 48  2  0
 48 49  1  0
 14 50  2  0
 50 51  1  0
  6 52  1  0
 52 53  1  0
 52 54  2  0
 54 55  1  0
 54  2  1  0
 50  7  1  0
 48 15  1  0
 25 16  1  0
M  CHG  1  48   1
M  END
>  <score>  (185) 
5.63835

$$$$

     RDKit          3D

 52 55  0  0  0  0  0  0  0  0999 V2000
   15.5414    5.3351   -1.4061 H   0  0  0  0  0  0  0  0  0  0  0  0
   15.5853    4.2698   -1.6106 C   0  0  0  0  0  0  0  0  0  0  0  0
   15.8346    3.8580   -2.8631 N   0  0  0  0  0  0  0  0  0  0  0  0
   15.8901    2.5333   -3.0974 C   0  0  0  0  0  0  0  0  0  0  0  0
   16.0848    2.1998   -4.1124 H   0  0  0  0  0  0  0  0  0  0  0  0
   15.7045    1.5635   -2.0965 C   0  0  0  0  0  0  0  0  0  0  0  0
   15.7724    0.1220   -2.3938 C   0  0  0  0  0  0  0  0  0  0  0  0
   16.3276   -0.3182   -3.5997 C   0  0  0  0  0  0  0  0  0  0  0  0
   16.7065    0.4167   -4.3038 H   0  0  0  0  0  0  0  0  0  0  0  0
   16.4042   -1.6840   -3.8903 C   0  0  0  0  0  0  0  0  0  0  0  0
   16.8593   -2.0091   -4.8232 H   0  0  0  0  0  0  0  0  0  0  0  0
   15.9152   -2.6260   -2.9718 C   0  0  0  0  0  0  0  0  0  0  0  0
   15.9832   -3.6842   -3.2073 H   0  0  0  0  0  0  0  0  0  0  0  0
   15.3514   -2.2213   -1.7465 C   0  0  0  0  0  0  0  0  0  0  0  0
   14.7764   -3.2306   -0.7461 C   0  0  2  0  0  0  0  0  0  0  0  0
   15.1602   -4.6815   -1.0508 C   0  0  0  0  0  0  0  0  0  0  0  0
   16.3848   -5.2025   -0.5963 C   0  0  0  0  0  0  0  0  0  0  0  0
   17.0654   -4.5542   -0.0523 H   0  0  0  0  0  0  0  0  0  0  0  0
   16.7253   -6.5454   -0.7979 C   0  0  0  0  0  0  0  0  0  0  0  0
   17.6683   -6.9296   -0.4168 H   0  0  0  0  0  0  0  0  0  0  0  0
   15.8466   -7.3913   -1.4797 C   0  0  0  0  0  0  0  0  0  0  0  0
   16.1043   -8.4374   -1.6224 H   0  0  0  0  0  0  0  0  0  0  0  0
   14.6358   -6.8882   -1.9661 C   0  0  0  0  0  0  0  0  0  0  0  0
   13.9574   -7.5543   -2.4926 H   0  0  0  0  0  0  0  0  0  0  0  0
   14.2940   -5.5428   -1.7534 C   0  0  0  0  0  0  0  0  0  0  0  0
   13.3403   -5.1751   -2.1195 H   0  0  0  0  0  0  0  0  0  0  0  0
   13.2480   -3.0415   -0.5546 C   0  0  0  0  0  0  0  0  0  0  0  0
   12.3256   -3.1305   -1.3632 O   0  0  0  0  0  0  0  0  0  0  0  0
   13.0145   -2.7999    0.7654 N   0  0  0  0  0  0  0  0  0  0  0  0
   11.7720   -2.5668    1.2508 C   0  0  0  0  0  0  0  0  0  0  0  0
   10.9315   -2.0690    0.5266 O   0  0  0  0  0  0  0  0  0  0  0  0
   11.4705   -3.0680    2.4857 N   0  0  0  0  0  0  0  0  0  0  0  0
   12.1806   -3.6687    2.8808 H   0  0  0  0  0  0  0  0  0  0  0  0
   10.1789   -2.9705    3.1513 C   0  0  0  0  0  0  0  0  0  0  0  0
    9.8564   -1.9275    3.1640 H   0  0  0  0  0  0  0  0  0  0  0  0
   10.2879   -3.2901    4.1932 H   0  0  0  0  0  0  0  0  0  0  0  0
    9.1099   -3.8171    2.4693 C   0  0  0  0  0  0  0  0  0  0  0  0
    9.3847   -4.8734    2.4722 H   0  0  0  0  0  0  0  0  0  0  0  0
    8.1647   -3.7088    3.0041 H   0  0  0  0  0  0  0  0  0  0  0  0
    8.9541   -3.5002    1.4370 H   0  0  0  0  0  0  0  0  0  0  0  0
   14.1906   -2.7372    1.4394 C   0  0  0  0  0  0  0  0  0  0  0  0
   14.3409   -2.4660    2.7701 N   0  0  0  0  0  0  0  0  0  0  0  0
   13.5724   -1.9985    3.2443 H   0  0  0  0  0  0  0  0  0  0  0  0
   15.2889   -2.2715    3.0883 H   0  0  0  0  0  0  0  0  0  0  0  0
   15.1932   -2.9210    0.6475 N   0  0  0  0  0  4  0  0  0  0  0  0
   16.1645   -2.9455    0.9596 H   0  0  0  0  0  0  0  0  0  0  0  0
   15.2881   -0.8376   -1.4848 C   0  0  0  0  0  0  0  0  0  0  0  0
   14.8489   -0.4900   -0.5559 H   0  0  0  0  0  0  0  0  0  0  0  0
   15.4610    2.0036   -0.7975 C   0  0  0  0  0  0  0  0  0  0  0  0
   15.3490    1.2725   -0.0033 H   0  0  0  0  0  0  0  0  0  0  0  0
   15.3892    3.3739   -0.5583 C   0  0  0  0  0  0  0  0  0  0  0  0
   15.1949    3.7555    0.4365 H   0  0  0  0  0  0  0  0  0  0  0  0
  1  2  1  0
  2  3  2  0
  3  4  1  0
  4  5  1  0
  4  6  2  0
  6  7  1  0
  7  8  2  0
  8  9  1  0
  8 10  1  0
 10 11  1  0
 10 12  2  0
 12 13  1  0
 12 14  1  0
 15 14  1  6
 15 16  1  0
 16 17  2  0
 17 18  1  0
 17 19  1  0
 19 20  1  0
 19 21  2  0
 21 22  1  0
 21 23  1  0
 23 24  1  0
 23 25  2  0
 25 26  1  0
 15 27  1  0
 27 28  2  0
 27 29  1  0
 29 30  1  0
 30 31  2  0
 30 32  1  0
 32 33  1  0
 32 34  1  0
 34 35  1  0
 34 36  1  0
 34 37  1  0
 37 38  1  0
 37 39  1  0
 37 40  1  0
 29 41  1  0
 41 42  1  0
 42 43  1  0
 42 44  1  0
 41 45  2  0
 45 46  1  0
 14 47  2  0
 47 48  1  0
  6 49  1  0
 49 50  1  0
 49 51  2  0
 51 52  1  0
 51  2  1  0
 47  7  1  0
 45 15  1  0
 25 16  1  0
M  CHG  1  45   1
M  END
>  <score>  (186) 
5.6373

$$$$

     RDKit          3D

 48 52  0  0  0  0  0  0  0  0999 V2000
    8.6627   -2.1800    1.3318 H   0  0  0  0  0  0  0  0  0  0  0  0
    9.6958   -2.4621    1.5223 C   0  0  0  0  0  0  0  0  0  0  0  0
   10.0672   -3.1529    2.6680 N   0  0  0  0  0  0  0  0  0  0  0  0
   11.3556   -3.2685    2.5227 C   0  0  0  0  0  0  0  0  0  0  0  0
   12.0309   -3.7515    3.2205 H   0  0  0  0  0  0  0  0  0  0  0  0
   11.7419   -2.6965    1.3172 N   0  0  0  0  0  0  0  0  0  0  0  0
   13.0315   -2.7040    0.7099 N   0  0  0  0  0  0  0  0  0  0  0  0
   13.2882   -3.0348   -0.6057 C   0  0  0  0  0  0  0  0  0  0  0  0
   12.4459   -3.1609   -1.4892 O   0  0  0  0  0  0  0  0  0  0  0  0
   14.8087   -3.2330   -0.7791 C   0  0  1  0  0  0  0  0  0  0  0  0
   15.1805   -4.6945   -1.0713 C   0  0  0  0  0  0  0  0  0  0  0  0
   16.3991   -5.2186   -0.6058 C   0  0  0  0  0  0  0  0  0  0  0  0
   17.0727   -4.5692   -0.0549 H   0  0  0  0  0  0  0  0  0  0  0  0
   16.7361   -6.5647   -0.8057 C   0  0  0  0  0  0  0  0  0  0  0  0
   17.6697   -6.9571   -0.4115 H   0  0  0  0  0  0  0  0  0  0  0  0
   15.8573   -7.4169   -1.4803 C   0  0  0  0  0  0  0  0  0  0  0  0
   16.1048   -8.4674   -1.6147 H   0  0  0  0  0  0  0  0  0  0  0  0
   14.6464   -6.9135   -1.9647 C   0  0  0  0  0  0  0  0  0  0  0  0
   13.9642   -7.5796   -2.4869 H   0  0  0  0  0  0  0  0  0  0  0  0
   14.3124   -5.5630   -1.7638 C   0  0  0  0  0  0  0  0  0  0  0  0
   13.3576   -5.1917   -2.1254 H   0  0  0  0  0  0  0  0  0  0  0  0
   15.3695   -2.2252   -1.7795 C   0  0  0  0  0  0  0  0  0  0  0  0
   15.9405   -2.6342   -2.9951 C   0  0  0  0  0  0  0  0  0  0  0  0
   15.9962   -3.6944   -3.2331 H   0  0  0  0  0  0  0  0  0  0  0  0
   16.4254   -1.6833   -3.9024 C   0  0  0  0  0  0  0  0  0  0  0  0
   16.8615   -2.0044   -4.8423 H   0  0  0  0  0  0  0  0  0  0  0  0
   16.3312   -0.3146   -3.6104 C   0  0  0  0  0  0  0  0  0  0  0  0
   16.7069    0.4373   -4.2956 H   0  0  0  0  0  0  0  0  0  0  0  0
   15.7729    0.1234   -2.4086 C   0  0  0  0  0  0  0  0  0  0  0  0
   15.6984    1.5678   -2.0999 C   0  0  0  0  0  0  0  0  0  0  0  0
   15.8799    2.5412   -3.0944 C   0  0  0  0  0  0  0  0  0  0  0  0
   16.0748    2.1926   -4.1026 H   0  0  0  0  0  0  0  0  0  0  0  0
   15.8199    3.8685   -2.8612 N   0  0  0  0  0  0  0  0  0  0  0  0
   15.5861    4.2868   -1.6061 C   0  0  0  0  0  0  0  0  0  0  0  0
   15.5532    5.3543   -1.3922 H   0  0  0  0  0  0  0  0  0  0  0  0
   15.3874    3.3846   -0.5571 C   0  0  0  0  0  0  0  0  0  0  0  0
   15.1790    3.7736    0.4335 H   0  0  0  0  0  0  0  0  0  0  0  0
   15.4534    2.0086   -0.8025 C   0  0  0  0  0  0  0  0  0  0  0  0
   15.3413    1.2644   -0.0201 H   0  0  0  0  0  0  0  0  0  0  0  0
   15.3010   -0.8418   -1.5052 C   0  0  0  0  0  0  0  0  0  0  0  0
   14.8692   -0.4949   -0.5722 H   0  0  0  0  0  0  0  0  0  0  0  0
   15.2345   -2.8840    0.5927 N   0  0  0  0  0  4  0  0  0  0  0  0
   16.2002   -2.9578    0.9180 H   0  0  0  0  0  0  0  0  0  0  0  0
   14.2353   -2.6340    1.3712 C   0  0  0  0  0  0  0  0  0  0  0  0
   14.4117   -2.3682    2.7002 N   0  0  0  0  0  0  0  0  0  0  0  0
   13.6348   -1.9956    3.2445 H   0  0  0  0  0  0  0  0  0  0  0  0
   15.3630   -2.3369    3.0713 H   0  0  0  0  0  0  0  0  0  0  0  0
   10.6713   -2.1861    0.6938 N   0  0  0  0  0  0  0  0  0  0  0  0
  1  2  1  0
  2  3  1  0
  3  4  2  0
  4  5  1  0
  4  6  1  0
  6  7  1  0
  7  8  1  0
  8  9  2  0
  8 10  1  0
 10 11  1  6
 11 12  2  0
 12 13  1  0
 12 14  1  0
 14 15  1  0
 14 16  2  0
 16 17  1  0
 16 18  1  0
 18 19  1  0
 18 20  2  0
 20 21  1  0
 10 22  1  0
 22 23  2  0
 23 24  1  0
 23 25  1  0
 25 26  1  0
 25 27  2  0
 27 28  1  0
 27 29  1  0
 29 30  1  0
 30 31  2  0
 31 32  1  0
 31 33  1  0
 33 34  2  0
 34 35  1  0
 34 36  1  0
 36 37  1  0
 36 38  2  0
 38 39  1  0
 29 40  2  0
 40 41  1  0
 10 42  1  0
 42 43  1  0
 42 44  2  0
 44 45  1  0
 45 46  1  0
 45 47  1  0
  6 48  1  0
 48  2  2  0
 44  7  1  0
 20 11  1  0
 40 22  1  0
 38 30  1  0
M  CHG  1  42   1
M  END
>  <score>  (187) 
5.63673

$$$$

     RDKit          3D

 44 47  0  0  0  0  0  0  0  0999 V2000
    9.8029   -1.7025    2.0899 H   0  0  0  0  0  0  0  0  0  0  0  0
   10.7376   -1.9948    1.6716 C   0  0  0  0  0  0  0  0  0  0  0  0
   11.8051   -2.3154    1.2012 C   0  0  0  0  0  0  0  0  0  0  0  0
   13.0039   -2.6628    0.7017 N   0  0  0  0  0  0  0  0  0  0  0  0
   13.2805   -3.0241   -0.6030 C   0  0  0  0  0  0  0  0  0  0  0  0
   12.4430   -3.0945   -1.5039 O   0  0  0  0  0  0  0  0  0  0  0  0
   14.7949   -3.2513   -0.7746 C   0  0  1  0  0  0  0  0  0  0  0  0
   15.1642   -4.7151   -1.0652 C   0  0  0  0  0  0  0  0  0  0  0  0
   16.3882   -5.2359   -0.6105 C   0  0  0  0  0  0  0  0  0  0  0  0
   17.0663   -4.5873   -0.0634 H   0  0  0  0  0  0  0  0  0  0  0  0
   16.7273   -6.5818   -0.8022 C   0  0  0  0  0  0  0  0  0  0  0  0
   17.6722   -6.9548   -0.4177 H   0  0  0  0  0  0  0  0  0  0  0  0
   15.8532   -7.4412   -1.4722 C   0  0  0  0  0  0  0  0  0  0  0  0
   16.1222   -8.4866   -1.6112 H   0  0  0  0  0  0  0  0  0  0  0  0
   14.6431   -6.9388   -1.9618 C   0  0  0  0  0  0  0  0  0  0  0  0
   13.9734   -7.6133   -2.4880 H   0  0  0  0  0  0  0  0  0  0  0  0
   14.3009   -5.5881   -1.7649 C   0  0  0  0  0  0  0  0  0  0  0  0
   13.3521   -5.2353   -2.1585 H   0  0  0  0  0  0  0  0  0  0  0  0
   15.3714   -2.2476   -1.7782 C   0  0  0  0  0  0  0  0  0  0  0  0
   15.9402   -2.6459   -3.0022 C   0  0  0  0  0  0  0  0  0  0  0  0
   16.0045   -3.6999   -3.2598 H   0  0  0  0  0  0  0  0  0  0  0  0
   16.4304   -1.6912   -3.9070 C   0  0  0  0  0  0  0  0  0  0  0  0
   16.8647   -2.0090   -4.8516 H   0  0  0  0  0  0  0  0  0  0  0  0
   16.3514   -0.3228   -3.6099 C   0  0  0  0  0  0  0  0  0  0  0  0
   16.7255    0.4057   -4.3235 H   0  0  0  0  0  0  0  0  0  0  0  0
   15.7704    0.1175   -2.4103 C   0  0  0  0  0  0  0  0  0  0  0  0
   15.6854    1.5720   -2.0947 C   0  0  0  0  0  0  0  0  0  0  0  0
   15.8618    2.5537   -3.0876 C   0  0  0  0  0  0  0  0  0  0  0  0
   16.0446    2.2258   -4.1065 H   0  0  0  0  0  0  0  0  0  0  0  0
   15.8200    3.8812   -2.8451 N   0  0  0  0  0  0  0  0  0  0  0  0
   15.5827    4.3038   -1.5941 C   0  0  0  0  0  0  0  0  0  0  0  0
   15.5707    5.3725   -1.3876 H   0  0  0  0  0  0  0  0  0  0  0  0
   15.3708    3.4027   -0.5514 C   0  0  0  0  0  0  0  0  0  0  0  0
   15.1677    3.7870    0.4403 H   0  0  0  0  0  0  0  0  0  0  0  0
   15.4358    2.0273   -0.7957 C   0  0  0  0  0  0  0  0  0  0  0  0
   15.2949    1.3124    0.0054 H   0  0  0  0  0  0  0  0  0  0  0  0
   15.2926   -0.8611   -1.5154 C   0  0  0  0  0  0  0  0  0  0  0  0
   14.8705   -0.5249   -0.5760 H   0  0  0  0  0  0  0  0  0  0  0  0
   15.2033   -2.9012    0.6003 N   0  0  0  0  0  4  0  0  0  0  0  0
   16.1756   -2.9142    0.9045 H   0  0  0  0  0  0  0  0  0  0  0  0
   14.2074   -2.6207    1.3736 C   0  0  0  0  0  0  0  0  0  0  0  0
   14.4023   -2.3288    2.6972 N   0  0  0  0  0  0  0  0  0  0  0  0
   15.3416   -2.3515    3.0950 H   0  0  0  0  0  0  0  0  0  0  0  0
   13.5932   -2.1349    3.2838 H   0  0  0  0  0  0  0  0  0  0  0  0
  1  2  1  0
  2  3  3  0
  3  4  1  0
  4  5  1  0
  5  6  2  0
  5  7  1  0
  7  8  1  6
  8  9  2  0
  9 10  1  0
  9 11  1  0
 11 12  1  0
 11 13  2  0
 13 14  1  0
 13 15  1  0
 15 16  1  0
 15 17  2  0
 17 18  1  0
  7 19  1  0
 19 20  2  0
 20 21  1  0
 20 22  1  0
 22 23  1  0
 22 24  2  0
 24 25  1  0
 24 26  1  0
 26 27  1  0
 27 28  2  0
 28 29  1  0
 28 30  1  0
 30 31  2  0
 31 32  1  0
 31 33  1  0
 33 34  1  0
 33 35  2  0
 35 36  1  0
 26 37  2  0
 37 38  1  0
  7 39  1  0
 39 40  1  0
 39 41  2  0
 41 42  1  0
 42 43  1  0
 42 44  1  0
 41  4  1  0
 17  8  1  0
 37 19  1  0
 35 27  1  0
M  CHG  1  39   1
M  END
>  <score>  (188) 
5.63628

$$$$

     RDKit          3D

 53 57  0  0  0  0  0  0  0  0999 V2000
    8.8174   -3.5750    4.2726 H   0  0  0  0  0  0  0  0  0  0  0  0
    9.7073   -3.8180    3.9994 O   0  0  0  0  0  0  0  0  0  0  0  0
   10.0746   -3.0671    2.9282 C   0  0  0  0  0  0  0  0  0  0  0  0
    9.1661   -2.1688    2.3765 C   0  0  0  0  0  0  0  0  0  0  0  0
    8.1865   -2.0694    2.8315 H   0  0  0  0  0  0  0  0  0  0  0  0
    9.5409   -1.4246    1.2543 C   0  0  0  0  0  0  0  0  0  0  0  0
    8.8606   -0.7053    0.8119 H   0  0  0  0  0  0  0  0  0  0  0  0
   10.8177   -1.6054    0.7031 C   0  0  0  0  0  0  0  0  0  0  0  0
   11.1335   -1.0307   -0.1563 H   0  0  0  0  0  0  0  0  0  0  0  0
   11.7276   -2.5003    1.2745 C   0  0  0  0  0  0  0  0  0  0  0  0
   12.9910   -2.6946    0.7202 N   0  0  0  0  0  0  0  0  0  0  0  0
   13.2653   -3.0162   -0.5912 C   0  0  0  0  0  0  0  0  0  0  0  0
   12.4118   -3.1044   -1.4713 O   0  0  0  0  0  0  0  0  0  0  0  0
   14.7873   -3.2381   -0.7707 C   0  0  1  0  0  0  0  0  0  0  0  0
   15.1614   -4.7006   -1.0642 C   0  0  0  0  0  0  0  0  0  0  0  0
   16.3853   -5.2227   -0.6011 C   0  0  0  0  0  0  0  0  0  0  0  0
   17.0688   -4.5754   -0.0601 H   0  0  0  0  0  0  0  0  0  0  0  0
   16.7315   -6.5658   -0.8034 C   0  0  0  0  0  0  0  0  0  0  0  0
   17.6697   -6.9529   -0.4159 H   0  0  0  0  0  0  0  0  0  0  0  0
   15.8573   -7.4207   -1.4780 C   0  0  0  0  0  0  0  0  0  0  0  0
   16.1099   -8.4695   -1.6134 H   0  0  0  0  0  0  0  0  0  0  0  0
   14.6449   -6.9222   -1.9638 C   0  0  0  0  0  0  0  0  0  0  0  0
   13.9664   -7.5894   -2.4880 H   0  0  0  0  0  0  0  0  0  0  0  0
   14.3019   -5.5733   -1.7638 C   0  0  0  0  0  0  0  0  0  0  0  0
   13.3511   -5.2066   -2.1375 H   0  0  0  0  0  0  0  0  0  0  0  0
   15.3654   -2.2315   -1.7728 C   0  0  0  0  0  0  0  0  0  0  0  0
   15.9375   -2.6381   -2.9928 C   0  0  0  0  0  0  0  0  0  0  0  0
   15.9975   -3.6960   -3.2372 H   0  0  0  0  0  0  0  0  0  0  0  0
   16.4233   -1.6882   -3.9017 C   0  0  0  0  0  0  0  0  0  0  0  0
   16.8634   -2.0062   -4.8407 H   0  0  0  0  0  0  0  0  0  0  0  0
   16.3320   -0.3202   -3.6114 C   0  0  0  0  0  0  0  0  0  0  0  0
   16.7172    0.4178   -4.3070 H   0  0  0  0  0  0  0  0  0  0  0  0
   15.7755    0.1217   -2.4059 C   0  0  0  0  0  0  0  0  0  0  0  0
   15.6933    1.5692   -2.0975 C   0  0  0  0  0  0  0  0  0  0  0  0
   15.8759    2.5456   -3.0916 C   0  0  0  0  0  0  0  0  0  0  0  0
   16.0621    2.2102   -4.1054 H   0  0  0  0  0  0  0  0  0  0  0  0
   15.8216    3.8728   -2.8582 N   0  0  0  0  0  0  0  0  0  0  0  0
   15.5878    4.2902   -1.6032 C   0  0  0  0  0  0  0  0  0  0  0  0
   15.5576    5.3572   -1.3921 H   0  0  0  0  0  0  0  0  0  0  0  0
   15.3806    3.3903   -0.5546 C   0  0  0  0  0  0  0  0  0  0  0  0
   15.1770    3.7744    0.4392 H   0  0  0  0  0  0  0  0  0  0  0  0
   15.4398    2.0156   -0.8000 C   0  0  0  0  0  0  0  0  0  0  0  0
   15.3247    1.2868   -0.0052 H   0  0  0  0  0  0  0  0  0  0  0  0
   15.3032   -0.8466   -1.5003 C   0  0  0  0  0  0  0  0  0  0  0  0
   14.8615   -0.5107   -0.5682 H   0  0  0  0  0  0  0  0  0  0  0  0
   15.1975   -2.9152    0.6167 N   0  0  0  0  0  4  0  0  0  0  0  0
   16.1683   -2.9284    0.9375 H   0  0  0  0  0  0  0  0  0  0  0  0
   14.1924   -2.6592    1.3897 C   0  0  0  0  0  0  0  0  0  0  0  0
   14.3852   -2.3640    2.7081 N   0  0  0  0  0  0  0  0  0  0  0  0
   15.3365   -2.3555    3.0798 H   0  0  0  0  0  0  0  0  0  0  0  0
   13.6012   -2.0437    3.2768 H   0  0  0  0  0  0  0  0  0  0  0  0
   11.3463   -3.2245    2.3970 C   0  0  0  0  0  0  0  0  0  0  0  0
   12.0204   -3.9322    2.8687 H   0  0  0  0  0  0  0  0  0  0  0  0
  1  2  1  0
  2  3  1  0
  3  4  2  0
  4  5  1  0
  4  6  1  0
  6  7  1  0
  6  8  2  0
  8  9  1  0
  8 10  1  0
 10 11  1  0
 11 12  1  0
 12 13  2  0
 12 14  1  0
 14 15  1  6
 15 16  2  0
 16 17  1  0
 16 18  1  0
 18 19  1  0
 18 20  2  0
 20 21  1  0
 20 22  1  0
 22 23  1  0
 22 24  2  0
 24 25  1  0
 14 26  1  0
 26 27  2  0
 27 28  1  0
 27 29  1  0
 29 30  1  0
 29 31  2  0
 31 32  1  0
 31 33  1  0
 33 34  1  0
 34 35  2  0
 35 36  1  0
 35 37  1  0
 37 38  2  0
 38 39  1  0
 38 40  1  0
 40 41  1  0
 40 42  2  0
 42 43  1  0
 33 44  2  0
 44 45  1  0
 14 46  1  0
 46 47  1  0
 46 48  2  0
 48 49  1  0
 49 50  1  0
 49 51  1  0
 10 52  2  0
 52 53  1  0
 52  3  1  0
 48 11  1  0
 24 15  1  0
 44 26  1  0
 42 34  1  0
M  CHG  1  46   1
M  END
>  <score>  (189) 
5.63533

$$$$

     RDKit          3D

 54 58  0  0  0  0  0  0  0  0999 V2000
   15.5328    5.3272   -1.4145 H   0  0  0  0  0  0  0  0  0  0  0  0
   15.5876    4.2611   -1.6126 C   0  0  0  0  0  0  0  0  0  0  0  0
   15.8395    3.8475   -2.8638 N   0  0  0  0  0  0  0  0  0  0  0  0
   15.8994    2.5230   -3.0969 C   0  0  0  0  0  0  0  0  0  0  0  0
   16.0954    2.1965   -4.1140 H   0  0  0  0  0  0  0  0  0  0  0  0
   15.7085    1.5539   -2.0950 C   0  0  0  0  0  0  0  0  0  0  0  0
   15.7683    0.1137   -2.3934 C   0  0  0  0  0  0  0  0  0  0  0  0
   16.3237   -0.3255   -3.6003 C   0  0  0  0  0  0  0  0  0  0  0  0
   16.7052    0.4041   -4.3094 H   0  0  0  0  0  0  0  0  0  0  0  0
   16.4024   -1.6895   -3.8835 C   0  0  0  0  0  0  0  0  0  0  0  0
   16.8475   -2.0104   -4.8194 H   0  0  0  0  0  0  0  0  0  0  0  0
   15.9160   -2.6283   -2.9664 C   0  0  0  0  0  0  0  0  0  0  0  0
   15.9783   -3.6846   -3.2022 H   0  0  0  0  0  0  0  0  0  0  0  0
   15.3554   -2.2240   -1.7446 C   0  0  0  0  0  0  0  0  0  0  0  0
   14.7902   -3.2381   -0.7544 C   0  0  2  0  0  0  0  0  0  0  0  0
   15.1750   -4.6823   -1.0421 C   0  0  0  0  0  0  0  0  0  0  0  0
   16.3993   -5.1972   -0.5837 C   0  0  0  0  0  0  0  0  0  0  0  0
   17.0832   -4.5512   -0.0400 H   0  0  0  0  0  0  0  0  0  0  0  0
   16.7327   -6.5380   -0.7953 C   0  0  0  0  0  0  0  0  0  0  0  0
   17.6743   -6.9240   -0.4157 H   0  0  0  0  0  0  0  0  0  0  0  0
   15.8506   -7.3806   -1.4786 C   0  0  0  0  0  0  0  0  0  0  0  0
   16.1038   -8.4248   -1.6330 H   0  0  0  0  0  0  0  0  0  0  0  0
   14.6385   -6.8755   -1.9610 C   0  0  0  0  0  0  0  0  0  0  0  0
   13.9524   -7.5266   -2.4937 H   0  0  0  0  0  0  0  0  0  0  0  0
   14.3041   -5.5346   -1.7440 C   0  0  0  0  0  0  0  0  0  0  0  0
   13.3516   -5.1567   -2.1074 H   0  0  0  0  0  0  0  0  0  0  0  0
   13.2670   -3.0627   -0.6279 C   0  0  0  0  0  0  0  0  0  0  0  0
   12.4403   -3.1025   -1.5381 O   0  0  0  0  0  0  0  0  0  0  0  0
   12.9449   -2.8437    0.6822 N   0  0  0  0  0  0  0  0  0  0  0  0
   11.7874   -2.1887    0.9666 C   0  0  0  0  0  0  0  0  0  0  0  0
   11.7797   -0.8901    0.7147 N   0  0  0  0  0  0  0  0  0  0  0  0
   10.6396   -0.2116    0.9080 C   0  0  0  0  0  0  0  0  0  0  0  0
   10.6202    0.8548    0.6928 H   0  0  0  0  0  0  0  0  0  0  0  0
    9.4830   -0.8241    1.4187 C   0  0  0  0  0  0  0  0  0  0  0  0
    8.6126   -0.2241    1.6421 H   0  0  0  0  0  0  0  0  0  0  0  0
    9.4674   -2.2060    1.6210 C   0  0  0  0  0  0  0  0  0  0  0  0
    8.5763   -2.7269    1.9824 H   0  0  0  0  0  0  0  0  0  0  0  0
   10.6433   -2.8993    1.2997 C   0  0  0  0  0  0  0  0  0  0  0  0
   10.7086   -4.3866    1.1750 C   0  0  0  0  0  0  0  0  0  0  0  0
   10.5435   -4.6854   -0.1415 F   0  0  0  0  0  0  0  0  0  0  0  0
   11.9095   -4.8685    1.5934 F   0  0  0  0  0  0  0  0  0  0  0  0
    9.7132   -4.9810    1.8825 F   0  0  0  0  0  0  0  0  0  0  0  0
   14.1165   -2.6108    1.3529 C   0  0  0  0  0  0  0  0  0  0  0  0
   14.3087   -2.1695    2.6311 N   0  0  0  0  0  0  0  0  0  0  0  0
   15.2501   -2.2803    3.0106 H   0  0  0  0  0  0  0  0  0  0  0  0
   13.5144   -2.1533    3.2711 H   0  0  0  0  0  0  0  0  0  0  0  0
   15.1425   -2.9037    0.6371 N   0  0  0  0  0  4  0  0  0  0  0  0
   16.1013   -2.8631    0.9859 H   0  0  0  0  0  0  0  0  0  0  0  0
   15.2825   -0.8419   -1.4800 C   0  0  0  0  0  0  0  0  0  0  0  0
   14.8399   -0.4964   -0.5491 H   0  0  0  0  0  0  0  0  0  0  0  0
   15.4695    1.9964   -0.7943 C   0  0  0  0  0  0  0  0  0  0  0  0
   15.3579    1.2765    0.0108 H   0  0  0  0  0  0  0  0  0  0  0  0
   15.3999    3.3663   -0.5568 C   0  0  0  0  0  0  0  0  0  0  0  0
   15.2073    3.7417    0.4406 H   0  0  0  0  0  0  0  0  0  0  0  0
  1  2  1  0
  2  3  2  0
  3  4  1  0
  4  5  1  0
  4  6  2  0
  6  7  1  0
  7  8  2  0
  8  9  1  0
  8 10  1  0
 10 11  1  0
 10 12  2  0
 12 13  1  0
 12 14  1  0
 15 14  1  6
 15 16  1  0
 16 17  2  0
 17 18  1  0
 17 19  1  0
 19 20  1  0
 19 21  2  0
 21 22  1  0
 21 23  1  0
 23 24  1  0
 23 25  2  0
 25 26  1  0
 15 27  1  0
 27 28  2  0
 27 29  1  0
 29 30  1  0
 30 31  2  0
 31 32  1  0
 32 33  1  0
 32 34  2  0
 34 35  1  0
 34 36  1  0
 36 37  1  0
 36 38  2  0
 38 39  1  0
 39 40  1  0
 39 41  1  0
 39 42  1  0
 29 43  1  0
 43 44  1  0
 44 45  1  0
 44 46  1  0
 43 47  2  0
 47 48  1  0
 14 49  2  0
 49 50  1  0
  6 51  1  0
 51 52  1  0
 51 53  2  0
 53 54  1  0
 53  2  1  0
 49  7  1  0
 47 15  1  0
 25 16  1  0
 38 30  1  0
M  CHG  1  47   1
M  END
>  <score>  (190) 
5.63479

$$$$

     RDKit          3D

 51 54  0  0  0  0  0  0  0  0999 V2000
    8.7240   -5.3057    3.2222 H   0  0  0  0  0  0  0  0  0  0  0  0
    9.6441   -5.2604    2.9032 O   0  0  0  0  0  0  0  0  0  0  0  0
    9.9708   -3.9653    2.3555 C   0  0  0  0  0  0  0  0  0  0  0  0
    9.3369   -3.7360    1.4937 H   0  0  0  0  0  0  0  0  0  0  0  0
    9.8287   -3.1692    3.0921 H   0  0  0  0  0  0  0  0  0  0  0  0
   11.4171   -3.9296    1.9008 C   0  0  0  0  0  0  0  0  0  0  0  0
   12.0854   -4.1469    2.7375 H   0  0  0  0  0  0  0  0  0  0  0  0
   11.5790   -4.7057    1.1493 H   0  0  0  0  0  0  0  0  0  0  0  0
   11.7333   -2.6099    1.3337 N   0  0  0  0  0  0  0  0  0  0  0  0
   11.6363   -1.8669    2.0453 H   0  0  0  0  0  0  0  0  0  0  0  0
   13.0319   -2.6253    0.6894 N   0  0  0  0  0  0  0  0  0  0  0  0
   13.3046   -3.0188   -0.6236 C   0  0  0  0  0  0  0  0  0  0  0  0
   12.4743   -3.1236   -1.5314 O   0  0  0  0  0  0  0  0  0  0  0  0
   14.8207   -3.2496   -0.7886 C   0  0  1  0  0  0  0  0  0  0  0  0
   15.1770   -4.7166   -1.0761 C   0  0  0  0  0  0  0  0  0  0  0  0
   16.3941   -5.2393   -0.6106 C   0  0  0  0  0  0  0  0  0  0  0  0
   17.0673   -4.5867   -0.0635 H   0  0  0  0  0  0  0  0  0  0  0  0
   16.7298   -6.5832   -0.8028 C   0  0  0  0  0  0  0  0  0  0  0  0
   17.6722   -6.9561   -0.4164 H   0  0  0  0  0  0  0  0  0  0  0  0
   15.8535   -7.4403   -1.4728 C   0  0  0  0  0  0  0  0  0  0  0  0
   16.1207   -8.4858   -1.6114 H   0  0  0  0  0  0  0  0  0  0  0  0
   14.6428   -6.9386   -1.9613 C   0  0  0  0  0  0  0  0  0  0  0  0
   13.9720   -7.6112   -2.4876 H   0  0  0  0  0  0  0  0  0  0  0  0
   14.3043   -5.5879   -1.7668 C   0  0  0  0  0  0  0  0  0  0  0  0
   13.3538   -5.2311   -2.1546 H   0  0  0  0  0  0  0  0  0  0  0  0
   15.3854   -2.2434   -1.7874 C   0  0  0  0  0  0  0  0  0  0  0  0
   15.9473   -2.6449   -3.0092 C   0  0  0  0  0  0  0  0  0  0  0  0
   16.0041   -3.7017   -3.2571 H   0  0  0  0  0  0  0  0  0  0  0  0
   16.4328   -1.6889   -3.9104 C   0  0  0  0  0  0  0  0  0  0  0  0
   16.8652   -2.0068   -4.8536 H   0  0  0  0  0  0  0  0  0  0  0  0
   16.3487   -0.3212   -3.6111 C   0  0  0  0  0  0  0  0  0  0  0  0
   16.7245    0.4087   -4.3207 H   0  0  0  0  0  0  0  0  0  0  0  0
   15.7708    0.1192   -2.4114 C   0  0  0  0  0  0  0  0  0  0  0  0
   15.6861    1.5717   -2.0961 C   0  0  0  0  0  0  0  0  0  0  0  0
   15.8636    2.5534   -3.0878 C   0  0  0  0  0  0  0  0  0  0  0  0
   16.0462    2.2234   -4.1052 H   0  0  0  0  0  0  0  0  0  0  0  0
   15.8197    3.8815   -2.8478 N   0  0  0  0  0  0  0  0  0  0  0  0
   15.5834    4.3035   -1.5956 C   0  0  0  0  0  0  0  0  0  0  0  0
   15.5695    5.3722   -1.3872 H   0  0  0  0  0  0  0  0  0  0  0  0
   15.3725    3.4015   -0.5516 C   0  0  0  0  0  0  0  0  0  0  0  0
   15.1679    3.7861    0.4407 H   0  0  0  0  0  0  0  0  0  0  0  0
   15.4368    2.0254   -0.7974 C   0  0  0  0  0  0  0  0  0  0  0  0
   15.2987    1.3083    0.0021 H   0  0  0  0  0  0  0  0  0  0  0  0
   15.2972   -0.8587   -1.5171 C   0  0  0  0  0  0  0  0  0  0  0  0
   14.8695   -0.5288   -0.5768 H   0  0  0  0  0  0  0  0  0  0  0  0
   15.2481   -2.8947    0.5812 N   0  0  0  0  0  4  0  0  0  0  0  0
   16.2180   -2.9215    0.8972 H   0  0  0  0  0  0  0  0  0  0  0  0
   14.2515   -2.6144    1.3533 C   0  0  0  0  0  0  0  0  0  0  0  0
   14.4292   -2.3486    2.6890 N   0  0  0  0  0  0  0  0  0  0  0  0
   15.3627   -2.3554    3.1015 H   0  0  0  0  0  0  0  0  0  0  0  0
   13.6139   -2.1320    3.2601 H   0  0  0  0  0  0  0  0  0  0  0  0
  1  2  1  0
  2  3  1  0
  3  4  1  0
  3  5  1  0
  3  6  1  0
  6  7  1  0
  6  8  1  0
  6  9  1  0
  9 10  1  0
  9 11  1  0
 11 12  1  0
 12 13  2  0
 12 14  1  0
 14 15  1  6
 15 16  2  0
 16 17  1  0
 16 18  1  0
 18 19  1  0
 18 20  2  0
 20 21  1  0
 20 22  1  0
 22 23  1  0
 22 24  2  0
 24 25  1  0
 14 26  1  0
 26 27  2  0
 27 28  1  0
 27 29  1  0
 29 30  1  0
 29 31  2  0
 31 32  1  0
 31 33  1  0
 33 34  1  0
 34 35  2  0
 35 36  1  0
 35 37  1  0
 37 38  2  0
 38 39  1  0
 38 40  1  0
 40 41  1  0
 40 42  2  0
 42 43  1  0
 33 44  2  0
 44 45  1  0
 14 46  1  0
 46 47  1  0
 46 48  2  0
 48 49  1  0
 49 50  1  0
 49 51  1  0
 48 11  1  0
 24 15  1  0
 44 26  1  0
 42 34  1  0
M  CHG  1  46   1
M  END
>  <score>  (191) 
5.63153

$$$$

     RDKit          3D

 47 51  0  0  0  0  0  0  0  0999 V2000
   15.5462    5.3390   -1.4045 H   0  0  0  0  0  0  0  0  0  0  0  0
   15.5867    4.2732   -1.6078 C   0  0  0  0  0  0  0  0  0  0  0  0
   15.8336    3.8612   -2.8595 N   0  0  0  0  0  0  0  0  0  0  0  0
   15.8842    2.5365   -3.0951 C   0  0  0  0  0  0  0  0  0  0  0  0
   16.0743    2.2098   -4.1126 H   0  0  0  0  0  0  0  0  0  0  0  0
   15.6974    1.5648   -2.0954 C   0  0  0  0  0  0  0  0  0  0  0  0
   15.7759    0.1213   -2.4017 C   0  0  0  0  0  0  0  0  0  0  0  0
   16.3304   -0.3186   -3.6097 C   0  0  0  0  0  0  0  0  0  0  0  0
   16.7143    0.4123   -4.3139 H   0  0  0  0  0  0  0  0  0  0  0  0
   16.4129   -1.6832   -3.9086 C   0  0  0  0  0  0  0  0  0  0  0  0
   16.8638   -2.0057   -4.8412 H   0  0  0  0  0  0  0  0  0  0  0  0
   15.9379   -2.6306   -2.9964 C   0  0  0  0  0  0  0  0  0  0  0  0
   15.9993   -3.6892   -3.2329 H   0  0  0  0  0  0  0  0  0  0  0  0
   15.3932   -2.2281   -1.7718 C   0  0  0  0  0  0  0  0  0  0  0  0
   14.8341   -3.2411   -0.7833 C   0  0  2  0  0  0  0  0  0  0  0  0
   15.1914   -4.6997   -1.0662 C   0  0  0  0  0  0  0  0  0  0  0  0
   16.4049   -5.2237   -0.5966 C   0  0  0  0  0  0  0  0  0  0  0  0
   17.0874   -4.5762   -0.0551 H   0  0  0  0  0  0  0  0  0  0  0  0
   16.7376   -6.5680   -0.7954 C   0  0  0  0  0  0  0  0  0  0  0  0
   17.6800   -6.9508   -0.4138 H   0  0  0  0  0  0  0  0  0  0  0  0
   15.8564   -7.4118   -1.4778 C   0  0  0  0  0  0  0  0  0  0  0  0
   16.1096   -8.4589   -1.6216 H   0  0  0  0  0  0  0  0  0  0  0  0
   14.6463   -6.9081   -1.9648 C   0  0  0  0  0  0  0  0  0  0  0  0
   13.9603   -7.5684   -2.4896 H   0  0  0  0  0  0  0  0  0  0  0  0
   14.3149   -5.5601   -1.7592 C   0  0  0  0  0  0  0  0  0  0  0  0
   13.3625   -5.1913   -2.1290 H   0  0  0  0  0  0  0  0  0  0  0  0
   13.3146   -3.0478   -0.6760 C   0  0  0  0  0  0  0  0  0  0  0  0
   12.4698   -3.1691   -1.5628 O   0  0  0  0  0  0  0  0  0  0  0  0
   13.0380   -2.7063    0.6164 N   0  0  0  0  0  0  0  0  0  0  0  0
   11.7752   -2.4272    1.0478 C   0  0  0  0  0  0  0  0  0  0  0  0
   10.6637   -2.5405    0.2370 N   0  0  0  0  0  0  0  0  0  0  0  0
    9.6563   -2.1261    0.8969 N   0  0  0  0  0  0  0  0  0  0  0  0
   10.1662   -1.7969    2.1077 N   0  0  0  0  0  0  0  0  0  0  0  0
    9.6748   -1.1579    2.7378 H   0  0  0  0  0  0  0  0  0  0  0  0
   11.4951   -2.0009    2.2299 N   0  0  0  0  0  0  0  0  0  0  0  0
   14.1978   -2.5956    1.3389 C   0  0  0  0  0  0  0  0  0  0  0  0
   14.3484   -2.2341    2.6478 N   0  0  0  0  0  0  0  0  0  0  0  0
   15.2828   -2.3284    3.0506 H   0  0  0  0  0  0  0  0  0  0  0  0
   13.5383   -2.2442    3.2668 H   0  0  0  0  0  0  0  0  0  0  0  0
   15.2169   -2.8908    0.6042 N   0  0  0  0  0  4  0  0  0  0  0  0
   16.1749   -2.9335    0.9615 H   0  0  0  0  0  0  0  0  0  0  0  0
   15.3060   -0.8462   -1.4955 C   0  0  0  0  0  0  0  0  0  0  0  0
   14.8561   -0.5142   -0.5647 H   0  0  0  0  0  0  0  0  0  0  0  0
   15.4498    2.0076   -0.7958 C   0  0  0  0  0  0  0  0  0  0  0  0
   15.3361    1.2868    0.0072 H   0  0  0  0  0  0  0  0  0  0  0  0
   15.3845    3.3784   -0.5560 C   0  0  0  0  0  0  0  0  0  0  0  0
   15.1922    3.7583    0.4399 H   0  0  0  0  0  0  0  0  0  0  0  0
  1  2  1  0
  2  3  2  0
  3  4  1  0
  4  5  1  0
  4  6  2  0
  6  7  1  0
  7  8  2  0
  8  9  1  0
  8 10  1  0
 10 11  1  0
 10 12  2  0
 12 13  1  0
 12 14  1  0
 15 14  1  6
 15 16  1  0
 16 17  2  0
 17 18  1  0
 17 19  1  0
 19 20  1  0
 19 21  2  0
 21 22  1  0
 21 23  1  0
 23 24  1  0
 23 25  2  0
 25 26  1  0
 15 27  1  0
 27 28  2  0
 27 29  1  0
 29 30  1  0
 30 31  1  0
 31 32  2  0
 32 33  1  0
 33 34  1  0
 33 35  1  0
 29 36  1  0
 36 37  1  0
 37 38  1  0
 37 39  1  0
 36 40  2  0
 40 41  1  0
 14 42  2  0
 42 43  1  0
  6 44  1  0
 44 45  1  0
 44 46  2  0
 46 47  1  0
 46  2  1  0
 42  7  1  0
 40 15  1  0
 25 16  1  0
 35 30  2  0
M  CHG  1  40   1
M  END
>  <score>  (192) 
5.6297

$$$$

     RDKit          3D

 58 62  0  0  0  0  0  0  0  0999 V2000
   15.5172    5.3192   -1.4239 H   0  0  0  0  0  0  0  0  0  0  0  0
   15.5961    4.2530   -1.6127 C   0  0  0  0  0  0  0  0  0  0  0  0
   15.8446    3.8359   -2.8636 N   0  0  0  0  0  0  0  0  0  0  0  0
   15.9290    2.5118   -3.0888 C   0  0  0  0  0  0  0  0  0  0  0  0
   16.1252    2.1765   -4.1028 H   0  0  0  0  0  0  0  0  0  0  0  0
   15.7602    1.5463   -2.0827 C   0  0  0  0  0  0  0  0  0  0  0  0
   15.8351    0.1075   -2.3875 C   0  0  0  0  0  0  0  0  0  0  0  0
   16.3457   -0.3442   -3.6123 C   0  0  0  0  0  0  0  0  0  0  0  0
   16.6931    0.3749   -4.3477 H   0  0  0  0  0  0  0  0  0  0  0  0
   16.4165   -1.7122   -3.8910 C   0  0  0  0  0  0  0  0  0  0  0  0
   16.8143   -2.0419   -4.8452 H   0  0  0  0  0  0  0  0  0  0  0  0
   15.9734   -2.6450   -2.9474 C   0  0  0  0  0  0  0  0  0  0  0  0
   16.0237   -3.7046   -3.1779 H   0  0  0  0  0  0  0  0  0  0  0  0
   15.4542   -2.2218   -1.7141 C   0  0  0  0  0  0  0  0  0  0  0  0
   14.8886   -3.2023   -0.6984 C   0  0  2  0  0  0  0  0  0  0  0  0
   15.2349   -4.6517   -0.9894 C   0  0  0  0  0  0  0  0  0  0  0  0
   16.4543   -5.1951   -0.5586 C   0  0  0  0  0  0  0  0  0  0  0  0
   17.1646   -4.5695   -0.0248 H   0  0  0  0  0  0  0  0  0  0  0  0
   16.7618   -6.5371   -0.8015 C   0  0  0  0  0  0  0  0  0  0  0  0
   17.7045   -6.9439   -0.4476 H   0  0  0  0  0  0  0  0  0  0  0  0
   15.8558   -7.3490   -1.4928 C   0  0  0  0  0  0  0  0  0  0  0  0
   16.0911   -8.3934   -1.6754 H   0  0  0  0  0  0  0  0  0  0  0  0
   14.6496   -6.8114   -1.9535 C   0  0  0  0  0  0  0  0  0  0  0  0
   13.9471   -7.4336   -2.5003 H   0  0  0  0  0  0  0  0  0  0  0  0
   14.3430   -5.4701   -1.7049 C   0  0  0  0  0  0  0  0  0  0  0  0
   13.4025   -5.0662   -2.0675 H   0  0  0  0  0  0  0  0  0  0  0  0
   13.3750   -2.9773   -0.5745 C   0  0  0  0  0  0  0  0  0  0  0  0
   12.5442   -3.1488   -1.4701 O   0  0  0  0  0  0  0  0  0  0  0  0
   13.0681   -2.5090    0.6998 N   0  0  0  0  0  0  0  0  0  0  0  0
   11.7538   -2.0993    1.1850 N   0  0  0  0  0  0  0  0  0  0  0  0
   11.6538   -1.1743    1.6067 H   0  0  0  0  0  0  0  0  0  0  0  0
   10.5483   -2.7490    0.9386 C   0  0  0  0  0  0  0  0  0  0  0  0
   10.5071   -3.9029    0.5205 O   0  0  0  0  0  0  0  0  0  0  0  0
    9.4075   -1.9889    1.0395 N   0  0  0  0  0  0  0  0  0  0  0  0
    9.5496   -0.9887    0.9392 H   0  0  0  0  0  0  0  0  0  0  0  0
    8.1529   -2.5113    0.7500 C   0  0  0  0  0  0  0  0  0  0  0  0
    7.7414   -3.6816    1.3909 C   0  0  0  0  0  0  0  0  0  0  0  0
    8.4028   -4.1342    2.1253 H   0  0  0  0  0  0  0  0  0  0  0  0
    6.4845   -4.2275    1.1092 C   0  0  0  0  0  0  0  0  0  0  0  0
    6.1460   -5.1318    1.6046 H   0  0  0  0  0  0  0  0  0  0  0  0
    5.6434   -3.6120    0.1807 C   0  0  0  0  0  0  0  0  0  0  0  0
    4.0627   -4.2720   -0.1343 Cl  0  0  0  0  0  0  0  0  0  0  0  0
    6.0545   -2.4430   -0.4633 C   0  0  0  0  0  0  0  0  0  0  0  0
    5.3714   -1.9444   -1.1441 H   0  0  0  0  0  0  0  0  0  0  0  0
    7.3143   -1.8969   -0.1818 C   0  0  0  0  0  0  0  0  0  0  0  0
    7.6317   -0.9993   -0.6963 H   0  0  0  0  0  0  0  0  0  0  0  0
   14.2736   -2.4668    1.3933 C   0  0  0  0  0  0  0  0  0  0  0  0
   14.4947   -2.1087    2.6917 N   0  0  0  0  0  0  0  0  0  0  0  0
   13.6904   -2.0843    3.3197 H   0  0  0  0  0  0  0  0  0  0  0  0
   15.4121   -2.3438    3.0682 H   0  0  0  0  0  0  0  0  0  0  0  0
   15.2825   -2.8411    0.6779 N   0  0  0  0  0  4  0  0  0  0  0  0
   16.2177   -2.9802    1.0605 H   0  0  0  0  0  0  0  0  0  0  0  0
   15.3840   -0.8415   -1.4582 C   0  0  0  0  0  0  0  0  0  0  0  0
   14.9540   -0.4954   -0.5227 H   0  0  0  0  0  0  0  0  0  0  0  0
   15.5207    1.9918   -0.7805 C   0  0  0  0  0  0  0  0  0  0  0  0
   15.4161    1.2815    0.0345 H   0  0  0  0  0  0  0  0  0  0  0  0
   15.4354    3.3614   -0.5497 C   0  0  0  0  0  0  0  0  0  0  0  0
   15.2464    3.7354    0.4490 H   0  0  0  0  0  0  0  0  0  0  0  0
  1  2  1  0
  2  3  2  0
  3  4  1  0
  4  5  1  0
  4  6  2  0
  6  7  1  0
  7  8  2  0
  8  9  1  0
  8 10  1  0
 10 11  1  0
 10 12  2  0
 12 13  1  0
 12 14  1  0
 15 14  1  6
 15 16  1  0
 16 17  2  0
 17 18  1  0
 17 19  1  0
 19 20  1  0
 19 21  2  0
 21 22  1  0
 21 23  1  0
 23 24  1  0
 23 25  2  0
 25 26  1  0
 15 27  1  0
 27 28  2  0
 27 29  1  0
 29 30  1  0
 30 31  1  0
 30 32  1  0
 32 33  2  0
 32 34  1  0
 34 35  1  0
 34 36  1  0
 36 37  2  0
 37 38  1  0
 37 39  1  0
 39 40  1  0
 39 41  2  0
 41 42  1  0
 41 43  1  0
 43 44  1  0
 43 45  2  0
 45 46  1  0
 29 47  1  0
 47 48  1  0
 48 49  1  0
 48 50  1  0
 47 51  2  0
 51 52  1  0
 14 53  2  0
 53 54  1  0
  6 55  1  0
 55 56  1  0
 55 57  2  0
 57 58  1  0
 57  2  1  0
 53  7  1  0
 51 15  1  0
 25 16  1  0
 45 36  1  0
M  CHG  1  51   1
M  END
>  <score>  (193) 
5.62896

$$$$

     RDKit          3D

 59 62  0  0  0  0  0  0  0  0999 V2000
   15.5102    5.3041   -1.4309 H   0  0  0  0  0  0  0  0  0  0  0  0
   15.6000    4.2374   -1.6132 C   0  0  0  0  0  0  0  0  0  0  0  0
   15.8516    3.8163   -2.8621 N   0  0  0  0  0  0  0  0  0  0  0  0
   15.9400    2.4906   -3.0811 C   0  0  0  0  0  0  0  0  0  0  0  0
   16.1426    2.1450   -4.0894 H   0  0  0  0  0  0  0  0  0  0  0  0
   15.7710    1.5275   -2.0742 C   0  0  0  0  0  0  0  0  0  0  0  0
   15.8420    0.0868   -2.3819 C   0  0  0  0  0  0  0  0  0  0  0  0
   16.3403   -0.3640   -3.6117 C   0  0  0  0  0  0  0  0  0  0  0  0
   16.6779    0.3616   -4.3449 H   0  0  0  0  0  0  0  0  0  0  0  0
   16.4141   -1.7320   -3.8928 C   0  0  0  0  0  0  0  0  0  0  0  0
   16.8069   -2.0574   -4.8503 H   0  0  0  0  0  0  0  0  0  0  0  0
   15.9871   -2.6659   -2.9419 C   0  0  0  0  0  0  0  0  0  0  0  0
   16.0494   -3.7265   -3.1654 H   0  0  0  0  0  0  0  0  0  0  0  0
   15.4747   -2.2438   -1.7045 C   0  0  0  0  0  0  0  0  0  0  0  0
   14.9327   -3.2277   -0.6772 C   0  0  2  0  0  0  0  0  0  0  0  0
   15.2815   -4.6685   -0.9807 C   0  0  0  0  0  0  0  0  0  0  0  0
   16.4995   -5.2170   -0.5573 C   0  0  0  0  0  0  0  0  0  0  0  0
   17.2129   -4.5922   -0.0257 H   0  0  0  0  0  0  0  0  0  0  0  0
   16.7945   -6.5589   -0.8137 C   0  0  0  0  0  0  0  0  0  0  0  0
   17.7346   -6.9731   -0.4635 H   0  0  0  0  0  0  0  0  0  0  0  0
   15.8780   -7.3576   -1.5087 C   0  0  0  0  0  0  0  0  0  0  0  0
   16.1013   -8.4030   -1.6958 H   0  0  0  0  0  0  0  0  0  0  0  0
   14.6774   -6.8077   -1.9679 C   0  0  0  0  0  0  0  0  0  0  0  0
   13.9650   -7.4151   -2.5181 H   0  0  0  0  0  0  0  0  0  0  0  0
   14.3865   -5.4676   -1.7115 C   0  0  0  0  0  0  0  0  0  0  0  0
   13.4514   -5.0534   -2.0761 H   0  0  0  0  0  0  0  0  0  0  0  0
   13.4187   -3.0184   -0.5409 C   0  0  0  0  0  0  0  0  0  0  0  0
   12.5755   -3.2928   -1.3944 O   0  0  0  0  0  0  0  0  0  0  0  0
   13.1288   -2.4485    0.6923 N   0  0  0  0  0  0  0  0  0  0  0  0
   11.8468   -1.8606    1.0819 N   0  0  0  0  0  0  0  0  0  0  0  0
   11.3615   -2.1887    1.9141 H   0  0  0  0  0  0  0  0  0  0  0  0
   11.1365   -0.8940    0.3838 C   0  0  0  0  0  0  0  0  0  0  0  0
   11.6002   -0.4259   -0.6491 O   0  0  0  0  0  0  0  0  0  0  0  0
    9.9314   -0.5993    0.9012 O   0  0  0  0  0  0  0  0  0  0  0  0
    9.1894    0.3826    0.1790 C   0  0  0  0  0  0  0  0  0  0  0  0
    7.8830    0.4842    0.9411 C   0  0  0  0  0  0  0  0  0  0  0  0
    7.3455   -0.4604    0.8615 H   0  0  0  0  0  0  0  0  0  0  0  0
    8.0799    0.6702    2.0048 H   0  0  0  0  0  0  0  0  0  0  0  0
    7.2473    1.2711    0.5243 H   0  0  0  0  0  0  0  0  0  0  0  0
    9.9458    1.7198    0.1664 C   0  0  0  0  0  0  0  0  0  0  0  0
   10.2167    2.0247    1.1806 H   0  0  0  0  0  0  0  0  0  0  0  0
    9.3372    2.5053   -0.2962 H   0  0  0  0  0  0  0  0  0  0  0  0
   10.8722    1.6116   -0.4042 H   0  0  0  0  0  0  0  0  0  0  0  0
    8.9186   -0.0900   -1.2595 C   0  0  0  0  0  0  0  0  0  0  0  0
    8.2828    0.6261   -1.7954 H   0  0  0  0  0  0  0  0  0  0  0  0
    8.4321   -1.0723   -1.2601 H   0  0  0  0  0  0  0  0  0  0  0  0
    9.8635   -0.1869   -1.7983 H   0  0  0  0  0  0  0  0  0  0  0  0
   14.3390   -2.4173    1.3864 C   0  0  0  0  0  0  0  0  0  0  0  0
   14.5573   -2.0314    2.6761 N   0  0  0  0  0  0  0  0  0  0  0  0
   13.7467   -2.0054    3.2938 H   0  0  0  0  0  0  0  0  0  0  0  0
   15.4605   -2.2885    3.0701 H   0  0  0  0  0  0  0  0  0  0  0  0
   15.3362   -2.8615    0.6907 N   0  0  0  0  0  4  0  0  0  0  0  0
   16.2683   -3.0404    1.0718 H   0  0  0  0  0  0  0  0  0  0  0  0
   15.3951   -0.8629   -1.4511 C   0  0  0  0  0  0  0  0  0  0  0  0
   14.9554   -0.5167   -0.5200 H   0  0  0  0  0  0  0  0  0  0  0  0
   15.5376    1.9773   -0.7722 C   0  0  0  0  0  0  0  0  0  0  0  0
   15.4359    1.2646    0.0417 H   0  0  0  0  0  0  0  0  0  0  0  0
   15.4503    3.3494   -0.5446 C   0  0  0  0  0  0  0  0  0  0  0  0
   15.2633    3.7282    0.4528 H   0  0  0  0  0  0  0  0  0  0  0  0
  1  2  1  0
  2  3  2  0
  3  4  1  0
  4  5  1  0
  4  6  2  0
  6  7  1  0
  7  8  2  0
  8  9  1  0
  8 10  1  0
 10 11  1  0
 10 12  2  0
 12 13  1  0
 12 14  1  0
 15 14  1  6
 15 16  1  0
 16 17  2  0
 17 18  1  0
 17 19  1  0
 19 20  1  0
 19 21  2  0
 21 22  1  0
 21 23  1  0
 23 24  1  0
 23 25  2  0
 25 26  1  0
 15 27  1  0
 27 28  2  0
 27 29  1  0
 29 30  1  0
 30 31  1  0
 30 32  1  0
 32 33  2  0
 32 34  1  0
 34 35  1  0
 35 36  1  0
 36 37  1  0
 36 38  1  0
 36 39  1  0
 35 40  1  0
 40 41  1  0
 40 42  1  0
 40 43  1  0
 35 44  1  0
 44 45  1  0
 44 46  1  0
 44 47  1  0
 29 48  1  0
 48 49  1  0
 49 50  1  0
 49 51  1  0
 48 52  2  0
 52 53  1  0
 14 54  2  0
 54 55  1  0
  6 56  1  0
 56 57  1  0
 56 58  2  0
 58 59  1  0
 58  2  1  0
 54  7  1  0
 52 15  1  0
 25 16  1  0
M  CHG  1  52   1
M  END
>  <score>  (194) 
5.62821

$$$$

     RDKit          3D

 56 60  0  0  0  0  0  0  0  0999 V2000
   15.5448    5.3389   -1.4011 H   0  0  0  0  0  0  0  0  0  0  0  0
   15.5864    4.2735   -1.6096 C   0  0  0  0  0  0  0  0  0  0  0  0
   15.8278    3.8602   -2.8636 N   0  0  0  0  0  0  0  0  0  0  0  0
   15.8859    2.5343   -3.0967 C   0  0  0  0  0  0  0  0  0  0  0  0
   16.0835    2.1941   -4.1082 H   0  0  0  0  0  0  0  0  0  0  0  0
   15.7007    1.5635   -2.0979 C   0  0  0  0  0  0  0  0  0  0  0  0
   15.7717    0.1200   -2.3998 C   0  0  0  0  0  0  0  0  0  0  0  0
   16.3247   -0.3180   -3.6054 C   0  0  0  0  0  0  0  0  0  0  0  0
   16.7037    0.4281   -4.2960 H   0  0  0  0  0  0  0  0  0  0  0  0
   16.4110   -1.6843   -3.8983 C   0  0  0  0  0  0  0  0  0  0  0  0
   16.8631   -2.0023   -4.8323 H   0  0  0  0  0  0  0  0  0  0  0  0
   15.9262   -2.6323   -2.9856 C   0  0  0  0  0  0  0  0  0  0  0  0
   15.9927   -3.6914   -3.2179 H   0  0  0  0  0  0  0  0  0  0  0  0
   15.3584   -2.2279   -1.7644 C   0  0  0  0  0  0  0  0  0  0  0  0
   14.7849   -3.2365   -0.7613 C   0  0  2  0  0  0  0  0  0  0  0  0
   15.1701   -4.6922   -1.0565 C   0  0  0  0  0  0  0  0  0  0  0  0
   16.3944   -5.2136   -0.5979 C   0  0  0  0  0  0  0  0  0  0  0  0
   17.0751   -4.5654   -0.0533 H   0  0  0  0  0  0  0  0  0  0  0  0
   16.7356   -6.5581   -0.8015 C   0  0  0  0  0  0  0  0  0  0  0  0
   17.6725   -6.9498   -0.4139 H   0  0  0  0  0  0  0  0  0  0  0  0
   15.8576   -7.4051   -1.4836 C   0  0  0  0  0  0  0  0  0  0  0  0
   16.1027   -8.4553   -1.6185 H   0  0  0  0  0  0  0  0  0  0  0  0
   14.6462   -6.9018   -1.9683 C   0  0  0  0  0  0  0  0  0  0  0  0
   13.9604   -7.5646   -2.4890 H   0  0  0  0  0  0  0  0  0  0  0  0
   14.3067   -5.5553   -1.7570 C   0  0  0  0  0  0  0  0  0  0  0  0
   13.3551   -5.1792   -2.1184 H   0  0  0  0  0  0  0  0  0  0  0  0
   13.2586   -3.0164   -0.5772 C   0  0  0  0  0  0  0  0  0  0  0  0
   12.3933   -3.0732   -1.4495 O   0  0  0  0  0  0  0  0  0  0  0  0
   12.9933   -2.6193    0.7221 N   0  0  0  0  0  0  0  0  0  0  0  0
   11.7636   -1.9789    1.2022 C   0  0  0  0  0  0  0  0  0  0  0  0
   11.8595   -1.7417    2.2717 H   0  0  0  0  0  0  0  0  0  0  0  0
   11.5176   -0.6812    0.4127 C   0  0  0  0  0  0  0  0  0  0  0  0
   11.6592   -0.9124   -0.6461 H   0  0  0  0  0  0  0  0  0  0  0  0
   12.2546    0.0693    0.7070 H   0  0  0  0  0  0  0  0  0  0  0  0
   10.0969   -0.0769    0.5544 C   0  0  0  0  0  0  0  0  0  0  0  0
    9.9480    0.6767   -0.2269 H   0  0  0  0  0  0  0  0  0  0  0  0
    9.9424    0.4569    1.4999 H   0  0  0  0  0  0  0  0  0  0  0  0
    9.0947   -1.0933    0.4128 O   0  0  0  0  0  0  0  0  0  0  0  0
    9.2729   -2.1817    1.3251 C   0  0  0  0  0  0  0  0  0  0  0  0
    9.2948   -1.7984    2.3487 H   0  0  0  0  0  0  0  0  0  0  0  0
    8.4258   -2.8695    1.2497 H   0  0  0  0  0  0  0  0  0  0  0  0
   10.5750   -2.9173    1.0029 C   0  0  0  0  0  0  0  0  0  0  0  0
   10.6829   -3.7884    1.6547 H   0  0  0  0  0  0  0  0  0  0  0  0
   10.5435   -3.2609   -0.0366 H   0  0  0  0  0  0  0  0  0  0  0  0
   14.2078   -2.5655    1.3642 C   0  0  0  0  0  0  0  0  0  0  0  0
   14.4044   -2.2133    2.6650 N   0  0  0  0  0  0  0  0  0  0  0  0
   13.6021   -2.2533    3.2935 H   0  0  0  0  0  0  0  0  0  0  0  0
   15.3384   -2.3516    3.0446 H   0  0  0  0  0  0  0  0  0  0  0  0
   15.2084   -2.8991    0.6148 N   0  0  0  0  0  4  0  0  0  0  0  0
   16.1739   -2.9636    0.9471 H   0  0  0  0  0  0  0  0  0  0  0  0
   15.2941   -0.8437   -1.4934 C   0  0  0  0  0  0  0  0  0  0  0  0
   14.8562   -0.5009   -0.5612 H   0  0  0  0  0  0  0  0  0  0  0  0
   15.4556    2.0029   -0.8000 C   0  0  0  0  0  0  0  0  0  0  0  0
   15.3514    1.2618   -0.0134 H   0  0  0  0  0  0  0  0  0  0  0  0
   15.3882    3.3759   -0.5584 C   0  0  0  0  0  0  0  0  0  0  0  0
   15.1907    3.7611    0.4340 H   0  0  0  0  0  0  0  0  0  0  0  0
  1  2  1  0
  2  3  2  0
  3  4  1  0
  4  5  1  0
  4  6  2  0
  6  7  1  0
  7  8  2  0
  8  9  1  0
  8 10  1  0
 10 11  1  0
 10 12  2  0
 12 13  1  0
 12 14  1  0
 15 14  1  6
 15 16  1  0
 16 17  2  0
 17 18  1  0
 17 19  1  0
 19 20  1  0
 19 21  2  0
 21 22  1  0
 21 23  1  0
 23 24  1  0
 23 25  2  0
 25 26  1  0
 15 27  1  0
 27 28  2  0
 27 29  1  0
 29 30  1  0
 30 31  1  0
 30 32  1  0
 32 33  1  0
 32 34  1  0
 32 35  1  0
 35 36  1  0
 35 37  1  0
 35 38  1  0
 38 39  1  0
 39 40  1  0
 39 41  1  0
 39 42  1  0
 42 43  1  0
 42 44  1  0
 29 45  1  0
 45 46  1  0
 46 47  1  0
 46 48  1  0
 45 49  2  0
 49 50  1  0
 14 51  2  0
 51 52  1  0
  6 53  1  0
 53 54  1  0
 53 55  2  0
 55 56  1  0
 55  2  1  0
 51  7  1  0
 49 15  1  0
 25 16  1  0
 42 30  1  0
M  CHG  1  49   1
M  END
>  <score>  (195) 
5.628

$$$$

     RDKit          3D

 62 65  0  0  0  0  0  0  0  0999 V2000
   15.5260    5.3161   -1.4162 H   0  0  0  0  0  0  0  0  0  0  0  0
   15.5853    4.2527   -1.6182 C   0  0  0  0  0  0  0  0  0  0  0  0
   15.8427    3.8474   -2.8711 N   0  0  0  0  0  0  0  0  0  0  0  0
   15.9027    2.5242   -3.1040 C   0  0  0  0  0  0  0  0  0  0  0  0
   16.1055    2.1903   -4.1178 H   0  0  0  0  0  0  0  0  0  0  0  0
   15.7146    1.5573   -2.1019 C   0  0  0  0  0  0  0  0  0  0  0  0
   15.7826    0.1232   -2.4009 C   0  0  0  0  0  0  0  0  0  0  0  0
   16.3268   -0.3097   -3.6134 C   0  0  0  0  0  0  0  0  0  0  0  0
   16.6993    0.4322   -4.3124 H   0  0  0  0  0  0  0  0  0  0  0  0
   16.4055   -1.6726   -3.9077 C   0  0  0  0  0  0  0  0  0  0  0  0
   16.8619   -1.9935   -4.8404 H   0  0  0  0  0  0  0  0  0  0  0  0
   15.9329   -2.6155   -2.9860 C   0  0  0  0  0  0  0  0  0  0  0  0
   16.0029   -3.6738   -3.2114 H   0  0  0  0  0  0  0  0  0  0  0  0
   15.3874   -2.2120   -1.7573 C   0  0  0  0  0  0  0  0  0  0  0  0
   14.8340   -3.2191   -0.7549 C   0  0  2  0  0  0  0  0  0  0  0  0
   15.2057   -4.6725   -1.0510 C   0  0  0  0  0  0  0  0  0  0  0  0
   16.4225   -5.2059   -0.5950 C   0  0  0  0  0  0  0  0  0  0  0  0
   17.1094   -4.5639   -0.0513 H   0  0  0  0  0  0  0  0  0  0  0  0
   16.7451   -6.5522   -0.7995 C   0  0  0  0  0  0  0  0  0  0  0  0
   17.6797   -6.9498   -0.4107 H   0  0  0  0  0  0  0  0  0  0  0  0
   15.8566   -7.3856   -1.4864 C   0  0  0  0  0  0  0  0  0  0  0  0
   16.0941   -8.4357   -1.6279 H   0  0  0  0  0  0  0  0  0  0  0  0
   14.6499   -6.8666   -1.9695 C   0  0  0  0  0  0  0  0  0  0  0  0
   13.9523   -7.5212   -2.4855 H   0  0  0  0  0  0  0  0  0  0  0  0
   14.3267   -5.5204   -1.7504 C   0  0  0  0  0  0  0  0  0  0  0  0
   13.3732   -5.1388   -2.1044 H   0  0  0  0  0  0  0  0  0  0  0  0
   13.3125   -3.0246   -0.5937 C   0  0  0  0  0  0  0  0  0  0  0  0
   12.4378   -3.2468   -1.4360 O   0  0  0  0  0  0  0  0  0  0  0  0
   13.0408   -2.6108    0.6981 N   0  0  0  0  0  0  0  0  0  0  0  0
   11.7122   -2.6141    1.3347 C   0  0  0  0  0  0  0  0  0  0  0  0
   10.9433   -2.3188    0.6164 H   0  0  0  0  0  0  0  0  0  0  0  0
   11.6668   -1.8867    2.1547 H   0  0  0  0  0  0  0  0  0  0  0  0
   11.3655   -4.0052    1.8741 C   0  0  0  0  0  0  0  0  0  0  0  0
   12.1013   -4.2842    2.6312 H   0  0  0  0  0  0  0  0  0  0  0  0
   11.4466   -4.7344    1.0653 H   0  0  0  0  0  0  0  0  0  0  0  0
    9.9990   -4.0398    2.4457 N   0  0  0  0  0  0  0  0  0  0  0  0
    9.2813   -5.3244    2.4380 C   0  0  0  0  0  0  0  0  0  0  0  0
    8.2737   -5.2023    2.8515 H   0  0  0  0  0  0  0  0  0  0  0  0
    9.1676   -5.6992    1.4170 H   0  0  0  0  0  0  0  0  0  0  0  0
   10.0688   -6.3111    3.2867 C   0  0  0  0  0  0  0  0  0  0  0  0
   10.2170   -5.9144    4.2940 H   0  0  0  0  0  0  0  0  0  0  0  0
   11.0444   -6.4885    2.8309 H   0  0  0  0  0  0  0  0  0  0  0  0
    9.5453   -7.2614    3.3655 H   0  0  0  0  0  0  0  0  0  0  0  0
    9.8159   -3.2694    3.6843 C   0  0  0  0  0  0  0  0  0  0  0  0
    9.3811   -3.8889    4.4763 H   0  0  0  0  0  0  0  0  0  0  0  0
   10.7604   -2.8699    4.0560 H   0  0  0  0  0  0  0  0  0  0  0  0
    8.8874   -2.1352    3.3443 C   0  0  0  0  0  0  0  0  0  0  0  0
    8.7099   -1.5291    4.2223 H   0  0  0  0  0  0  0  0  0  0  0  0
    9.3323   -1.5091    2.5728 H   0  0  0  0  0  0  0  0  0  0  0  0
    7.9446   -2.5339    2.9670 H   0  0  0  0  0  0  0  0  0  0  0  0
   14.2490   -2.5990    1.3726 C   0  0  0  0  0  0  0  0  0  0  0  0
   14.4151   -2.3697    2.7087 N   0  0  0  0  0  0  0  0  0  0  0  0
   13.6135   -2.1014    3.2777 H   0  0  0  0  0  0  0  0  0  0  0  0
   15.3608   -2.3083    3.0822 H   0  0  0  0  0  0  0  0  0  0  0  0
   15.2591   -2.8743    0.6139 N   0  0  0  0  0  4  0  0  0  0  0  0
   16.2155   -3.0129    0.9589 H   0  0  0  0  0  0  0  0  0  0  0  0
   15.3087   -0.8338   -1.4889 C   0  0  0  0  0  0  0  0  0  0  0  0
   14.8630   -0.4937   -0.5574 H   0  0  0  0  0  0  0  0  0  0  0  0
   15.4764    1.9896   -0.8008 C   0  0  0  0  0  0  0  0  0  0  0  0
   15.3785    1.2582   -0.0038 H   0  0  0  0  0  0  0  0  0  0  0  0
   15.3991    3.3576   -0.5621 C   0  0  0  0  0  0  0  0  0  0  0  0
   15.2128    3.7345    0.4353 H   0  0  0  0  0  0  0  0  0  0  0  0
  1  2  1  0
  2  3  2  0
  3  4  1  0
  4  5  1  0
  4  6  2  0
  6  7  1  0
  7  8  2  0
  8  9  1  0
  8 10  1  0
 10 11  1  0
 10 12  2  0
 12 13  1  0
 12 14  1  0
 15 14  1  6
 15 16  1  0
 16 17  2  0
 17 18  1  0
 17 19  1  0
 19 20  1  0
 19 21  2  0
 21 22  1  0
 21 23  1  0
 23 24  1  0
 23 25  2  0
 25 26  1  0
 15 27  1  0
 27 28  2  0
 27 29  1  0
 29 30  1  0
 30 31  1  0
 30 32  1  0
 30 33  1  0
 33 34  1  0
 33 35  1  0
 33 36  1  0
 36 37  1  0
 37 38  1  0
 37 39  1  0
 37 40  1  0
 40 41  1  0
 40 42  1  0
 40 43  1  0
 36 44  1  0
 44 45  1  0
 44 46  1  0
 44 47  1  0
 47 48  1  0
 47 49  1  0
 47 50  1  0
 29 51  1  0
 51 52  1  0
 52 53  1  0
 52 54  1  0
 51 55  2  0
 55 56  1  0
 14 57  2  0
 57 58  1  0
  6 59  1  0
 59 60  1  0
 59 61  2  0
 61 62  1  0
 61  2  1  0
 57  7  1  0
 55 15  1  0
 25 16  1  0
M  CHG  1  55   1
M  END
>  <score>  (196) 
5.6267

$$$$

     RDKit          3D

 52 56  0  0  0  0  0  0  0  0999 V2000
   15.5695    5.3721   -1.3876 H   0  0  0  0  0  0  0  0  0  0  0  0
   15.5828    4.3031   -1.5952 C   0  0  0  0  0  0  0  0  0  0  0  0
   15.8192    3.8803   -2.8469 N   0  0  0  0  0  0  0  0  0  0  0  0
   15.8636    2.5527   -3.0881 C   0  0  0  0  0  0  0  0  0  0  0  0
   16.0475    2.2228   -4.1056 H   0  0  0  0  0  0  0  0  0  0  0  0
   15.6864    1.5712   -2.0960 C   0  0  0  0  0  0  0  0  0  0  0  0
   15.7703    0.1181   -2.4106 C   0  0  0  0  0  0  0  0  0  0  0  0
   16.3491   -0.3220   -3.6100 C   0  0  0  0  0  0  0  0  0  0  0  0
   16.7233    0.4102   -4.3197 H   0  0  0  0  0  0  0  0  0  0  0  0
   16.4317   -1.6909   -3.9061 C   0  0  0  0  0  0  0  0  0  0  0  0
   16.8643   -2.0075   -4.8514 H   0  0  0  0  0  0  0  0  0  0  0  0
   15.9423   -2.6456   -3.0007 C   0  0  0  0  0  0  0  0  0  0  0  0
   16.0032   -3.7011   -3.2556 H   0  0  0  0  0  0  0  0  0  0  0  0
   15.3722   -2.2439   -1.7775 C   0  0  0  0  0  0  0  0  0  0  0  0
   14.7916   -3.2448   -0.7751 C   0  0  2  0  0  0  0  0  0  0  0  0
   15.1628   -4.7102   -1.0669 C   0  0  0  0  0  0  0  0  0  0  0  0
   16.3876   -5.2331   -0.6108 C   0  0  0  0  0  0  0  0  0  0  0  0
   17.0651   -4.5851   -0.0626 H   0  0  0  0  0  0  0  0  0  0  0  0
   16.7280   -6.5791   -0.8036 C   0  0  0  0  0  0  0  0  0  0  0  0
   17.6710   -6.9554   -0.4170 H   0  0  0  0  0  0  0  0  0  0  0  0
   15.8533   -7.4387   -1.4729 C   0  0  0  0  0  0  0  0  0  0  0  0
   16.1204   -8.4850   -1.6114 H   0  0  0  0  0  0  0  0  0  0  0  0
   14.6429   -6.9362   -1.9620 C   0  0  0  0  0  0  0  0  0  0  0  0
   13.9729   -7.6109   -2.4878 H   0  0  0  0  0  0  0  0  0  0  0  0
   14.3010   -5.5851   -1.7652 C   0  0  0  0  0  0  0  0  0  0  0  0
   13.3514   -5.2310   -2.1550 H   0  0  0  0  0  0  0  0  0  0  0  0
   13.2779   -3.0011   -0.5917 C   0  0  0  0  0  0  0  0  0  0  0  0
   12.4226   -3.0901   -1.4690 O   0  0  0  0  0  0  0  0  0  0  0  0
   12.9940   -2.6758    0.7176 N   0  0  0  0  0  0  0  0  0  0  0  0
   11.7248   -2.4895    1.2650 C   0  0  0  0  0  0  0  0  0  0  0  0
   10.8268   -1.5883    0.6942 C   0  0  0  0  0  0  0  0  0  0  0  0
   11.1309   -1.0022   -0.1617 H   0  0  0  0  0  0  0  0  0  0  0  0
    9.5543   -1.4067    1.2403 C   0  0  0  0  0  0  0  0  0  0  0  0
    8.6854   -0.5287    0.6922 F   0  0  0  0  0  0  0  0  0  0  0  0
    9.1721   -2.1477    2.3540 C   0  0  0  0  0  0  0  0  0  0  0  0
    8.1852   -2.0263    2.7774 H   0  0  0  0  0  0  0  0  0  0  0  0
   10.0586   -3.0490    2.9318 C   0  0  0  0  0  0  0  0  0  0  0  0
    9.6633   -3.7761    3.9981 F   0  0  0  0  0  0  0  0  0  0  0  0
   11.3318   -3.2093    2.3884 C   0  0  0  0  0  0  0  0  0  0  0  0
   12.0140   -3.9168    2.8385 H   0  0  0  0  0  0  0  0  0  0  0  0
   14.1944   -2.6540    1.3831 C   0  0  0  0  0  0  0  0  0  0  0  0
   14.3904   -2.3536    2.6982 N   0  0  0  0  0  0  0  0  0  0  0  0
   13.5993   -2.0361    3.2550 H   0  0  0  0  0  0  0  0  0  0  0  0
   15.3327   -2.3802    3.0903 H   0  0  0  0  0  0  0  0  0  0  0  0
   15.1934   -2.9097    0.6051 N   0  0  0  0  0  4  0  0  0  0  0  0
   16.1645   -2.9117    0.9096 H   0  0  0  0  0  0  0  0  0  0  0  0
   15.2938   -0.8585   -1.5146 C   0  0  0  0  0  0  0  0  0  0  0  0
   14.8700   -0.5245   -0.5752 H   0  0  0  0  0  0  0  0  0  0  0  0
   15.4376    2.0250   -0.7970 C   0  0  0  0  0  0  0  0  0  0  0  0
   15.2992    1.3056    0.0014 H   0  0  0  0  0  0  0  0  0  0  0  0
   15.3725    3.4012   -0.5514 C   0  0  0  0  0  0  0  0  0  0  0  0
   15.1681    3.7875    0.4400 H   0  0  0  0  0  0  0  0  0  0  0  0
  1  2  1  0
  2  3  2  0
  3  4  1  0
  4  5  1  0
  4  6  2  0
  6  7  1  0
  7  8  2  0
  8  9  1  0
  8 10  1  0
 10 11  1  0
 10 12  2  0
 12 13  1  0
 12 14  1  0
 15 14  1  6
 15 16  1  0
 16 17  2  0
 17 18  1  0
 17 19  1  0
 19 20  1  0
 19 21  2  0
 21 22  1  0
 21 23  1  0
 23 24  1  0
 23 25  2  0
 25 26  1  0
 15 27  1  0
 27 28  2  0
 27 29  1  0
 29 30  1  0
 30 31  2  0
 31 32  1  0
 31 33  1  0
 33 34  1  0
 33 35  2  0
 35 36  1  0
 35 37  1  0
 37 38  1  0
 37 39  2  0
 39 40  1  0
 29 41  1  0
 41 42  1  0
 42 43  1  0
 42 44  1  0
 41 45  2  0
 45 46  1  0
 14 47  2  0
 47 48  1  0
  6 49  1  0
 49 50  1  0
 49 51  2  0
 51 52  1  0
 51  2  1  0
 47  7  1  0
 45 15  1  0
 25 16  1  0
 39 30  1  0
M  CHG  1  45   1
M  END
>  <score>  (197) 
5.62503

$$$$

     RDKit          3D

 54 58  0  0  0  0  0  0  0  0999 V2000
    7.7280   -2.4919    3.6152 H   0  0  0  0  0  0  0  0  0  0  0  0
    7.8676   -1.9306    2.8324 O   0  0  0  0  0  0  0  0  0  0  0  0
    9.1356   -2.1363    2.3541 C   0  0  0  0  0  0  0  0  0  0  0  0
    9.5366   -1.4079    1.2389 C   0  0  0  0  0  0  0  0  0  0  0  0
    8.8321   -0.6938    0.8164 H   0  0  0  0  0  0  0  0  0  0  0  0
   10.8212   -1.6137    0.7111 C   0  0  0  0  0  0  0  0  0  0  0  0
   11.1402   -1.0464   -0.1504 H   0  0  0  0  0  0  0  0  0  0  0  0
   11.7168   -2.5160    1.2912 C   0  0  0  0  0  0  0  0  0  0  0  0
   12.9836   -2.7223    0.7395 N   0  0  0  0  0  0  0  0  0  0  0  0
   13.2607   -3.0207   -0.5815 C   0  0  0  0  0  0  0  0  0  0  0  0
   12.4148   -3.1113   -1.4705 O   0  0  0  0  0  0  0  0  0  0  0  0
   14.7838   -3.2330   -0.7603 C   0  0  1  0  0  0  0  0  0  0  0  0
   15.1642   -4.6935   -1.0594 C   0  0  0  0  0  0  0  0  0  0  0  0
   16.3880   -5.2169   -0.5996 C   0  0  0  0  0  0  0  0  0  0  0  0
   17.0725   -4.5704   -0.0577 H   0  0  0  0  0  0  0  0  0  0  0  0
   16.7320   -6.5608   -0.8007 C   0  0  0  0  0  0  0  0  0  0  0  0
   17.6713   -6.9494   -0.4155 H   0  0  0  0  0  0  0  0  0  0  0  0
   15.8568   -7.4115   -1.4803 C   0  0  0  0  0  0  0  0  0  0  0  0
   16.1062   -8.4603   -1.6157 H   0  0  0  0  0  0  0  0  0  0  0  0
   14.6449   -6.9107   -1.9656 C   0  0  0  0  0  0  0  0  0  0  0  0
   13.9628   -7.5760   -2.4883 H   0  0  0  0  0  0  0  0  0  0  0  0
   14.3030   -5.5629   -1.7603 C   0  0  0  0  0  0  0  0  0  0  0  0
   13.3518   -5.1933   -2.1295 H   0  0  0  0  0  0  0  0  0  0  0  0
   15.3648   -2.2277   -1.7650 C   0  0  0  0  0  0  0  0  0  0  0  0
   15.9326   -2.6336   -2.9883 C   0  0  0  0  0  0  0  0  0  0  0  0
   15.9952   -3.6918   -3.2274 H   0  0  0  0  0  0  0  0  0  0  0  0
   16.4159   -1.6852   -3.9012 C   0  0  0  0  0  0  0  0  0  0  0  0
   16.8643   -2.0040   -4.8377 H   0  0  0  0  0  0  0  0  0  0  0  0
   16.3292   -0.3188   -3.6096 C   0  0  0  0  0  0  0  0  0  0  0  0
   16.7119    0.4211   -4.3045 H   0  0  0  0  0  0  0  0  0  0  0  0
   15.7755    0.1224   -2.4018 C   0  0  0  0  0  0  0  0  0  0  0  0
   15.6971    1.5679   -2.0971 C   0  0  0  0  0  0  0  0  0  0  0  0
   15.8807    2.5413   -3.0941 C   0  0  0  0  0  0  0  0  0  0  0  0
   16.0713    2.2056   -4.1084 H   0  0  0  0  0  0  0  0  0  0  0  0
   15.8257    3.8672   -2.8601 N   0  0  0  0  0  0  0  0  0  0  0  0
   15.5878    4.2815   -1.6059 C   0  0  0  0  0  0  0  0  0  0  0  0
   15.5511    5.3472   -1.3975 H   0  0  0  0  0  0  0  0  0  0  0  0
   15.3832    3.3841   -0.5561 C   0  0  0  0  0  0  0  0  0  0  0  0
   15.1840    3.7684    0.4368 H   0  0  0  0  0  0  0  0  0  0  0  0
   15.4454    2.0108   -0.7989 C   0  0  0  0  0  0  0  0  0  0  0  0
   15.3350    1.2766   -0.0073 H   0  0  0  0  0  0  0  0  0  0  0  0
   15.3022   -0.8441   -1.4955 C   0  0  0  0  0  0  0  0  0  0  0  0
   14.8579   -0.5058   -0.5644 H   0  0  0  0  0  0  0  0  0  0  0  0
   15.1985   -2.9126    0.6249 N   0  0  0  0  0  4  0  0  0  0  0  0
   16.1700   -2.9433    0.9469 H   0  0  0  0  0  0  0  0  0  0  0  0
   14.1906   -2.6696    1.3990 C   0  0  0  0  0  0  0  0  0  0  0  0
   14.3897   -2.3804    2.7198 N   0  0  0  0  0  0  0  0  0  0  0  0
   13.6122   -2.0388    3.2831 H   0  0  0  0  0  0  0  0  0  0  0  0
   15.3434   -2.3359    3.0718 H   0  0  0  0  0  0  0  0  0  0  0  0
   11.3136   -3.2238    2.4216 C   0  0  0  0  0  0  0  0  0  0  0  0
   11.9800   -3.9285    2.8983 H   0  0  0  0  0  0  0  0  0  0  0  0
   10.0311   -3.0565    2.9438 C   0  0  0  0  0  0  0  0  0  0  0  0
    9.6769   -3.8173    4.0245 O   0  0  0  0  0  0  0  0  0  0  0  0
   10.4393   -4.3571    4.2977 H   0  0  0  0  0  0  0  0  0  0  0  0
  1  2  1  0
  2  3  1  0
  3  4  2  0
  4  5  1  0
  4  6  1  0
  6  7  1  0
  6  8  2  0
  8  9  1  0
  9 10  1  0
 10 11  2  0
 10 12  1  0
 12 13  1  6
 13 14  2  0
 14 15  1  0
 14 16  1  0
 16 17  1  0
 16 18  2  0
 18 19  1  0
 18 20  1  0
 20 21  1  0
 20 22  2  0
 22 23  1  0
 12 24  1  0
 24 25  2  0
 25 26  1  0
 25 27  1  0
 27 28  1  0
 27 29  2  0
 29 30  1  0
 29 31  1  0
 31 32  1  0
 32 33  2  0
 33 34  1  0
 33 35  1  0
 35 36  2  0
 36 37  1  0
 36 38  1  0
 38 39  1  0
 38 40  2  0
 40 41  1  0
 31 42  2  0
 42 43  1  0
 12 44  1  0
 44 45  1  0
 44 46  2  0
 46 47  1  0
 47 48  1  0
 47 49  1  0
  8 50  1  0
 50 51  1  0
 50 52  2  0
 52 53  1  0
 53 54  1  0
 52  3  1  0
 46  9  1  0
 22 13  1  0
 42 24  1  0
 40 32  1  0
M  CHG  1  44   1
M  END
>  <score>  (198) 
5.62082

$$$$

     RDKit          3D

 54 57  0  0  0  0  0  0  0  0999 V2000
   10.6092   -2.6348    5.3192 H   0  0  0  0  0  0  0  0  0  0  0  0
   10.7324   -3.2747    4.6049 O   0  0  0  0  0  0  0  0  0  0  0  0
    9.8362   -2.9983    3.6399 C   0  0  0  0  0  0  0  0  0  0  0  0
    8.9892   -2.1259    3.7282 O   0  0  0  0  0  0  0  0  0  0  0  0
    9.8986   -3.8742    2.3918 C   0  0  0  0  0  0  0  0  0  0  0  0
    9.5737   -4.8841    2.6638 H   0  0  0  0  0  0  0  0  0  0  0  0
    9.2119   -3.4734    1.6423 H   0  0  0  0  0  0  0  0  0  0  0  0
   11.3203   -3.9304    1.7979 C   0  0  0  0  0  0  0  0  0  0  0  0
   11.3599   -4.6574    0.9816 H   0  0  0  0  0  0  0  0  0  0  0  0
   12.0395   -4.2591    2.5604 H   0  0  0  0  0  0  0  0  0  0  0  0
   11.7210   -2.5516    1.2754 C   0  0  0  0  0  0  0  0  0  0  0  0
   11.7087   -1.8386    2.1055 H   0  0  0  0  0  0  0  0  0  0  0  0
   10.9913   -2.1998    0.5322 H   0  0  0  0  0  0  0  0  0  0  0  0
   13.0511   -2.6150    0.6835 N   0  0  0  0  0  0  0  0  0  0  0  0
   13.3258   -3.0411   -0.5975 C   0  0  0  0  0  0  0  0  0  0  0  0
   12.4571   -3.2610   -1.4394 O   0  0  0  0  0  0  0  0  0  0  0  0
   14.8425   -3.2277   -0.7573 C   0  0  1  0  0  0  0  0  0  0  0  0
   15.2125   -4.6770   -1.0529 C   0  0  0  0  0  0  0  0  0  0  0  0
   16.4287   -5.2073   -0.5940 C   0  0  0  0  0  0  0  0  0  0  0  0
   17.1162   -4.5667   -0.0481 H   0  0  0  0  0  0  0  0  0  0  0  0
   16.7476   -6.5527   -0.8019 C   0  0  0  0  0  0  0  0  0  0  0  0
   17.6817   -6.9469   -0.4140 H   0  0  0  0  0  0  0  0  0  0  0  0
   15.8569   -7.3862   -1.4847 C   0  0  0  0  0  0  0  0  0  0  0  0
   16.0985   -8.4343   -1.6336 H   0  0  0  0  0  0  0  0  0  0  0  0
   14.6495   -6.8682   -1.9632 C   0  0  0  0  0  0  0  0  0  0  0  0
   13.9551   -7.5140   -2.4914 H   0  0  0  0  0  0  0  0  0  0  0  0
   14.3292   -5.5221   -1.7496 C   0  0  0  0  0  0  0  0  0  0  0  0
   13.3780   -5.1385   -2.1082 H   0  0  0  0  0  0  0  0  0  0  0  0
   15.3860   -2.2179   -1.7586 C   0  0  0  0  0  0  0  0  0  0  0  0
   15.9388   -2.6212   -2.9814 C   0  0  0  0  0  0  0  0  0  0  0  0
   15.9988   -3.6787   -3.2131 H   0  0  0  0  0  0  0  0  0  0  0  0
   16.4124   -1.6786   -3.8990 C   0  0  0  0  0  0  0  0  0  0  0  0
   16.8492   -1.9964   -4.8381 H   0  0  0  0  0  0  0  0  0  0  0  0
   16.3268   -0.3167   -3.6110 C   0  0  0  0  0  0  0  0  0  0  0  0
   16.6995    0.4199   -4.3161 H   0  0  0  0  0  0  0  0  0  0  0  0
   15.7776    0.1173   -2.4017 C   0  0  0  0  0  0  0  0  0  0  0  0
   15.7163    1.5524   -2.0995 C   0  0  0  0  0  0  0  0  0  0  0  0
   15.9063    2.5199   -3.1008 C   0  0  0  0  0  0  0  0  0  0  0  0
   16.1063    2.1903   -4.1163 H   0  0  0  0  0  0  0  0  0  0  0  0
   15.8403    3.8434   -2.8677 N   0  0  0  0  0  0  0  0  0  0  0  0
   15.5862    4.2545   -1.6161 C   0  0  0  0  0  0  0  0  0  0  0  0
   15.5256    5.3203   -1.4175 H   0  0  0  0  0  0  0  0  0  0  0  0
   15.4064    3.3584   -0.5600 C   0  0  0  0  0  0  0  0  0  0  0  0
   15.2138    3.7322    0.4377 H   0  0  0  0  0  0  0  0  0  0  0  0
   15.4804    1.9897   -0.7978 C   0  0  0  0  0  0  0  0  0  0  0  0
   15.3750    1.2661    0.0052 H   0  0  0  0  0  0  0  0  0  0  0  0
   15.3042   -0.8389   -1.4873 C   0  0  0  0  0  0  0  0  0  0  0  0
   14.8645   -0.4991   -0.5525 H   0  0  0  0  0  0  0  0  0  0  0  0
   15.2529   -2.8861    0.6183 N   0  0  0  0  0  4  0  0  0  0  0  0
   16.2014   -3.0099    0.9710 H   0  0  0  0  0  0  0  0  0  0  0  0
   14.2427   -2.6100    1.3760 C   0  0  0  0  0  0  0  0  0  0  0  0
   14.4119   -2.3828    2.7089 N   0  0  0  0  0  0  0  0  0  0  0  0
   15.3579   -2.3066    3.0818 H   0  0  0  0  0  0  0  0  0  0  0  0
   13.6106   -2.1085    3.2765 H   0  0  0  0  0  0  0  0  0  0  0  0
  1  2  1  0
  2  3  1  0
  3  4  2  0
  3  5  1  0
  5  6  1  0
  5  7  1  0
  5  8  1  0
  8  9  1  0
  8 10  1  0
  8 11  1  0
 11 12  1  0
 11 13  1  0
 11 14  1  0
 14 15  1  0
 15 16  2  0
 15 17  1  0
 17 18  1  6
 18 19  2  0
 19 20  1  0
 19 21  1  0
 21 22  1  0
 21 23  2  0
 23 24  1  0
 23 25  1  0
 25 26  1  0
 25 27  2  0
 27 28  1  0
 17 29  1  0
 29 30  2  0
 30 31  1  0
 30 32  1  0
 32 33  1  0
 32 34  2  0
 34 35  1  0
 34 36  1  0
 36 37  1  0
 37 38  2  0
 38 39  1  0
 38 40  1  0
 40 41  2  0
 41 42  1  0
 41 43  1  0
 43 44  1  0
 43 45  2  0
 45 46  1  0
 36 47  2  0
 47 48  1  0
 17 49  1  0
 49 50  1  0
 49 51  2  0
 51 52  1  0
 52 53  1  0
 52 54  1  0
 51 14  1  0
 27 18  1  0
 47 29  1  0
 45 37  1  0
M  CHG  1  49   1
M  END
>  <score>  (199) 
5.62081

$$$$

     RDKit          3D

 53 57  0  0  0  0  0  0  0  0999 V2000
    9.7781   -3.3774    3.8513 H   0  0  0  0  0  0  0  0  0  0  0  0
   10.1321   -2.9819    2.9029 C   0  0  0  0  0  0  0  0  0  0  0  0
    9.3316   -2.1990    2.1690 N   0  0  0  0  0  0  0  0  0  0  0  0
    9.7654   -1.6859    0.9940 C   0  0  0  0  0  0  0  0  0  0  0  0
    8.8431   -0.6932    0.2294 C   0  0  0  0  0  0  0  0  0  0  0  0
    7.6364   -1.2646   -0.0633 F   0  0  0  0  0  0  0  0  0  0  0  0
    8.5976    0.4154    0.9902 F   0  0  0  0  0  0  0  0  0  0  0  0
    9.3788   -0.2694   -0.9519 F   0  0  0  0  0  0  0  0  0  0  0  0
   10.9847   -2.0122    0.5269 N   0  0  0  0  0  0  0  0  0  0  0  0
   11.7720   -2.7615    1.2726 C   0  0  0  0  0  0  0  0  0  0  0  0
   13.0097   -2.9760    0.7936 N   0  0  0  0  0  0  0  0  0  0  0  0
   13.2935   -3.0442   -0.5362 C   0  0  0  0  0  0  0  0  0  0  0  0
   12.4319   -3.1782   -1.4007 O   0  0  0  0  0  0  0  0  0  0  0  0
   14.8241   -3.1597   -0.6751 C   0  0  1  0  0  0  0  0  0  0  0  0
   15.2049   -4.5969   -0.9805 C   0  0  0  0  0  0  0  0  0  0  0  0
   16.4241   -5.1193   -0.5362 C   0  0  0  0  0  0  0  0  0  0  0  0
   17.1048   -4.4802    0.0199 H   0  0  0  0  0  0  0  0  0  0  0  0
   16.7487   -6.4552   -0.7840 C   0  0  0  0  0  0  0  0  0  0  0  0
   17.6858   -6.8471   -0.4055 H   0  0  0  0  0  0  0  0  0  0  0  0
   15.8657   -7.2773   -1.4959 C   0  0  0  0  0  0  0  0  0  0  0  0
   16.1120   -8.3187   -1.6781 H   0  0  0  0  0  0  0  0  0  0  0  0
   14.6510   -6.7592   -1.9557 C   0  0  0  0  0  0  0  0  0  0  0  0
   13.9410   -7.3846   -2.4882 H   0  0  0  0  0  0  0  0  0  0  0  0
   14.3286   -5.4250   -1.7044 C   0  0  0  0  0  0  0  0  0  0  0  0
   13.3801   -5.0320   -2.0606 H   0  0  0  0  0  0  0  0  0  0  0  0
   15.3712   -2.1909   -1.7023 C   0  0  0  0  0  0  0  0  0  0  0  0
   15.8985   -2.6397   -2.9238 C   0  0  0  0  0  0  0  0  0  0  0  0
   15.9419   -3.7057   -3.1356 H   0  0  0  0  0  0  0  0  0  0  0  0
   16.3756   -1.7267   -3.8658 C   0  0  0  0  0  0  0  0  0  0  0  0
   16.7875   -2.0813   -4.8047 H   0  0  0  0  0  0  0  0  0  0  0  0
   16.3330   -0.3545   -3.5914 C   0  0  0  0  0  0  0  0  0  0  0  0
   16.7072    0.3545   -4.3204 H   0  0  0  0  0  0  0  0  0  0  0  0
   15.8114    0.1191   -2.3790 C   0  0  0  0  0  0  0  0  0  0  0  0
   15.7700    1.5599   -2.0729 C   0  0  0  0  0  0  0  0  0  0  0  0
   15.9433    2.5203   -3.0808 C   0  0  0  0  0  0  0  0  0  0  0  0
   16.1398    2.1722   -4.0898 H   0  0  0  0  0  0  0  0  0  0  0  0
   15.8606    3.8458   -2.8644 N   0  0  0  0  0  0  0  0  0  0  0  0
   15.6114    4.2716   -1.6153 C   0  0  0  0  0  0  0  0  0  0  0  0
   15.5223    5.3384   -1.4329 H   0  0  0  0  0  0  0  0  0  0  0  0
   15.4580    3.3861   -0.5461 C   0  0  0  0  0  0  0  0  0  0  0  0
   15.2716    3.7745    0.4488 H   0  0  0  0  0  0  0  0  0  0  0  0
   15.5435    2.0132   -0.7704 C   0  0  0  0  0  0  0  0  0  0  0  0
   15.4438    1.3030    0.0461 H   0  0  0  0  0  0  0  0  0  0  0  0
   15.3139   -0.8114   -1.4572 C   0  0  0  0  0  0  0  0  0  0  0  0
   14.8804   -0.4559   -0.5275 H   0  0  0  0  0  0  0  0  0  0  0  0
   15.1963   -2.7945    0.7176 N   0  0  0  0  0  4  0  0  0  0  0  0
   16.1500   -2.8135    1.0900 H   0  0  0  0  0  0  0  0  0  0  0  0
   14.1581   -2.7453    1.4768 C   0  0  0  0  0  0  0  0  0  0  0  0
   14.2277   -2.4848    2.8053 N   0  0  0  0  0  0  0  0  0  0  0  0
   13.3623   -2.1522    3.2244 H   0  0  0  0  0  0  0  0  0  0  0  0
   15.1061   -2.0897    3.1408 H   0  0  0  0  0  0  0  0  0  0  0  0
   11.3994   -3.2812    2.4764 C   0  0  0  0  0  0  0  0  0  0  0  0
   12.0814   -3.9052    3.0392 H   0  0  0  0  0  0  0  0  0  0  0  0
  1  2  1  0
  2  3  2  0
  3  4  1  0
  4  5  1  0
  5  6  1  0
  5  7  1  0
  5  8  1  0
  4  9  2  0
  9 10  1  0
 10 11  1  0
 11 12  1  0
 12 13  2  0
 12 14  1  0
 14 15  1  6
 15 16  2  0
 16 17  1  0
 16 18  1  0
 18 19  1  0
 18 20  2  0
 20 21  1  0
 20 22  1  0
 22 23  1  0
 22 24  2  0
 24 25  1  0
 14 26  1  0
 26 27  2  0
 27 28  1  0
 27 29  1  0
 29 30  1  0
 29 31  2  0
 31 32  1  0
 31 33  1  0
 33 34  1  0
 34 35  2  0
 35 36  1  0
 35 37  1  0
 37 38  2  0
 38 39  1  0
 38 40  1  0
 40 41  1  0
 40 42  2  0
 42 43  1  0
 33 44  2  0
 44 45  1  0
 14 46  1  0
 46 47  1  0
 46 48  2  0
 48 49  1  0
 49 50  1  0
 49 51  1  0
 10 52  2  0
 52 53  1  0
 52  2  1  0
 48 11  1  0
 24 15  1  0
 44 26  1  0
 42 34  1  0
M  CHG  1  46   1
M  END
>  <score>  (200) 
5.61934

$$$$

     RDKit          3D

 53 57  0  0  0  0  0  0  0  0999 V2000
   15.5698    5.3721   -1.3877 H   0  0  0  0  0  0  0  0  0  0  0  0
   15.5840    4.3031   -1.5955 C   0  0  0  0  0  0  0  0  0  0  0  0
   15.8195    3.8805   -2.8476 N   0  0  0  0  0  0  0  0  0  0  0  0
   15.8639    2.5527   -3.0872 C   0  0  0  0  0  0  0  0  0  0  0  0
   16.0451    2.2260   -4.1056 H   0  0  0  0  0  0  0  0  0  0  0  0
   15.6848    1.5705   -2.0956 C   0  0  0  0  0  0  0  0  0  0  0  0
   15.7722    0.1182   -2.4098 C   0  0  0  0  0  0  0  0  0  0  0  0
   16.3464   -0.3218   -3.6115 C   0  0  0  0  0  0  0  0  0  0  0  0
   16.7259    0.4056   -4.3223 H   0  0  0  0  0  0  0  0  0  0  0  0
   16.4312   -1.6897   -3.9083 C   0  0  0  0  0  0  0  0  0  0  0  0
   16.8647   -2.0085   -4.8522 H   0  0  0  0  0  0  0  0  0  0  0  0
   15.9432   -2.6452   -3.0048 C   0  0  0  0  0  0  0  0  0  0  0  0
   16.0042   -3.7010   -3.2595 H   0  0  0  0  0  0  0  0  0  0  0  0
   15.3759   -2.2453   -1.7814 C   0  0  0  0  0  0  0  0  0  0  0  0
   14.8060   -3.2526   -0.7790 C   0  0  2  0  0  0  0  0  0  0  0  0
   15.1686   -4.7174   -1.0696 C   0  0  0  0  0  0  0  0  0  0  0  0
   16.3896   -5.2384   -0.6087 C   0  0  0  0  0  0  0  0  0  0  0  0
   17.0671   -4.5873   -0.0645 H   0  0  0  0  0  0  0  0  0  0  0  0
   16.7298   -6.5820   -0.8030 C   0  0  0  0  0  0  0  0  0  0  0  0
   17.6730   -6.9562   -0.4168 H   0  0  0  0  0  0  0  0  0  0  0  0
   15.8541   -7.4407   -1.4722 C   0  0  0  0  0  0  0  0  0  0  0  0
   16.1211   -8.4863   -1.6116 H   0  0  0  0  0  0  0  0  0  0  0  0
   14.6431   -6.9399   -1.9616 C   0  0  0  0  0  0  0  0  0  0  0  0
   13.9719   -7.6122   -2.4884 H   0  0  0  0  0  0  0  0  0  0  0  0
   14.3025   -5.5894   -1.7667 C   0  0  0  0  0  0  0  0  0  0  0  0
   13.3534   -5.2324   -2.1560 H   0  0  0  0  0  0  0  0  0  0  0  0
   13.2948   -3.0157   -0.5890 C   0  0  0  0  0  0  0  0  0  0  0  0
   12.4350   -3.0657   -1.4633 O   0  0  0  0  0  0  0  0  0  0  0  0
   13.0121   -2.6631    0.7146 N   0  0  0  0  0  0  0  0  0  0  0  0
   11.7637   -2.0586    1.1902 C   0  0  2  0  0  0  0  0  0  0  0  0
   11.8178   -1.9507    2.2760 H   0  0  0  0  0  0  0  0  0  0  0  0
   10.5294   -2.8845    0.8202 C   0  0  0  0  0  0  0  0  0  0  0  0
    9.8482   -2.9513    1.6774 H   0  0  0  0  0  0  0  0  0  0  0  0
   10.8199   -3.9014    0.5345 H   0  0  0  0  0  0  0  0  0  0  0  0
    9.8916   -2.2056   -0.2725 O   0  0  0  0  0  0  0  0  0  0  0  0
   10.1624   -0.8068   -0.1452 C   0  0  0  0  0  0  0  0  0  0  0  0
    9.3904   -0.3288    0.4694 H   0  0  0  0  0  0  0  0  0  0  0  0
   10.1709   -0.3114   -1.1239 H   0  0  0  0  0  0  0  0  0  0  0  0
   11.5244   -0.7038    0.5330 C   0  0  0  0  0  0  0  0  0  0  0  0
   11.5334    0.1056    1.2634 H   0  0  0  0  0  0  0  0  0  0  0  0
   12.3037   -0.4776   -0.1957 H   0  0  0  0  0  0  0  0  0  0  0  0
   14.2194   -2.6117    1.3653 C   0  0  0  0  0  0  0  0  0  0  0  0
   14.4057   -2.3092    2.6824 N   0  0  0  0  0  0  0  0  0  0  0  0
   15.3493   -2.3090    3.0729 H   0  0  0  0  0  0  0  0  0  0  0  0
   13.5904   -2.2640    3.2903 H   0  0  0  0  0  0  0  0  0  0  0  0
   15.2131   -2.9020    0.5964 N   0  0  0  0  0  4  0  0  0  0  0  0
   16.1817   -2.9151    0.9084 H   0  0  0  0  0  0  0  0  0  0  0  0
   15.2991   -0.8594   -1.5135 C   0  0  0  0  0  0  0  0  0  0  0  0
   14.8711   -0.5282   -0.5750 H   0  0  0  0  0  0  0  0  0  0  0  0
   15.4330    2.0253   -0.7971 C   0  0  0  0  0  0  0  0  0  0  0  0
   15.2968    1.3107    0.0055 H   0  0  0  0  0  0  0  0  0  0  0  0
   15.3711    3.4016   -0.5510 C   0  0  0  0  0  0  0  0  0  0  0  0
   15.1677    3.7876    0.4420 H   0  0  0  0  0  0  0  0  0  0  0  0
  1  2  1  0
  2  3  2  0
  3  4  1  0
  4  5  1  0
  4  6  2  0
  6  7  1  0
  7  8  2  0
  8  9  1  0
  8 10  1  0
 10 11  1  0
 10 12  2  0
 12 13  1  0
 12 14  1  0
 15 14  1  6
 15 16  1  0
 16 17  2  0
 17 18  1  0
 17 19  1  0
 19 20  1  0
 19 21  2  0
 21 22  1  0
 21 23  1  0
 23 24  1  0
 23 25  2  0
 25 26  1  0
 15 27  1  0
 27 28  2  0
 27 29  1  0
 29 30  1  0
 30 31  1  1
 30 32  1  0
 32 33  1  0
 32 34  1  0
 32 35  1  0
 35 36  1  0
 36 37  1  0
 36 38  1  0
 36 39  1  0
 39 40  1  0
 39 41  1  0
 29 42  1  0
 42 43  1  0
 43 44  1  0
 43 45  1  0
 42 46  2  0
 46 47  1  0
 14 48  2  0
 48 49  1  0
  6 50  1  0
 50 51  1  0
 50 52  2  0
 52 53  1  0
 52  2  1  0
 48  7  1  0
 46 15  1  0
 25 16  1  0
 39 30  1  0
M  CHG  1  46   1
M  END
>  <score>  (201) 
5.61919

$$$$

     RDKit          3D

 51 55  0  0  0  0  0  0  0  0999 V2000
   15.5320    5.3243   -1.4128 H   0  0  0  0  0  0  0  0  0  0  0  0
   15.5844    4.2596   -1.6156 C   0  0  0  0  0  0  0  0  0  0  0  0
   15.8399    3.8503   -2.8675 N   0  0  0  0  0  0  0  0  0  0  0  0
   15.8986    2.5265   -3.1006 C   0  0  0  0  0  0  0  0  0  0  0  0
   16.0980    2.1930   -4.1142 H   0  0  0  0  0  0  0  0  0  0  0  0
   15.7101    1.5591   -2.0987 C   0  0  0  0  0  0  0  0  0  0  0  0
   15.7764    0.1222   -2.3934 C   0  0  0  0  0  0  0  0  0  0  0  0
   16.3251   -0.3148   -3.6020 C   0  0  0  0  0  0  0  0  0  0  0  0
   16.7012    0.4221   -4.3057 H   0  0  0  0  0  0  0  0  0  0  0  0
   16.4033   -1.6796   -3.8904 C   0  0  0  0  0  0  0  0  0  0  0  0
   16.8551   -2.0050   -4.8248 H   0  0  0  0  0  0  0  0  0  0  0  0
   15.9214   -2.6189   -2.9663 C   0  0  0  0  0  0  0  0  0  0  0  0
   15.9860   -3.6766   -3.2000 H   0  0  0  0  0  0  0  0  0  0  0  0
   15.3662   -2.2142   -1.7398 C   0  0  0  0  0  0  0  0  0  0  0  0
   14.7985   -3.2237   -0.7425 C   0  0  2  0  0  0  0  0  0  0  0  0
   15.1751   -4.6725   -1.0495 C   0  0  0  0  0  0  0  0  0  0  0  0
   16.3976   -5.1972   -0.5967 C   0  0  0  0  0  0  0  0  0  0  0  0
   17.0791   -4.5525   -0.0501 H   0  0  0  0  0  0  0  0  0  0  0  0
   16.7307   -6.5411   -0.8002 C   0  0  0  0  0  0  0  0  0  0  0  0
   17.6701   -6.9304   -0.4143 H   0  0  0  0  0  0  0  0  0  0  0  0
   15.8457   -7.3814   -1.4823 C   0  0  0  0  0  0  0  0  0  0  0  0
   16.0979   -8.4281   -1.6282 H   0  0  0  0  0  0  0  0  0  0  0  0
   14.6365   -6.8714   -1.9682 C   0  0  0  0  0  0  0  0  0  0  0  0
   13.9510   -7.5330   -2.4917 H   0  0  0  0  0  0  0  0  0  0  0  0
   14.3031   -5.5259   -1.7518 C   0  0  0  0  0  0  0  0  0  0  0  0
   13.3473   -5.1542   -2.1088 H   0  0  0  0  0  0  0  0  0  0  0  0
   13.2727   -3.0321   -0.5780 C   0  0  0  0  0  0  0  0  0  0  0  0
   12.3979   -3.1682   -1.4329 O   0  0  0  0  0  0  0  0  0  0  0  0
   13.0257   -2.7410    0.7370 N   0  0  0  0  0  0  0  0  0  0  0  0
   11.7742   -2.5988    1.2678 C   0  0  0  0  0  0  0  0  0  0  0  0
   10.7474   -2.2245    0.5681 N   0  0  0  0  0  0  0  0  0  0  0  0
    9.5711   -2.1843    1.4544 C   0  0  0  0  0  0  0  0  0  0  0  0
    8.7219   -2.7160    1.0102 H   0  0  0  0  0  0  0  0  0  0  0  0
    9.2814   -1.1453    1.6392 H   0  0  0  0  0  0  0  0  0  0  0  0
   10.0251   -2.8451    2.7505 C   0  0  0  0  0  0  0  0  0  0  0  0
    9.7433   -2.2548    3.6264 H   0  0  0  0  0  0  0  0  0  0  0  0
    9.6173   -3.8566    2.8400 H   0  0  0  0  0  0  0  0  0  0  0  0
   11.4715   -2.8656    2.5704 N   0  0  0  0  0  0  0  0  0  0  0  0
   12.0423   -3.5725    3.0281 H   0  0  0  0  0  0  0  0  0  0  0  0
   14.2075   -2.7102    1.4269 C   0  0  0  0  0  0  0  0  0  0  0  0
   14.3769   -2.4688    2.7626 N   0  0  0  0  0  0  0  0  0  0  0  0
   13.6053   -2.0213    3.2566 H   0  0  0  0  0  0  0  0  0  0  0  0
   15.3293   -2.2597    3.0644 H   0  0  0  0  0  0  0  0  0  0  0  0
   15.2141   -2.9127    0.6439 N   0  0  0  0  0  4  0  0  0  0  0  0
   16.1808   -2.9842    0.9699 H   0  0  0  0  0  0  0  0  0  0  0  0
   15.2974   -0.8326   -1.4785 C   0  0  0  0  0  0  0  0  0  0  0  0
   14.8539   -0.4833   -0.5521 H   0  0  0  0  0  0  0  0  0  0  0  0
   15.4728    1.9955   -0.7986 C   0  0  0  0  0  0  0  0  0  0  0  0
   15.3671    1.2659   -0.0019 H   0  0  0  0  0  0  0  0  0  0  0  0
   15.3964    3.3645   -0.5599 C   0  0  0  0  0  0  0  0  0  0  0  0
   15.2054    3.7441    0.4366 H   0  0  0  0  0  0  0  0  0  0  0  0
  1  2  1  0
  2  3  2  0
  3  4  1  0
  4  5  1  0
  4  6  2  0
  6  7  1  0
  7  8  2  0
  8  9  1  0
  8 10  1  0
 10 11  1  0
 10 12  2  0
 12 13  1  0
 12 14  1  0
 15 14  1  6
 15 16  1  0
 16 17  2  0
 17 18  1  0
 17 19  1  0
 19 20  1  0
 19 21  2  0
 21 22  1  0
 21 23  1  0
 23 24  1  0
 23 25  2  0
 25 26  1  0
 15 27  1  0
 27 28  2  0
 27 29  1  0
 29 30  1  0
 30 31  2  0
 31 32  1  0
 32 33  1  0
 32 34  1  0
 32 35  1  0
 35 36  1  0
 35 37  1  0
 35 38  1  0
 38 39  1  0
 29 40  1  0
 40 41  1  0
 41 42  1  0
 41 43  1  0
 40 44  2  0
 44 45  1  0
 14 46  2  0
 46 47  1  0
  6 48  1  0
 48 49  1  0
 48 50  2  0
 50 51  1  0
 50  2  1  0
 46  7  1  0
 44 15  1  0
 25 16  1  0
 38 30  1  0
M  CHG  1  44   1
M  END
>  <score>  (202) 
5.61774

$$$$

     RDKit          3D

 61 65  0  0  0  0  0  0  0  0999 V2000
   15.5500    5.3464   -1.3974 H   0  0  0  0  0  0  0  0  0  0  0  0
   15.5877    4.2805   -1.6066 C   0  0  0  0  0  0  0  0  0  0  0  0
   15.8254    3.8668   -2.8608 N   0  0  0  0  0  0  0  0  0  0  0  0
   15.8811    2.5407   -3.0949 C   0  0  0  0  0  0  0  0  0  0  0  0
   16.0743    2.2014   -4.1076 H   0  0  0  0  0  0  0  0  0  0  0  0
   15.6979    1.5681   -2.0980 C   0  0  0  0  0  0  0  0  0  0  0  0
   15.7771    0.1227   -2.4061 C   0  0  0  0  0  0  0  0  0  0  0  0
   16.3310   -0.3161   -3.6138 C   0  0  0  0  0  0  0  0  0  0  0  0
   16.7099    0.4306   -4.3040 H   0  0  0  0  0  0  0  0  0  0  0  0
   16.4209   -1.6823   -3.9103 C   0  0  0  0  0  0  0  0  0  0  0  0
   16.8662   -1.9996   -4.8477 H   0  0  0  0  0  0  0  0  0  0  0  0
   15.9444   -2.6334   -2.9994 C   0  0  0  0  0  0  0  0  0  0  0  0
   16.0021   -3.6927   -3.2352 H   0  0  0  0  0  0  0  0  0  0  0  0
   15.3882   -2.2287   -1.7770 C   0  0  0  0  0  0  0  0  0  0  0  0
   14.8322   -3.2343   -0.7733 C   0  0  2  0  0  0  0  0  0  0  0  0
   15.1867   -4.6987   -1.0693 C   0  0  0  0  0  0  0  0  0  0  0  0
   16.4025   -5.2267   -0.6064 C   0  0  0  0  0  0  0  0  0  0  0  0
   17.0811   -4.5782   -0.0600 H   0  0  0  0  0  0  0  0  0  0  0  0
   16.7377   -6.5723   -0.8017 C   0  0  0  0  0  0  0  0  0  0  0  0
   17.6752   -6.9613   -0.4118 H   0  0  0  0  0  0  0  0  0  0  0  0
   15.8567   -7.4194   -1.4804 C   0  0  0  0  0  0  0  0  0  0  0  0
   16.1042   -8.4682   -1.6186 H   0  0  0  0  0  0  0  0  0  0  0  0
   14.6436   -6.9163   -1.9632 C   0  0  0  0  0  0  0  0  0  0  0  0
   13.9530   -7.5775   -2.4819 H   0  0  0  0  0  0  0  0  0  0  0  0
   14.3125   -5.5649   -1.7605 C   0  0  0  0  0  0  0  0  0  0  0  0
   13.3581   -5.1919   -2.1194 H   0  0  0  0  0  0  0  0  0  0  0  0
   13.3190   -3.0140   -0.6061 C   0  0  0  0  0  0  0  0  0  0  0  0
   12.5075   -3.1745   -1.5207 O   0  0  0  0  0  0  0  0  0  0  0  0
   13.0327   -2.5954    0.6933 N   0  0  0  0  0  0  0  0  0  0  0  0
   11.7231   -2.5795    1.3303 N   0  0  0  0  0  0  0  0  0  0  0  0
   11.5605   -1.7206    1.8777 H   0  0  0  0  0  0  0  0  0  0  0  0
   11.3873   -3.7753    2.1279 C   0  0  0  0  0  0  0  0  0  0  0  0
   10.3788   -3.6734    2.5351 H   0  0  0  0  0  0  0  0  0  0  0  0
   12.0699   -3.8512    2.9784 H   0  0  0  0  0  0  0  0  0  0  0  0
   11.4722   -5.0372    1.2919 C   0  0  0  0  0  0  0  0  0  0  0  0
   12.4634   -6.0036    1.5360 C   0  0  0  0  0  0  0  0  0  0  0  0
   13.1992   -5.8255    2.3151 H   0  0  0  0  0  0  0  0  0  0  0  0
   12.5067   -7.1925    0.7858 C   0  0  0  0  0  0  0  0  0  0  0  0
   13.2605   -7.9466    0.9805 H   0  0  0  0  0  0  0  0  0  0  0  0
   11.5664   -7.4263   -0.2278 C   0  0  0  0  0  0  0  0  0  0  0  0
   11.5076   -8.5599   -1.0032 O   0  0  0  0  0  0  0  0  0  0  0  0
   12.3687   -9.6515   -0.6732 C   0  0  0  0  0  0  0  0  0  0  0  0
   12.1854   -9.9818    0.3560 H   0  0  0  0  0  0  0  0  0  0  0  0
   13.4159   -9.3483   -0.7815 H   0  0  0  0  0  0  0  0  0  0  0  0
   12.1646  -10.4886   -1.3576 H   0  0  0  0  0  0  0  0  0  0  0  0
   10.6065   -6.4492   -0.4887 C   0  0  0  0  0  0  0  0  0  0  0  0
    9.8882   -6.6369   -1.2814 H   0  0  0  0  0  0  0  0  0  0  0  0
   10.5555   -5.2642    0.2570 C   0  0  0  0  0  0  0  0  0  0  0  0
    9.8010   -4.5152    0.0315 H   0  0  0  0  0  0  0  0  0  0  0  0
   14.2665   -2.5922    1.3524 C   0  0  0  0  0  0  0  0  0  0  0  0
   14.4562   -2.3438    2.6839 N   0  0  0  0  0  0  0  0  0  0  0  0
   15.4000   -2.3497    3.0707 H   0  0  0  0  0  0  0  0  0  0  0  0
   13.6604   -2.0660    3.2529 H   0  0  0  0  0  0  0  0  0  0  0  0
   15.2698   -2.8900    0.5908 N   0  0  0  0  0  4  0  0  0  0  0  0
   16.2409   -2.9803    0.9096 H   0  0  0  0  0  0  0  0  0  0  0  0
   15.3099   -0.8465   -1.5025 C   0  0  0  0  0  0  0  0  0  0  0  0
   14.8639   -0.5113   -0.5704 H   0  0  0  0  0  0  0  0  0  0  0  0
   15.4482    2.0095   -0.7999 C   0  0  0  0  0  0  0  0  0  0  0  0
   15.3401    1.2706   -0.0118 H   0  0  0  0  0  0  0  0  0  0  0  0
   15.3851    3.3828   -0.5569 C   0  0  0  0  0  0  0  0  0  0  0  0
   15.1849    3.7677    0.4350 H   0  0  0  0  0  0  0  0  0  0  0  0
  1  2  1  0
  2  3  2  0
  3  4  1  0
  4  5  1  0
  4  6  2  0
  6  7  1  0
  7  8  2  0
  8  9  1  0
  8 10  1  0
 10 11  1  0
 10 12  2  0
 12 13  1  0
 12 14  1  0
 15 14  1  6
 15 16  1  0
 16 17  2  0
 17 18  1  0
 17 19  1  0
 19 20  1  0
 19 21  2  0
 21 22  1  0
 21 23  1  0
 23 24  1  0
 23 25  2  0
 25 26  1  0
 15 27  1  0
 27 28  2  0
 27 29  1  0
 29 30  1  0
 30 31  1  0
 30 32  1  0
 32 33  1  0
 32 34  1  0
 32 35  1  0
 35 36  2  0
 36 37  1  0
 36 38  1  0
 38 39  1  0
 38 40  2  0
 40 41  1  0
 41 42  1  0
 42 43  1  0
 42 44  1  0
 42 45  1  0
 40 46  1  0
 46 47  1  0
 46 48  2  0
 48 49  1  0
 29 50  1  0
 50 51  1  0
 51 52  1  0
 51 53  1  0
 50 54  2  0
 54 55  1  0
 14 56  2  0
 56 57  1  0
  6 58  1  0
 58 59  1  0
 58 60  2  0
 60 61  1  0
 60  2  1  0
 56  7  1  0
 54 15  1  0
 25 16  1  0
 48 35  1  0
M  CHG  1  54   1
M  END
>  <score>  (203) 
5.61729

$$$$

     RDKit          3D

 52 55  0  0  0  0  0  0  0  0999 V2000
   11.6514   -2.7419   -0.9772 H   0  0  0  0  0  0  0  0  0  0  0  0
   11.0013   -2.6904   -0.2502 O   0  0  0  0  0  0  0  0  0  0  0  0
   11.7737   -2.4987    0.9018 C   0  0  0  0  0  0  0  0  0  0  0  0
   13.0860   -2.9271    0.5316 N   0  0  0  0  0  0  0  0  0  0  0  0
   13.4903   -3.1280   -0.7570 C   0  0  0  0  0  0  0  0  0  0  0  0
   12.6900   -3.0941   -1.6917 O   0  0  0  0  0  0  0  0  0  0  0  0
   15.0178   -3.2870   -0.8177 C   0  0  1  0  0  0  0  0  0  0  0  0
   15.3994   -4.7364   -1.1237 C   0  0  0  0  0  0  0  0  0  0  0  0
   16.6035   -5.2840   -0.6518 C   0  0  0  0  0  0  0  0  0  0  0  0
   17.3038   -4.6532   -0.1112 H   0  0  0  0  0  0  0  0  0  0  0  0
   16.9024   -6.6375   -0.8513 C   0  0  0  0  0  0  0  0  0  0  0  0
   17.8341   -7.0438   -0.4716 H   0  0  0  0  0  0  0  0  0  0  0  0
   16.0027   -7.4664   -1.5271 C   0  0  0  0  0  0  0  0  0  0  0  0
   16.2215   -8.5238   -1.6469 H   0  0  0  0  0  0  0  0  0  0  0  0
   14.8215   -6.9283   -2.0428 C   0  0  0  0  0  0  0  0  0  0  0  0
   14.1338   -7.5692   -2.5864 H   0  0  0  0  0  0  0  0  0  0  0  0
   14.5261   -5.5724   -1.8504 C   0  0  0  0  0  0  0  0  0  0  0  0
   13.6007   -5.1725   -2.2557 H   0  0  0  0  0  0  0  0  0  0  0  0
   15.5883   -2.2626   -1.7928 C   0  0  0  0  0  0  0  0  0  0  0  0
   16.0742   -2.6427   -3.0540 C   0  0  0  0  0  0  0  0  0  0  0  0
   16.1260   -3.6948   -3.3166 H   0  0  0  0  0  0  0  0  0  0  0  0
   16.4850   -1.6797   -3.9822 C   0  0  0  0  0  0  0  0  0  0  0  0
   16.8650   -1.9825   -4.9527 H   0  0  0  0  0  0  0  0  0  0  0  0
   16.4022   -0.3204   -3.6671 C   0  0  0  0  0  0  0  0  0  0  0  0
   16.7124    0.4175   -4.4006 H   0  0  0  0  0  0  0  0  0  0  0  0
   15.9235    0.0956   -2.4158 C   0  0  0  0  0  0  0  0  0  0  0  0
   15.8249    1.5328   -2.0899 C   0  0  0  0  0  0  0  0  0  0  0  0
   15.9652    2.5133   -3.0902 C   0  0  0  0  0  0  0  0  0  0  0  0
   16.1501    2.1985   -4.1127 H   0  0  0  0  0  0  0  0  0  0  0  0
   15.8676    3.8339   -2.8532 N   0  0  0  0  0  0  0  0  0  0  0  0
   15.6241    4.2357   -1.5978 C   0  0  0  0  0  0  0  0  0  0  0  0
   15.5333    5.2990   -1.4001 H   0  0  0  0  0  0  0  0  0  0  0  0
   15.4771    3.3344   -0.5421 C   0  0  0  0  0  0  0  0  0  0  0  0
   15.2793    3.7113    0.4538 H   0  0  0  0  0  0  0  0  0  0  0  0
   15.5857    1.9656   -0.7804 C   0  0  0  0  0  0  0  0  0  0  0  0
   15.4938    1.2541    0.0371 H   0  0  0  0  0  0  0  0  0  0  0  0
   15.5260   -0.8879   -1.4920 C   0  0  0  0  0  0  0  0  0  0  0  0
   15.1432   -0.5743   -0.5257 H   0  0  0  0  0  0  0  0  0  0  0  0
   15.2996   -2.9577    0.6005 N   0  0  0  0  0  4  0  0  0  0  0  0
   16.2417   -2.9013    0.9941 H   0  0  0  0  0  0  0  0  0  0  0  0
   14.2161   -2.7843    1.2894 C   0  0  0  0  0  0  0  0  0  0  0  0
   14.2176   -2.4751    2.6188 N   0  0  0  0  0  0  0  0  0  0  0  0
   13.3538   -2.1714    3.0632 H   0  0  0  0  0  0  0  0  0  0  0  0
   15.1061   -2.3022    3.0839 H   0  0  0  0  0  0  0  0  0  0  0  0
   11.8228   -1.0307    1.2308 C   0  0  0  0  0  0  0  0  0  0  0  0
   12.3997   -0.8791    2.1447 H   0  0  0  0  0  0  0  0  0  0  0  0
   10.8136   -0.6523    1.3724 H   0  0  0  0  0  0  0  0  0  0  0  0
   12.2874   -0.4774    0.4126 H   0  0  0  0  0  0  0  0  0  0  0  0
   11.2264   -3.3509    2.0236 C   0  0  0  0  0  0  0  0  0  0  0  0
   10.2433   -2.9861    2.3308 H   0  0  0  0  0  0  0  0  0  0  0  0
   11.1343   -4.3930    1.6976 H   0  0  0  0  0  0  0  0  0  0  0  0
   11.9030   -3.3103    2.8796 H   0  0  0  0  0  0  0  0  0  0  0  0
  1  2  1  0
  2  3  1  0
  3  4  1  0
  4  5  1  0
  5  6  2  0
  5  7  1  0
  7  8  1  6
  8  9  2  0
  9 10  1  0
  9 11  1  0
 11 12  1  0
 11 13  2  0
 13 14  1  0
 13 15  1  0
 15 16  1  0
 15 17  2  0
 17 18  1  0
  7 19  1  0
 19 20  2  0
 20 21  1  0
 20 22  1  0
 22 23  1  0
 22 24  2  0
 24 25  1  0
 24 26  1  0
 26 27  1  0
 27 28  2  0
 28 29  1  0
 28 30  1  0
 30 31  2  0
 31 32  1  0
 31 33  1  0
 33 34  1  0
 33 35  2  0
 35 36  1  0
 26 37  2  0
 37 38  1  0
  7 39  1  0
 39 40  1  0
 39 41  2  0
 41 42  1  0
 42 43  1  0
 42 44  1  0
  3 45  1  0
 45 46  1  0
 45 47  1  0
 45 48  1  0
  3 49  1  0
 49 50  1  0
 49 51  1  0
 49 52  1  0
 41  4  1  0
 17  8  1  0
 37 19  1  0
 35 27  1  0
M  CHG  1  39   1
M  END
>  <score>  (204) 
5.61281

$$$$

     RDKit          3D

 57 61  0  0  0  0  0  0  0  0999 V2000
   15.5484    5.3455   -1.3968 H   0  0  0  0  0  0  0  0  0  0  0  0
   15.5874    4.2795   -1.6084 C   0  0  0  0  0  0  0  0  0  0  0  0
   15.8239    3.8646   -2.8636 N   0  0  0  0  0  0  0  0  0  0  0  0
   15.8838    2.5382   -3.0955 C   0  0  0  0  0  0  0  0  0  0  0  0
   16.0786    2.1951   -4.1055 H   0  0  0  0  0  0  0  0  0  0  0  0
   15.6996    1.5663   -2.0992 C   0  0  0  0  0  0  0  0  0  0  0  0
   15.7746    0.1232   -2.4025 C   0  0  0  0  0  0  0  0  0  0  0  0
   16.3259   -0.3164   -3.6082 C   0  0  0  0  0  0  0  0  0  0  0  0
   16.7064    0.4306   -4.2961 H   0  0  0  0  0  0  0  0  0  0  0  0
   16.4176   -1.6834   -3.8987 C   0  0  0  0  0  0  0  0  0  0  0  0
   16.8616   -2.0039   -4.8353 H   0  0  0  0  0  0  0  0  0  0  0  0
   15.9353   -2.6315   -2.9864 C   0  0  0  0  0  0  0  0  0  0  0  0
   15.9940   -3.6914   -3.2215 H   0  0  0  0  0  0  0  0  0  0  0  0
   15.3705   -2.2236   -1.7662 C   0  0  0  0  0  0  0  0  0  0  0  0
   14.8028   -3.2344   -0.7668 C   0  0  2  0  0  0  0  0  0  0  0  0
   15.1735   -4.6927   -1.0649 C   0  0  0  0  0  0  0  0  0  0  0  0
   16.3932   -5.2150   -0.6006 C   0  0  0  0  0  0  0  0  0  0  0  0
   17.0723   -4.5660   -0.0551 H   0  0  0  0  0  0  0  0  0  0  0  0
   16.7346   -6.5584   -0.8037 C   0  0  0  0  0  0  0  0  0  0  0  0
   17.6692   -6.9516   -0.4137 H   0  0  0  0  0  0  0  0  0  0  0  0
   15.8569   -7.4076   -1.4823 C   0  0  0  0  0  0  0  0  0  0  0  0
   16.1024   -8.4576   -1.6165 H   0  0  0  0  0  0  0  0  0  0  0  0
   14.6451   -6.9059   -1.9664 C   0  0  0  0  0  0  0  0  0  0  0  0
   13.9620   -7.5705   -2.4878 H   0  0  0  0  0  0  0  0  0  0  0  0
   14.3064   -5.5580   -1.7610 C   0  0  0  0  0  0  0  0  0  0  0  0
   13.3534   -5.1841   -2.1219 H   0  0  0  0  0  0  0  0  0  0  0  0
   13.2813   -3.0236   -0.6028 C   0  0  0  0  0  0  0  0  0  0  0  0
   12.4270   -3.1238   -1.4830 O   0  0  0  0  0  0  0  0  0  0  0  0
   13.0036   -2.6929    0.7088 N   0  0  0  0  0  0  0  0  0  0  0  0
   11.7300   -2.4871    1.2538 C   0  0  0  0  0  0  0  0  0  0  0  0
   10.8291   -1.5907    0.6687 C   0  0  0  0  0  0  0  0  0  0  0  0
   11.1615   -1.0234   -0.1949 H   0  0  0  0  0  0  0  0  0  0  0  0
    9.5482   -1.4068    1.2180 C   0  0  0  0  0  0  0  0  0  0  0  0
    8.8592   -0.6857    0.7793 H   0  0  0  0  0  0  0  0  0  0  0  0
    9.1657   -2.1522    2.3395 C   0  0  0  0  0  0  0  0  0  0  0  0
    8.1715   -2.0184    2.7576 H   0  0  0  0  0  0  0  0  0  0  0  0
   10.0492   -3.0782    2.9158 C   0  0  0  0  0  0  0  0  0  0  0  0
    9.6289   -3.9130    4.0357 C   0  0  0  0  0  0  0  0  0  0  0  0
    8.5225   -3.7694    4.5443 O   0  0  0  0  0  0  0  0  0  0  0  0
   10.5532   -4.9977    4.5519 C   0  0  0  0  0  0  0  0  0  0  0  0
   10.0040   -5.6857    5.1980 H   0  0  0  0  0  0  0  0  0  0  0  0
   11.3546   -4.5382    5.1282 H   0  0  0  0  0  0  0  0  0  0  0  0
   10.9997   -5.5433    3.7157 H   0  0  0  0  0  0  0  0  0  0  0  0
   11.3401   -3.2092    2.3788 C   0  0  0  0  0  0  0  0  0  0  0  0
   12.0567   -3.8971    2.8147 H   0  0  0  0  0  0  0  0  0  0  0  0
   14.2035   -2.6630    1.3891 C   0  0  0  0  0  0  0  0  0  0  0  0
   14.3945   -2.3839    2.7141 N   0  0  0  0  0  0  0  0  0  0  0  0
   15.3489   -2.3283    3.0709 H   0  0  0  0  0  0  0  0  0  0  0  0
   13.6135   -2.0451    3.2780 H   0  0  0  0  0  0  0  0  0  0  0  0
   15.2140   -2.9172    0.6200 N   0  0  0  0  0  4  0  0  0  0  0  0
   16.1816   -2.9530    0.9520 H   0  0  0  0  0  0  0  0  0  0  0  0
   15.3034   -0.8400   -1.4942 C   0  0  0  0  0  0  0  0  0  0  0  0
   14.8625   -0.4960   -0.5638 H   0  0  0  0  0  0  0  0  0  0  0  0
   15.4526    2.0061   -0.8018 C   0  0  0  0  0  0  0  0  0  0  0  0
   15.3476    1.2644   -0.0157 H   0  0  0  0  0  0  0  0  0  0  0  0
   15.3879    3.3803   -0.5574 C   0  0  0  0  0  0  0  0  0  0  0  0
   15.1856    3.7670    0.4346 H   0  0  0  0  0  0  0  0  0  0  0  0
  1  2  1  0
  2  3  2  0
  3  4  1  0
  4  5  1  0
  4  6  2  0
  6  7  1  0
  7  8  2  0
  8  9  1  0
  8 10  1  0
 10 11  1  0
 10 12  2  0
 12 13  1  0
 12 14  1  0
 15 14  1  6
 15 16  1  0
 16 17  2  0
 17 18  1  0
 17 19  1  0
 19 20  1  0
 19 21  2  0
 21 22  1  0
 21 23  1  0
 23 24  1  0
 23 25  2  0
 25 26  1  0
 15 27  1  0
 27 28  2  0
 27 29  1  0
 29 30  1  0
 30 31  2  0
 31 32  1  0
 31 33  1  0
 33 34  1  0
 33 35  2  0
 35 36  1  0
 35 37  1  0
 37 38  1  0
 38 39  2  0
 38 40  1  0
 40 41  1  0
 40 42  1  0
 40 43  1  0
 37 44  2  0
 44 45  1  0
 29 46  1  0
 46 47  1  0
 47 48  1  0
 47 49  1  0
 46 50  2  0
 50 51  1  0
 14 52  2  0
 52 53  1  0
  6 54  1  0
 54 55  1  0
 54 56  2  0
 56 57  1  0
 56  2  1  0
 52  7  1  0
 50 15  1  0
 25 16  1  0
 44 30  1  0
M  CHG  1  50   1
M  END
>  <score>  (205) 
5.61096

$$$$

     RDKit          3D

 56 60  0  0  0  0  0  0  0  0999 V2000
   15.5208    5.3247   -1.4279 H   0  0  0  0  0  0  0  0  0  0  0  0
   15.5981    4.2584   -1.6138 C   0  0  0  0  0  0  0  0  0  0  0  0
   15.8507    3.8390   -2.8629 N   0  0  0  0  0  0  0  0  0  0  0  0
   15.9184    2.5134   -3.0861 C   0  0  0  0  0  0  0  0  0  0  0  0
   16.1222    2.1701   -4.0959 H   0  0  0  0  0  0  0  0  0  0  0  0
   15.7330    1.5532   -2.0775 C   0  0  0  0  0  0  0  0  0  0  0  0
   15.7875    0.1122   -2.3736 C   0  0  0  0  0  0  0  0  0  0  0  0
   16.3247   -0.3471   -3.5831 C   0  0  0  0  0  0  0  0  0  0  0  0
   16.6975    0.3677   -4.3078 H   0  0  0  0  0  0  0  0  0  0  0  0
   16.3851   -1.7150   -3.8684 C   0  0  0  0  0  0  0  0  0  0  0  0
   16.8070   -2.0557   -4.8100 H   0  0  0  0  0  0  0  0  0  0  0  0
   15.9206   -2.6419   -2.9308 C   0  0  0  0  0  0  0  0  0  0  0  0
   15.9586   -3.7046   -3.1543 H   0  0  0  0  0  0  0  0  0  0  0  0
   15.4000   -2.2146   -1.6998 C   0  0  0  0  0  0  0  0  0  0  0  0
   14.8406   -3.2075   -0.6970 C   0  0  2  0  0  0  0  0  0  0  0  0
   15.1975   -4.6471   -1.0113 C   0  0  0  0  0  0  0  0  0  0  0  0
   16.4172   -5.1754   -0.5752 C   0  0  0  0  0  0  0  0  0  0  0  0
   17.1026   -4.5332   -0.0305 H   0  0  0  0  0  0  0  0  0  0  0  0
   16.7371   -6.5139   -0.8050 C   0  0  0  0  0  0  0  0  0  0  0  0
   17.6822   -6.8988   -0.4333 H   0  0  0  0  0  0  0  0  0  0  0  0
   15.8418   -7.3363   -1.4988 C   0  0  0  0  0  0  0  0  0  0  0  0
   16.0919   -8.3782   -1.6711 H   0  0  0  0  0  0  0  0  0  0  0  0
   14.6300   -6.8139   -1.9659 C   0  0  0  0  0  0  0  0  0  0  0  0
   13.9320   -7.4498   -2.5036 H   0  0  0  0  0  0  0  0  0  0  0  0
   14.3111   -5.4746   -1.7231 C   0  0  0  0  0  0  0  0  0  0  0  0
   13.3614   -5.0868   -2.0805 H   0  0  0  0  0  0  0  0  0  0  0  0
   13.3223   -3.0194   -0.5772 C   0  0  0  0  0  0  0  0  0  0  0  0
   12.4503   -3.2363   -1.4159 O   0  0  0  0  0  0  0  0  0  0  0  0
   13.0358   -2.7326    0.7215 N   0  0  0  0  0  0  0  0  0  0  0  0
   11.7585   -2.6009    1.1463 C   0  0  0  0  0  0  0  0  0  0  0  0
   10.9219   -2.3207    0.3098 O   0  0  0  0  0  0  0  0  0  0  0  0
   11.4232   -2.7973    2.4593 N   0  0  0  0  0  0  0  0  0  0  0  0
   12.1915   -3.0762    3.0560 H   0  0  0  0  0  0  0  0  0  0  0  0
   10.1278   -3.0894    2.9034 C   0  0  0  0  0  0  0  0  0  0  0  0
    9.0372   -3.2315    2.0344 C   0  0  0  0  0  0  0  0  0  0  0  0
    9.1897   -3.0992    0.9723 H   0  0  0  0  0  0  0  0  0  0  0  0
    7.7686   -3.5784    2.5196 C   0  0  0  0  0  0  0  0  0  0  0  0
    6.9463   -3.7447    1.8339 H   0  0  0  0  0  0  0  0  0  0  0  0
    7.5575   -3.7524    3.8851 C   0  0  0  0  0  0  0  0  0  0  0  0
    6.3154   -4.0424    4.3382 F   0  0  0  0  0  0  0  0  0  0  0  0
    8.6463   -3.6451    4.7559 C   0  0  0  0  0  0  0  0  0  0  0  0
    8.4766   -3.8438    5.8097 H   0  0  0  0  0  0  0  0  0  0  0  0
    9.9254   -3.3134    4.2611 C   0  0  0  0  0  0  0  0  0  0  0  0
   10.7949   -3.2266    4.9041 H   0  0  0  0  0  0  0  0  0  0  0  0
   14.1815   -2.6982    1.4431 C   0  0  0  0  0  0  0  0  0  0  0  0
   14.2881   -2.4697    2.7734 N   0  0  0  0  0  0  0  0  0  0  0  0
   15.2249   -2.2408    3.1008 H   0  0  0  0  0  0  0  0  0  0  0  0
   13.4926   -2.0548    3.2524 H   0  0  0  0  0  0  0  0  0  0  0  0
   15.2177   -2.9001    0.7017 N   0  0  0  0  0  4  0  0  0  0  0  0
   16.1678   -2.9928    1.0695 H   0  0  0  0  0  0  0  0  0  0  0  0
   15.3108   -0.8335   -1.4520 C   0  0  0  0  0  0  0  0  0  0  0  0
   14.8584   -0.4813   -0.5304 H   0  0  0  0  0  0  0  0  0  0  0  0
   15.5076    2.0012   -0.7768 C   0  0  0  0  0  0  0  0  0  0  0  0
   15.3974    1.2856    0.0324 H   0  0  0  0  0  0  0  0  0  0  0  0
   15.4311    3.3707   -0.5485 C   0  0  0  0  0  0  0  0  0  0  0  0
   15.2409    3.7468    0.4483 H   0  0  0  0  0  0  0  0  0  0  0  0
  1  2  1  0
  2  3  2  0
  3  4  1  0
  4  5  1  0
  4  6  2  0
  6  7  1  0
  7  8  2  0
  8  9  1  0
  8 10  1  0
 10 11  1  0
 10 12  2  0
 12 13  1  0
 12 14  1  0
 15 14  1  6
 15 16  1  0
 16 17  2  0
 17 18  1  0
 17 19  1  0
 19 20  1  0
 19 21  2  0
 21 22  1  0
 21 23  1  0
 23 24  1  0
 23 25  2  0
 25 26  1  0
 15 27  1  0
 27 28  2  0
 27 29  1  0
 29 30  1  0
 30 31  2  0
 30 32  1  0
 32 33  1  0
 32 34  1  0
 34 35  2  0
 35 36  1  0
 35 37  1  0
 37 38  1  0
 37 39  2  0
 39 40  1  0
 39 41  1  0
 41 42  1  0
 41 43  2  0
 43 44  1  0
 29 45  1  0
 45 46  1  0
 46 47  1  0
 46 48  1  0
 45 49  2  0
 49 50  1  0
 14 51  2  0
 51 52  1  0
  6 53  1  0
 53 54  1  0
 53 55  2  0
 55 56  1  0
 55  2  1  0
 51  7  1  0
 49 15  1  0
 25 16  1  0
 43 34  1  0
M  CHG  1  49   1
M  END
>  <score>  (206) 
5.60966

$$$$

     RDKit          3D

 59 62  0  0  0  0  0  0  0  0999 V2000
   15.5282    5.3181   -1.4179 H   0  0  0  0  0  0  0  0  0  0  0  0
   15.5833    4.2521   -1.6174 C   0  0  0  0  0  0  0  0  0  0  0  0
   15.8451    3.8413   -2.8677 N   0  0  0  0  0  0  0  0  0  0  0  0
   15.9019    2.5170   -3.0996 C   0  0  0  0  0  0  0  0  0  0  0  0
   16.1016    2.1913   -4.1160 H   0  0  0  0  0  0  0  0  0  0  0  0
   15.7094    1.5489   -2.0970 C   0  0  0  0  0  0  0  0  0  0  0  0
   15.7634    0.1120   -2.3878 C   0  0  0  0  0  0  0  0  0  0  0  0
   16.3176   -0.3228   -3.5942 C   0  0  0  0  0  0  0  0  0  0  0  0
   16.6986    0.4093   -4.3007 H   0  0  0  0  0  0  0  0  0  0  0  0
   16.3913   -1.6848   -3.8851 C   0  0  0  0  0  0  0  0  0  0  0  0
   16.8540   -2.0057   -4.8158 H   0  0  0  0  0  0  0  0  0  0  0  0
   15.8999   -2.6264   -2.9678 C   0  0  0  0  0  0  0  0  0  0  0  0
   15.9789   -3.6829   -3.2016 H   0  0  0  0  0  0  0  0  0  0  0  0
   15.3359   -2.2276   -1.7421 C   0  0  0  0  0  0  0  0  0  0  0  0
   14.7770   -3.2477   -0.7448 C   0  0  2  0  0  0  0  0  0  0  0  0
   15.1831   -4.6868   -1.0457 C   0  0  0  0  0  0  0  0  0  0  0  0
   16.4098   -5.2071   -0.5946 C   0  0  0  0  0  0  0  0  0  0  0  0
   17.0915   -4.5613   -0.0488 H   0  0  0  0  0  0  0  0  0  0  0  0
   16.7425   -6.5513   -0.8014 C   0  0  0  0  0  0  0  0  0  0  0  0
   17.6819   -6.9386   -0.4136 H   0  0  0  0  0  0  0  0  0  0  0  0
   15.8555   -7.3911   -1.4842 C   0  0  0  0  0  0  0  0  0  0  0  0
   16.1062   -8.4386   -1.6304 H   0  0  0  0  0  0  0  0  0  0  0  0
   14.6471   -6.8785   -1.9705 C   0  0  0  0  0  0  0  0  0  0  0  0
   13.9565   -7.5341   -2.4933 H   0  0  0  0  0  0  0  0  0  0  0  0
   14.3147   -5.5360   -1.7506 C   0  0  0  0  0  0  0  0  0  0  0  0
   13.3605   -5.1602   -2.1079 H   0  0  0  0  0  0  0  0  0  0  0  0
   13.2462   -3.0876   -0.5587 C   0  0  0  0  0  0  0  0  0  0  0  0
   12.3534   -3.2262   -1.3954 O   0  0  0  0  0  0  0  0  0  0  0  0
   13.0090   -2.6955    0.7371 N   0  0  0  0  0  0  0  0  0  0  0  0
   11.7089   -2.5213    1.3208 C   0  0  0  0  0  0  0  0  0  0  0  0
   11.7704   -2.0937    2.3284 H   0  0  0  0  0  0  0  0  0  0  0  0
   11.1211   -1.8254    0.7114 H   0  0  0  0  0  0  0  0  0  0  0  0
   11.0943   -3.8538    1.3418 N   0  0  0  0  0  0  0  0  0  0  0  0
   11.7726   -4.9056    2.1205 C   0  0  0  0  0  0  0  0  0  0  0  0
   11.3981   -5.8904    1.8185 H   0  0  0  0  0  0  0  0  0  0  0  0
   12.8478   -4.8861    1.9184 H   0  0  0  0  0  0  0  0  0  0  0  0
   11.5212   -4.6980    3.6053 C   0  0  0  0  0  0  0  0  0  0  0  0
   12.1136   -5.4023    4.1879 H   0  0  0  0  0  0  0  0  0  0  0  0
   10.4657   -4.8542    3.8387 H   0  0  0  0  0  0  0  0  0  0  0  0
   11.7971   -3.6864    3.9047 H   0  0  0  0  0  0  0  0  0  0  0  0
    9.6192   -3.9089    1.3494 C   0  0  0  0  0  0  0  0  0  0  0  0
    9.2323   -3.6887    0.3518 H   0  0  0  0  0  0  0  0  0  0  0  0
    9.2792   -4.9169    1.6011 H   0  0  0  0  0  0  0  0  0  0  0  0
    9.0427   -2.9196    2.3522 C   0  0  0  0  0  0  0  0  0  0  0  0
    9.2226   -1.8979    2.0169 H   0  0  0  0  0  0  0  0  0  0  0  0
    9.5074   -3.0453    3.3306 H   0  0  0  0  0  0  0  0  0  0  0  0
    7.9670   -3.0658    2.4557 H   0  0  0  0  0  0  0  0  0  0  0  0
   14.1944   -2.6794    1.4093 C   0  0  0  0  0  0  0  0  0  0  0  0
   14.3679   -2.4127    2.7362 N   0  0  0  0  0  0  0  0  0  0  0  0
   15.3190   -2.2835    3.0789 H   0  0  0  0  0  0  0  0  0  0  0  0
   13.5700   -2.0945    3.2869 H   0  0  0  0  0  0  0  0  0  0  0  0
   15.1931   -2.9235    0.6339 N   0  0  0  0  0  4  0  0  0  0  0  0
   16.1593   -2.9890    0.9541 H   0  0  0  0  0  0  0  0  0  0  0  0
   15.2729   -0.8445   -1.4774 C   0  0  0  0  0  0  0  0  0  0  0  0
   14.8395   -0.4998   -0.5442 H   0  0  0  0  0  0  0  0  0  0  0  0
   15.4784    1.9886   -0.7964 C   0  0  0  0  0  0  0  0  0  0  0  0
   15.3696    1.2672    0.0067 H   0  0  0  0  0  0  0  0  0  0  0  0
   15.3995    3.3572   -0.5602 C   0  0  0  0  0  0  0  0  0  0  0  0
   15.2123    3.7358    0.4382 H   0  0  0  0  0  0  0  0  0  0  0  0
  1  2  1  0
  2  3  2  0
  3  4  1  0
  4  5  1  0
  4  6  2  0
  6  7  1  0
  7  8  2  0
  8  9  1  0
  8 10  1  0
 10 11  1  0
 10 12  2  0
 12 13  1  0
 12 14  1  0
 15 14  1  6
 15 16  1  0
 16 17  2  0
 17 18  1  0
 17 19  1  0
 19 20  1  0
 19 21  2  0
 21 22  1  0
 21 23  1  0
 23 24  1  0
 23 25  2  0
 25 26  1  0
 15 27  1  0
 27 28  2  0
 27 29  1  0
 29 30  1  0
 30 31  1  0
 30 32  1  0
 30 33  1  0
 33 34  1  0
 34 35  1  0
 34 36  1  0
 34 37  1  0
 37 38  1  0
 37 39  1  0
 37 40  1  0
 33 41  1  0
 41 42  1  0
 41 43  1  0
 41 44  1  0
 44 45  1  0
 44 46  1  0
 44 47  1  0
 29 48  1  0
 48 49  1  0
 49 50  1  0
 49 51  1  0
 48 52  2  0
 52 53  1  0
 14 54  2  0
 54 55  1  0
  6 56  1  0
 56 57  1  0
 56 58  2  0
 58 59  1  0
 58  2  1  0
 54  7  1  0
 52 15  1  0
 25 16  1  0
M  CHG  1  52   1
M  END
>  <score>  (207) 
5.60877

$$$$

     RDKit          3D

 47 50  0  0  0  0  0  0  0  0999 V2000
   15.5407    5.3332   -1.4069 H   0  0  0  0  0  0  0  0  0  0  0  0
   15.5855    4.2688   -1.6108 C   0  0  0  0  0  0  0  0  0  0  0  0
   15.8351    3.8589   -2.8634 N   0  0  0  0  0  0  0  0  0  0  0  0
   15.8897    2.5347   -3.0985 C   0  0  0  0  0  0  0  0  0  0  0  0
   16.0846    2.2020   -4.1139 H   0  0  0  0  0  0  0  0  0  0  0  0
   15.7056    1.5650   -2.0971 C   0  0  0  0  0  0  0  0  0  0  0  0
   15.7810    0.1240   -2.3968 C   0  0  0  0  0  0  0  0  0  0  0  0
   16.3332   -0.3140   -3.6060 C   0  0  0  0  0  0  0  0  0  0  0  0
   16.7082    0.4208   -4.3119 H   0  0  0  0  0  0  0  0  0  0  0  0
   16.4105   -1.6793   -3.9003 C   0  0  0  0  0  0  0  0  0  0  0  0
   16.8621   -2.0045   -4.8345 H   0  0  0  0  0  0  0  0  0  0  0  0
   15.9301   -2.6224   -2.9802 C   0  0  0  0  0  0  0  0  0  0  0  0
   15.9942   -3.6800   -3.2161 H   0  0  0  0  0  0  0  0  0  0  0  0
   15.3792   -2.2202   -1.7509 C   0  0  0  0  0  0  0  0  0  0  0  0
   14.8074   -3.2297   -0.7549 C   0  0  2  0  0  0  0  0  0  0  0  0
   15.1716   -4.6839   -1.0624 C   0  0  0  0  0  0  0  0  0  0  0  0
   16.3915   -5.2079   -0.6040 C   0  0  0  0  0  0  0  0  0  0  0  0
   17.0708   -4.5598   -0.0590 H   0  0  0  0  0  0  0  0  0  0  0  0
   16.7274   -6.5508   -0.7996 C   0  0  0  0  0  0  0  0  0  0  0  0
   17.6689   -6.9341   -0.4149 H   0  0  0  0  0  0  0  0  0  0  0  0
   15.8473   -7.3943   -1.4814 C   0  0  0  0  0  0  0  0  0  0  0  0
   16.1029   -8.4405   -1.6217 H   0  0  0  0  0  0  0  0  0  0  0  0
   14.6367   -6.8895   -1.9688 C   0  0  0  0  0  0  0  0  0  0  0  0
   13.9550   -7.5558   -2.4904 H   0  0  0  0  0  0  0  0  0  0  0  0
   14.2982   -5.5427   -1.7601 C   0  0  0  0  0  0  0  0  0  0  0  0
   13.3434   -5.1743   -2.1246 H   0  0  0  0  0  0  0  0  0  0  0  0
   13.2886   -3.0117   -0.5847 C   0  0  0  0  0  0  0  0  0  0  0  0
   12.3870   -3.1045   -1.4141 O   0  0  0  0  0  0  0  0  0  0  0  0
   13.0343   -2.7236    0.7282 N   0  0  0  0  0  0  0  0  0  0  0  0
   11.7687   -2.5310    1.2073 C   0  0  0  0  0  0  0  0  0  0  0  0
   10.8863   -2.2060    0.4206 O   0  0  0  0  0  0  0  0  0  0  0  0
   11.3367   -3.1818    2.4985 C   0  0  0  0  0  0  0  0  0  0  0  0
   11.0576   -2.4508    3.2544 H   0  0  0  0  0  0  0  0  0  0  0  0
   12.1294   -3.8101    2.8986 H   0  0  0  0  0  0  0  0  0  0  0  0
   10.4772   -3.8150    2.2821 H   0  0  0  0  0  0  0  0  0  0  0  0
   14.2110   -2.7252    1.4184 C   0  0  0  0  0  0  0  0  0  0  0  0
   14.3517   -2.4798    2.7512 N   0  0  0  0  0  0  0  0  0  0  0  0
   13.5850   -2.0015    3.2173 H   0  0  0  0  0  0  0  0  0  0  0  0
   15.2995   -2.2931    3.0810 H   0  0  0  0  0  0  0  0  0  0  0  0
   15.2206   -2.9290    0.6365 N   0  0  0  0  0  4  0  0  0  0  0  0
   16.1922   -2.9698    0.9525 H   0  0  0  0  0  0  0  0  0  0  0  0
   15.3046   -0.8378   -1.4868 C   0  0  0  0  0  0  0  0  0  0  0  0
   14.8594   -0.4942   -0.5588 H   0  0  0  0  0  0  0  0  0  0  0  0
   15.4601    2.0041   -0.7977 C   0  0  0  0  0  0  0  0  0  0  0  0
   15.3506    1.2757   -0.0006 H   0  0  0  0  0  0  0  0  0  0  0  0
   15.3884    3.3736   -0.5584 C   0  0  0  0  0  0  0  0  0  0  0  0
   15.1971    3.7532    0.4370 H   0  0  0  0  0  0  0  0  0  0  0  0
  1  2  1  0
  2  3  2  0
  3  4  1  0
  4  5  1  0
  4  6  2  0
  6  7  1  0
  7  8  2  0
  8  9  1  0
  8 10  1  0
 10 11  1  0
 10 12  2  0
 12 13  1  0
 12 14  1  0
 15 14  1  6
 15 16  1  0
 16 17  2  0
 17 18  1  0
 17 19  1  0
 19 20  1  0
 19 21  2  0
 21 22  1  0
 21 23  1  0
 23 24  1  0
 23 25  2  0
 25 26  1  0
 15 27  1  0
 27 28  2  0
 27 29  1  0
 29 30  1  0
 30 31  2  0
 30 32  1  0
 32 33  1  0
 32 34  1  0
 32 35  1  0
 29 36  1  0
 36 37  1  0
 37 38  1  0
 37 39  1  0
 36 40  2  0
 40 41  1  0
 14 42  2  0
 42 43  1  0
  6 44  1  0
 44 45  1  0
 44 46  2  0
 46 47  1  0
 46  2  1  0
 42  7  1  0
 40 15  1  0
 25 16  1  0
M  CHG  1  40   1
M  END
>  <score>  (208) 
5.60816

$$$$

     RDKit          3D

 55 59  0  0  0  0  0  0  0  0999 V2000
   15.5356    5.3281   -1.4123 H   0  0  0  0  0  0  0  0  0  0  0  0
   15.5855    4.2623   -1.6126 C   0  0  0  0  0  0  0  0  0  0  0  0
   15.8371    3.8495   -2.8639 N   0  0  0  0  0  0  0  0  0  0  0  0
   15.8946    2.5252   -3.0974 C   0  0  0  0  0  0  0  0  0  0  0  0
   16.0906    2.1979   -4.1141 H   0  0  0  0  0  0  0  0  0  0  0  0
   15.7055    1.5558   -2.0951 C   0  0  0  0  0  0  0  0  0  0  0  0
   15.7729    0.1147   -2.3926 C   0  0  0  0  0  0  0  0  0  0  0  0
   16.3245   -0.3228   -3.6010 C   0  0  0  0  0  0  0  0  0  0  0  0
   16.7038    0.4085   -4.3091 H   0  0  0  0  0  0  0  0  0  0  0  0
   16.4046   -1.6872   -3.8889 C   0  0  0  0  0  0  0  0  0  0  0  0
   16.8509   -2.0081   -4.8252 H   0  0  0  0  0  0  0  0  0  0  0  0
   15.9250   -2.6292   -2.9690 C   0  0  0  0  0  0  0  0  0  0  0  0
   15.9896   -3.6854   -3.2086 H   0  0  0  0  0  0  0  0  0  0  0  0
   15.3706   -2.2287   -1.7415 C   0  0  0  0  0  0  0  0  0  0  0  0
   14.8066   -3.2449   -0.7451 C   0  0  2  0  0  0  0  0  0  0  0  0
   15.1860   -4.6910   -1.0443 C   0  0  0  0  0  0  0  0  0  0  0  0
   16.4079   -5.2125   -0.5906 C   0  0  0  0  0  0  0  0  0  0  0  0
   17.0930   -4.5677   -0.0476 H   0  0  0  0  0  0  0  0  0  0  0  0
   16.7386   -6.5556   -0.7991 C   0  0  0  0  0  0  0  0  0  0  0  0
   17.6786   -6.9435   -0.4168 H   0  0  0  0  0  0  0  0  0  0  0  0
   15.8535   -7.3960   -1.4816 C   0  0  0  0  0  0  0  0  0  0  0  0
   16.1036   -8.4426   -1.6302 H   0  0  0  0  0  0  0  0  0  0  0  0
   14.6440   -6.8867   -1.9650 C   0  0  0  0  0  0  0  0  0  0  0  0
   13.9554   -7.5410   -2.4921 H   0  0  0  0  0  0  0  0  0  0  0  0
   14.3130   -5.5424   -1.7485 C   0  0  0  0  0  0  0  0  0  0  0  0
   13.3603   -5.1668   -2.1110 H   0  0  0  0  0  0  0  0  0  0  0  0
   13.2835   -3.0672   -0.6090 C   0  0  0  0  0  0  0  0  0  0  0  0
   12.4628   -3.1342   -1.5282 O   0  0  0  0  0  0  0  0  0  0  0  0
   12.9642   -2.7349    0.6885 N   0  0  0  0  0  0  0  0  0  0  0  0
   11.7720   -2.0863    1.0101 C   0  0  0  0  0  0  0  0  0  0  0  0
   11.6382   -0.7252    0.7347 C   0  0  0  0  0  0  0  0  0  0  0  0
   12.4911   -0.1853    0.3365 H   0  0  0  0  0  0  0  0  0  0  0  0
   10.4118   -0.0797    0.9452 C   0  0  0  0  0  0  0  0  0  0  0  0
   10.3020    0.9680    0.6891 H   0  0  0  0  0  0  0  0  0  0  0  0
    9.3437   -0.7820    1.5162 C   0  0  0  0  0  0  0  0  0  0  0  0
    8.4174   -0.2618    1.7450 H   0  0  0  0  0  0  0  0  0  0  0  0
    9.4750   -2.1484    1.7908 C   0  0  0  0  0  0  0  0  0  0  0  0
    8.6369   -2.6840    2.2327 H   0  0  0  0  0  0  0  0  0  0  0  0
   10.6729   -2.8234    1.4739 C   0  0  0  0  0  0  0  0  0  0  0  0
   10.7780   -4.3320    1.5434 C   0  0  0  0  0  0  0  0  0  0  0  0
    9.7230   -4.8763    2.2096 F   0  0  0  0  0  0  0  0  0  0  0  0
   10.8018   -4.8650    0.2883 F   0  0  0  0  0  0  0  0  0  0  0  0
   11.9181   -4.6770    2.1843 F   0  0  0  0  0  0  0  0  0  0  0  0
   14.1635   -2.5918    1.3696 C   0  0  0  0  0  0  0  0  0  0  0  0
   14.3801   -2.1853    2.6597 N   0  0  0  0  0  0  0  0  0  0  0  0
   13.5874   -2.1513    3.3000 H   0  0  0  0  0  0  0  0  0  0  0  0
   15.3188   -2.3275    3.0402 H   0  0  0  0  0  0  0  0  0  0  0  0
   15.1828   -2.9091    0.6417 N   0  0  0  0  0  4  0  0  0  0  0  0
   16.1463   -2.9229    0.9846 H   0  0  0  0  0  0  0  0  0  0  0  0
   15.2964   -0.8451   -1.4779 C   0  0  0  0  0  0  0  0  0  0  0  0
   14.8549   -0.5011   -0.5477 H   0  0  0  0  0  0  0  0  0  0  0  0
   15.4666    1.9978   -0.7952 C   0  0  0  0  0  0  0  0  0  0  0  0
   15.3590    1.2771    0.0095 H   0  0  0  0  0  0  0  0  0  0  0  0
   15.3952    3.3677   -0.5575 C   0  0  0  0  0  0  0  0  0  0  0  0
   15.2049    3.7455    0.4395 H   0  0  0  0  0  0  0  0  0  0  0  0
  1  2  1  0
  2  3  2  0
  3  4  1  0
  4  5  1  0
  4  6  2  0
  6  7  1  0
  7  8  2  0
  8  9  1  0
  8 10  1  0
 10 11  1  0
 10 12  2  0
 12 13  1  0
 12 14  1  0
 15 14  1  6
 15 16  1  0
 16 17  2  0
 17 18  1  0
 17 19  1  0
 19 20  1  0
 19 21  2  0
 21 22  1  0
 21 23  1  0
 23 24  1  0
 23 25  2  0
 25 26  1  0
 15 27  1  0
 27 28  2  0
 27 29  1  0
 29 30  1  0
 30 31  2  0
 31 32  1  0
 31 33  1  0
 33 34  1  0
 33 35  2  0
 35 36  1  0
 35 37  1  0
 37 38  1  0
 37 39  2  0
 39 40  1  0
 40 41  1  0
 40 42  1  0
 40 43  1  0
 29 44  1  0
 44 45  1  0
 45 46  1  0
 45 47  1  0
 44 48  2  0
 48 49  1  0
 14 50  2  0
 50 51  1  0
  6 52  1  0
 52 53  1  0
 52 54  2  0
 54 55  1  0
 54  2  1  0
 50  7  1  0
 48 15  1  0
 25 16  1  0
 39 30  1  0
M  CHG  1  48   1
M  END
>  <score>  (209) 
5.60738

$$$$

     RDKit          3D

 49 53  0  0  0  0  0  0  0  0999 V2000
   15.5348    5.3270   -1.4090 H   0  0  0  0  0  0  0  0  0  0  0  0
   15.5852    4.2634   -1.6137 C   0  0  0  0  0  0  0  0  0  0  0  0
   15.8367    3.8548   -2.8666 N   0  0  0  0  0  0  0  0  0  0  0  0
   15.8953    2.5309   -3.1010 C   0  0  0  0  0  0  0  0  0  0  0  0
   16.0954    2.1919   -4.1133 H   0  0  0  0  0  0  0  0  0  0  0  0
   15.7106    1.5638   -2.0983 C   0  0  0  0  0  0  0  0  0  0  0  0
   15.7804    0.1255   -2.3961 C   0  0  0  0  0  0  0  0  0  0  0  0
   16.3294   -0.3128   -3.6045 C   0  0  0  0  0  0  0  0  0  0  0  0
   16.7017    0.4279   -4.3044 H   0  0  0  0  0  0  0  0  0  0  0  0
   16.4066   -1.6784   -3.8976 C   0  0  0  0  0  0  0  0  0  0  0  0
   16.8594   -2.0051   -4.8300 H   0  0  0  0  0  0  0  0  0  0  0  0
   15.9255   -2.6198   -2.9766 C   0  0  0  0  0  0  0  0  0  0  0  0
   15.9878   -3.6782   -3.2076 H   0  0  0  0  0  0  0  0  0  0  0  0
   15.3729   -2.2131   -1.7501 C   0  0  0  0  0  0  0  0  0  0  0  0
   14.7963   -3.2175   -0.7545 C   0  0  2  0  0  0  0  0  0  0  0  0
   15.1729   -4.6724   -1.0554 C   0  0  0  0  0  0  0  0  0  0  0  0
   16.3947   -5.1990   -0.6001 C   0  0  0  0  0  0  0  0  0  0  0  0
   17.0750   -4.5536   -0.0534 H   0  0  0  0  0  0  0  0  0  0  0  0
   16.7298   -6.5446   -0.7985 C   0  0  0  0  0  0  0  0  0  0  0  0
   17.6695   -6.9338   -0.4138 H   0  0  0  0  0  0  0  0  0  0  0  0
   15.8485   -7.3863   -1.4830 C   0  0  0  0  0  0  0  0  0  0  0  0
   16.0985   -8.4338   -1.6239 H   0  0  0  0  0  0  0  0  0  0  0  0
   14.6383   -6.8783   -1.9683 C   0  0  0  0  0  0  0  0  0  0  0  0
   13.9530   -7.5415   -2.4896 H   0  0  0  0  0  0  0  0  0  0  0  0
   14.3018   -5.5313   -1.7538 C   0  0  0  0  0  0  0  0  0  0  0  0
   13.3467   -5.1593   -2.1115 H   0  0  0  0  0  0  0  0  0  0  0  0
   13.2733   -3.0047   -0.5931 C   0  0  0  0  0  0  0  0  0  0  0  0
   12.3833   -3.1656   -1.4311 O   0  0  0  0  0  0  0  0  0  0  0  0
   13.0436   -2.6800    0.7131 N   0  0  0  0  0  0  0  0  0  0  0  0
   11.7989   -2.6239    1.2439 C   0  0  0  0  0  0  0  0  0  0  0  0
   10.7819   -2.1628    0.5757 N   0  0  0  0  0  0  0  0  0  0  0  0
    9.7026   -2.2289    1.4501 C   0  0  0  0  0  0  0  0  0  0  0  0
    8.6942   -1.8701    1.2342 H   0  0  0  0  0  0  0  0  0  0  0  0
   10.0942   -2.8016    2.6312 C   0  0  0  0  0  0  0  0  0  0  0  0
    9.4609   -2.9988    3.4884 H   0  0  0  0  0  0  0  0  0  0  0  0
   11.4511   -3.0266    2.5036 N   0  0  0  0  0  0  0  0  0  0  0  0
   12.0891   -3.4401    3.1854 H   0  0  0  0  0  0  0  0  0  0  0  0
   14.2154   -2.6868    1.4068 C   0  0  0  0  0  0  0  0  0  0  0  0
   14.3695   -2.4677    2.7464 N   0  0  0  0  0  0  0  0  0  0  0  0
   13.6118   -1.9837    3.2230 H   0  0  0  0  0  0  0  0  0  0  0  0
   15.3218   -2.2704    3.0558 H   0  0  0  0  0  0  0  0  0  0  0  0
   15.2201   -2.9010    0.6284 N   0  0  0  0  0  4  0  0  0  0  0  0
   16.1858   -3.0062    0.9556 H   0  0  0  0  0  0  0  0  0  0  0  0
   15.3029   -0.8318   -1.4846 C   0  0  0  0  0  0  0  0  0  0  0  0
   14.8591   -0.4836   -0.5577 H   0  0  0  0  0  0  0  0  0  0  0  0
   15.4687    1.9987   -0.7989 C   0  0  0  0  0  0  0  0  0  0  0  0
   15.3647    1.2625   -0.0085 H   0  0  0  0  0  0  0  0  0  0  0  0
   15.3935    3.3680   -0.5604 C   0  0  0  0  0  0  0  0  0  0  0  0
   15.2013    3.7476    0.4338 H   0  0  0  0  0  0  0  0  0  0  0  0
  1  2  1  0
  2  3  2  0
  3  4  1  0
  4  5  1  0
  4  6  2  0
  6  7  1  0
  7  8  2  0
  8  9  1  0
  8 10  1  0
 10 11  1  0
 10 12  2  0
 12 13  1  0
 12 14  1  0
 15 14  1  6
 15 16  1  0
 16 17  2  0
 17 18  1  0
 17 19  1  0
 19 20  1  0
 19 21  2  0
 21 22  1  0
 21 23  1  0
 23 24  1  0
 23 25  2  0
 25 26  1  0
 15 27  1  0
 27 28  2  0
 27 29  1  0
 29 30  1  0
 30 31  2  0
 31 32  1  0
 32 33  1  0
 32 34  2  0
 34 35  1  0
 34 36  1  0
 36 37  1  0
 29 38  1  0
 38 39  1  0
 39 40  1  0
 39 41  1  0
 38 42  2  0
 42 43  1  0
 14 44  2  0
 44 45  1  0
  6 46  1  0
 46 47  1  0
 46 48  2  0
 48 49  1  0
 48  2  1  0
 44  7  1  0
 42 15  1  0
 25 16  1  0
 36 30  1  0
M  CHG  1  42   1
M  END
>  <score>  (210) 
5.6057

$$$$

     RDKit          3D

 62 66  0  0  0  0  0  0  0  0999 V2000
   15.5559    5.3547   -1.3933 H   0  0  0  0  0  0  0  0  0  0  0  0
   15.5874    4.2878   -1.6041 C   0  0  0  0  0  0  0  0  0  0  0  0
   15.8219    3.8705   -2.8583 N   0  0  0  0  0  0  0  0  0  0  0  0
   15.8770    2.5434   -3.0922 C   0  0  0  0  0  0  0  0  0  0  0  0
   16.0657    2.2064   -4.1056 H   0  0  0  0  0  0  0  0  0  0  0  0
   15.6946    1.5678   -2.0966 C   0  0  0  0  0  0  0  0  0  0  0  0
   15.7723    0.1188   -2.4046 C   0  0  0  0  0  0  0  0  0  0  0  0
   16.3309   -0.3201   -3.6095 C   0  0  0  0  0  0  0  0  0  0  0  0
   16.7142    0.4214   -4.3036 H   0  0  0  0  0  0  0  0  0  0  0  0
   16.4205   -1.6875   -3.9019 C   0  0  0  0  0  0  0  0  0  0  0  0
   16.8636   -2.0053   -4.8392 H   0  0  0  0  0  0  0  0  0  0  0  0
   15.9323   -2.6382   -2.9952 C   0  0  0  0  0  0  0  0  0  0  0  0
   15.9971   -3.6959   -3.2361 H   0  0  0  0  0  0  0  0  0  0  0  0
   15.3564   -2.2380   -1.7767 C   0  0  0  0  0  0  0  0  0  0  0  0
   14.7923   -3.2560   -0.7732 C   0  0  2  0  0  0  0  0  0  0  0  0
   15.1752   -4.7100   -1.0697 C   0  0  0  0  0  0  0  0  0  0  0  0
   16.3960   -5.2271   -0.6028 C   0  0  0  0  0  0  0  0  0  0  0  0
   17.0726   -4.5746   -0.0581 H   0  0  0  0  0  0  0  0  0  0  0  0
   16.7365   -6.5705   -0.8029 C   0  0  0  0  0  0  0  0  0  0  0  0
   17.6736   -6.9571   -0.4141 H   0  0  0  0  0  0  0  0  0  0  0  0
   15.8591   -7.4220   -1.4793 C   0  0  0  0  0  0  0  0  0  0  0  0
   16.1090   -8.4706   -1.6142 H   0  0  0  0  0  0  0  0  0  0  0  0
   14.6472   -6.9245   -1.9657 C   0  0  0  0  0  0  0  0  0  0  0  0
   13.9641   -7.5886   -2.4879 H   0  0  0  0  0  0  0  0  0  0  0  0
   14.3093   -5.5769   -1.7658 C   0  0  0  0  0  0  0  0  0  0  0  0
   13.3572   -5.2036   -2.1314 H   0  0  0  0  0  0  0  0  0  0  0  0
   13.2640   -3.0868   -0.5760 C   0  0  0  0  0  0  0  0  0  0  0  0
   12.3864   -3.1293   -1.4320 O   0  0  0  0  0  0  0  0  0  0  0  0
   13.0143   -2.6893    0.7098 N   0  0  0  0  0  0  0  0  0  0  0  0
   11.7085   -2.4731    1.2739 C   0  0  0  0  0  0  0  0  0  0  0  0
   11.1095   -1.8314    0.6159 H   0  0  0  0  0  0  0  0  0  0  0  0
   11.7828   -1.9669    2.2453 H   0  0  0  0  0  0  0  0  0  0  0  0
   11.0886   -3.8010    1.3980 N   0  0  0  0  0  0  0  0  0  0  0  0
   11.7283   -4.6997    2.4009 C   0  0  0  0  0  0  0  0  0  0  0  0
   12.7965   -4.8175    2.1810 H   0  0  0  0  0  0  0  0  0  0  0  0
   11.6401   -4.2500    3.3977 H   0  0  0  0  0  0  0  0  0  0  0  0
   11.0476   -6.0893    2.4519 C   0  0  0  0  0  0  0  0  0  0  0  0
   11.5097   -6.6822    3.2415 H   0  0  0  0  0  0  0  0  0  0  0  0
   11.2113   -6.6058    1.4994 H   0  0  0  0  0  0  0  0  0  0  0  0
    9.5898   -5.9842    2.7109 N   0  0  0  0  0  0  0  0  0  0  0  0
    9.2085   -5.7102    4.1111 C   0  0  0  0  0  0  0  0  0  0  0  0
    9.6482   -6.4559    4.7789 H   0  0  0  0  0  0  0  0  0  0  0  0
    9.5556   -4.7186    4.4161 H   0  0  0  0  0  0  0  0  0  0  0  0
    8.1214   -5.7505    4.2271 H   0  0  0  0  0  0  0  0  0  0  0  0
    8.9486   -5.1241    1.6910 C   0  0  0  0  0  0  0  0  0  0  0  0
    9.0217   -5.6035    0.7083 H   0  0  0  0  0  0  0  0  0  0  0  0
    7.8880   -5.0019    1.9308 H   0  0  0  0  0  0  0  0  0  0  0  0
    9.6198   -3.7324    1.6304 C   0  0  0  0  0  0  0  0  0  0  0  0
    9.1473   -3.1374    0.8399 H   0  0  0  0  0  0  0  0  0  0  0  0
    9.4332   -3.2371    2.5920 H   0  0  0  0  0  0  0  0  0  0  0  0
   14.2065   -2.6454    1.3767 C   0  0  0  0  0  0  0  0  0  0  0  0
   14.3797   -2.3534    2.6944 N   0  0  0  0  0  0  0  0  0  0  0  0
   13.5774   -2.1469    3.2849 H   0  0  0  0  0  0  0  0  0  0  0  0
   15.3261   -2.3379    3.0768 H   0  0  0  0  0  0  0  0  0  0  0  0
   15.2101   -2.9121    0.6079 N   0  0  0  0  0  4  0  0  0  0  0  0
   16.1803   -2.9342    0.9332 H   0  0  0  0  0  0  0  0  0  0  0  0
   15.2955   -0.8517   -1.5013 C   0  0  0  0  0  0  0  0  0  0  0  0
   14.8611   -0.5108   -0.5673 H   0  0  0  0  0  0  0  0  0  0  0  0
   15.4432    2.0136   -0.7995 C   0  0  0  0  0  0  0  0  0  0  0  0
   15.3292    1.2804   -0.0080 H   0  0  0  0  0  0  0  0  0  0  0  0
   15.3821    3.3883   -0.5554 C   0  0  0  0  0  0  0  0  0  0  0  0
   15.1789    3.7742    0.4371 H   0  0  0  0  0  0  0  0  0  0  0  0
  1  2  1  0
  2  3  2  0
  3  4  1  0
  4  5  1  0
  4  6  2  0
  6  7  1  0
  7  8  2  0
  8  9  1  0
  8 10  1  0
 10 11  1  0
 10 12  2  0
 12 13  1  0
 12 14  1  0
 15 14  1  6
 15 16  1  0
 16 17  2  0
 17 18  1  0
 17 19  1  0
 19 20  1  0
 19 21  2  0
 21 22  1  0
 21 23  1  0
 23 24  1  0
 23 25  2  0
 25 26  1  0
 15 27  1  0
 27 28  2  0
 27 29  1  0
 29 30  1  0
 30 31  1  0
 30 32  1  0
 30 33  1  0
 33 34  1  0
 34 35  1  0
 34 36  1  0
 34 37  1  0
 37 38  1  0
 37 39  1  0
 37 40  1  0
 40 41  1  0
 41 42  1  0
 41 43  1  0
 41 44  1  0
 40 45  1  0
 45 46  1  0
 45 47  1  0
 45 48  1  0
 48 49  1  0
 48 50  1  0
 29 51  1  0
 51 52  1  0
 52 53  1  0
 52 54  1  0
 51 55  2  0
 55 56  1  0
 14 57  2  0
 57 58  1  0
  6 59  1  0
 59 60  1  0
 59 61  2  0
 61 62  1  0
 61  2  1  0
 57  7  1  0
 55 15  1  0
 25 16  1  0
 48 33  1  0
M  CHG  1  55   1
M  END
>  <score>  (211) 
5.60388

$$$$

     RDKit          3D

 54 58  0  0  0  0  0  0  0  0999 V2000
   15.5534    5.3459   -1.4056 H   0  0  0  0  0  0  0  0  0  0  0  0
   15.6092    4.2790   -1.6069 C   0  0  0  0  0  0  0  0  0  0  0  0
   15.8516    3.8644   -2.8589 N   0  0  0  0  0  0  0  0  0  0  0  0
   15.9211    2.5393   -3.0907 C   0  0  0  0  0  0  0  0  0  0  0  0
   16.1085    2.2127   -4.1081 H   0  0  0  0  0  0  0  0  0  0  0  0
   15.7534    1.5653   -2.0920 C   0  0  0  0  0  0  0  0  0  0  0  0
   15.8421    0.1221   -2.4018 C   0  0  0  0  0  0  0  0  0  0  0  0
   16.3714   -0.3229   -3.6226 C   0  0  0  0  0  0  0  0  0  0  0  0
   16.7217    0.4051   -4.3486 H   0  0  0  0  0  0  0  0  0  0  0  0
   16.4390   -1.6912   -3.9144 C   0  0  0  0  0  0  0  0  0  0  0  0
   16.8274   -2.0202   -4.8755 H   0  0  0  0  0  0  0  0  0  0  0  0
   15.9733   -2.6334   -2.9846 C   0  0  0  0  0  0  0  0  0  0  0  0
   16.0142   -3.6903   -3.2368 H   0  0  0  0  0  0  0  0  0  0  0  0
   15.4423   -2.2201   -1.7479 C   0  0  0  0  0  0  0  0  0  0  0  0
   14.8665   -3.2063   -0.7347 C   0  0  2  0  0  0  0  0  0  0  0  0
   15.2031   -4.6609   -1.0557 C   0  0  0  0  0  0  0  0  0  0  0  0
   16.4229   -5.2038   -0.6259 C   0  0  0  0  0  0  0  0  0  0  0  0
   17.1139   -4.5675   -0.0811 H   0  0  0  0  0  0  0  0  0  0  0  0
   16.7435   -6.5480   -0.8444 C   0  0  0  0  0  0  0  0  0  0  0  0
   17.6768   -6.9402   -0.4506 H   0  0  0  0  0  0  0  0  0  0  0  0
   15.8469   -7.3794   -1.5232 C   0  0  0  0  0  0  0  0  0  0  0  0
   16.0890   -8.4306   -1.6687 H   0  0  0  0  0  0  0  0  0  0  0  0
   14.6360   -6.8520   -1.9881 C   0  0  0  0  0  0  0  0  0  0  0  0
   13.9354   -7.5054   -2.5034 H   0  0  0  0  0  0  0  0  0  0  0  0
   14.3197   -5.4990   -1.7642 C   0  0  0  0  0  0  0  0  0  0  0  0
   13.3678   -5.1143   -2.1150 H   0  0  0  0  0  0  0  0  0  0  0  0
   13.3623   -2.9321   -0.5431 C   0  0  0  0  0  0  0  0  0  0  0  0
   12.4861   -3.0169   -1.4011 O   0  0  0  0  0  0  0  0  0  0  0  0
   13.1226   -2.5596    0.7563 N   0  0  0  0  0  0  0  0  0  0  0  0
   11.8750   -2.2715    1.2666 C   0  0  0  0  0  0  0  0  0  0  0  0
   10.9935   -1.5023    0.5340 C   0  0  0  0  0  0  0  0  0  0  0  0
   11.3010   -1.0972   -0.4238 H   0  0  0  0  0  0  0  0  0  0  0  0
    9.7249   -1.2421    1.0562 C   0  0  0  0  0  0  0  0  0  0  0  0
    9.0389   -0.6342    0.4760 H   0  0  0  0  0  0  0  0  0  0  0  0
    9.3078   -1.7333    2.2311 N   0  0  0  0  0  0  0  0  0  0  0  0
   10.1788   -2.4607    2.9421 C   0  0  0  0  0  0  0  0  0  0  0  0
    9.7430   -2.9687    4.2611 C   0  0  0  0  0  0  0  0  0  0  0  0
    9.6464   -4.0577    4.2293 H   0  0  0  0  0  0  0  0  0  0  0  0
   10.4864   -2.6825    5.0077 H   0  0  0  0  0  0  0  0  0  0  0  0
    8.7802   -2.5258    4.5210 H   0  0  0  0  0  0  0  0  0  0  0  0
   11.4610   -2.7549    2.4892 C   0  0  0  0  0  0  0  0  0  0  0  0
   12.1104   -3.3609    3.1053 H   0  0  0  0  0  0  0  0  0  0  0  0
   14.3126   -2.6480    1.4332 C   0  0  0  0  0  0  0  0  0  0  0  0
   14.5496   -2.4686    2.7649 N   0  0  0  0  0  0  0  0  0  0  0  0
   15.5224   -2.4992    3.0638 H   0  0  0  0  0  0  0  0  0  0  0  0
   13.8800   -1.9485    3.3290 H   0  0  0  0  0  0  0  0  0  0  0  0
   15.3031   -2.9152    0.6505 N   0  0  0  0  0  4  0  0  0  0  0  0
   16.2417   -3.1077    1.0016 H   0  0  0  0  0  0  0  0  0  0  0  0
   15.3866   -0.8397   -1.4847 C   0  0  0  0  0  0  0  0  0  0  0  0
   14.9626   -0.5018   -0.5461 H   0  0  0  0  0  0  0  0  0  0  0  0
   15.5115    2.0104   -0.7883 C   0  0  0  0  0  0  0  0  0  0  0  0
   15.4082    1.2929    0.0202 H   0  0  0  0  0  0  0  0  0  0  0  0
   15.4323    3.3841   -0.5508 C   0  0  0  0  0  0  0  0  0  0  0  0
   15.2401    3.7760    0.4416 H   0  0  0  0  0  0  0  0  0  0  0  0
  1  2  1  0
  2  3  2  0
  3  4  1  0
  4  5  1  0
  4  6  2  0
  6  7  1  0
  7  8  2  0
  8  9  1  0
  8 10  1  0
 10 11  1  0
 10 12  2  0
 12 13  1  0
 12 14  1  0
 15 14  1  6
 15 16  1  0
 16 17  2  0
 17 18  1  0
 17 19  1  0
 19 20  1  0
 19 21  2  0
 21 22  1  0
 21 23  1  0
 23 24  1  0
 23 25  2  0
 25 26  1  0
 15 27  1  0
 27 28  2  0
 27 29  1  0
 29 30  1  0
 30 31  2  0
 31 32  1  0
 31 33  1  0
 33 34  1  0
 33 35  2  0
 35 36  1  0
 36 37  1  0
 37 38  1  0
 37 39  1  0
 37 40  1  0
 36 41  2  0
 41 42  1  0
 29 43  1  0
 43 44  1  0
 44 45  1  0
 44 46  1  0
 43 47  2  0
 47 48  1  0
 14 49  2  0
 49 50  1  0
  6 51  1  0
 51 52  1  0
 51 53  2  0
 53 54  1  0
 53  2  1  0
 49  7  1  0
 47 15  1  0
 25 16  1  0
 41 30  1  0
M  CHG  1  47   1
M  END
>  <score>  (212) 
5.60298

$$$$

     RDKit          3D

 51 55  0  0  0  0  0  0  0  0999 V2000
   15.5630    5.3644   -1.3897 H   0  0  0  0  0  0  0  0  0  0  0  0
   15.5866    4.2960   -1.6000 C   0  0  0  0  0  0  0  0  0  0  0  0
   15.8203    3.8764   -2.8542 N   0  0  0  0  0  0  0  0  0  0  0  0
   15.8706    2.5488   -3.0891 C   0  0  0  0  0  0  0  0  0  0  0  0
   16.0543    2.2167   -4.1050 H   0  0  0  0  0  0  0  0  0  0  0  0
   15.6892    1.5699   -2.0967 C   0  0  0  0  0  0  0  0  0  0  0  0
   15.7731    0.1191   -2.4079 C   0  0  0  0  0  0  0  0  0  0  0  0
   16.3376   -0.3214   -3.6130 C   0  0  0  0  0  0  0  0  0  0  0  0
   16.7211    0.4141   -4.3123 H   0  0  0  0  0  0  0  0  0  0  0  0
   16.4284   -1.6884   -3.9073 C   0  0  0  0  0  0  0  0  0  0  0  0
   16.8649   -2.0048   -4.8488 H   0  0  0  0  0  0  0  0  0  0  0  0
   15.9457   -2.6428   -3.0039 C   0  0  0  0  0  0  0  0  0  0  0  0
   16.0022   -3.7001   -3.2492 H   0  0  0  0  0  0  0  0  0  0  0  0
   15.3810   -2.2406   -1.7835 C   0  0  0  0  0  0  0  0  0  0  0  0
   14.8126   -3.2506   -0.7853 C   0  0  2  0  0  0  0  0  0  0  0  0
   15.1734   -4.7152   -1.0757 C   0  0  0  0  0  0  0  0  0  0  0  0
   16.3925   -5.2357   -0.6077 C   0  0  0  0  0  0  0  0  0  0  0  0
   17.0700   -4.5834   -0.0628 H   0  0  0  0  0  0  0  0  0  0  0  0
   16.7340   -6.5782   -0.8039 C   0  0  0  0  0  0  0  0  0  0  0  0
   17.6736   -6.9584   -0.4149 H   0  0  0  0  0  0  0  0  0  0  0  0
   15.8576   -7.4330   -1.4761 C   0  0  0  0  0  0  0  0  0  0  0  0
   16.1148   -8.4797   -1.6126 H   0  0  0  0  0  0  0  0  0  0  0  0
   14.6453   -6.9347   -1.9634 C   0  0  0  0  0  0  0  0  0  0  0  0
   13.9676   -7.6020   -2.4885 H   0  0  0  0  0  0  0  0  0  0  0  0
   14.3056   -5.5849   -1.7692 C   0  0  0  0  0  0  0  0  0  0  0  0
   13.3547   -5.2184   -2.1448 H   0  0  0  0  0  0  0  0  0  0  0  0
   13.2997   -2.9963   -0.6145 C   0  0  0  0  0  0  0  0  0  0  0  0
   12.4309   -3.1002   -1.4805 O   0  0  0  0  0  0  0  0  0  0  0  0
   13.0559   -2.5378    0.6651 N   0  0  0  0  0  0  0  0  0  0  0  0
   11.7727   -2.1166    1.2386 C   0  0  1  0  0  0  0  0  0  0  0  0
   11.6899   -1.0266    1.3308 H   0  0  0  0  0  0  0  0  0  0  0  0
   10.5075   -2.8813    0.8586 C   0  0  0  0  0  0  0  0  0  0  0  0
   10.6244   -3.7733    0.2334 H   0  0  0  0  0  0  0  0  0  0  0  0
    9.5903   -2.3096    0.6810 H   0  0  0  0  0  0  0  0  0  0  0  0
   11.0336   -2.9537    2.2874 C   0  0  1  0  0  0  0  0  0  0  0  0
   10.4853   -2.3964    3.0648 H   0  0  0  0  0  0  0  0  0  0  0  0
   11.6108   -4.2554    2.6471 N   0  0  0  0  0  0  0  0  0  0  0  0
   10.8948   -4.9622    2.7940 H   0  0  0  0  0  0  0  0  0  0  0  0
   12.2186   -4.1832    3.4642 H   0  0  0  0  0  0  0  0  0  0  0  0
   14.2488   -2.5751    1.3473 C   0  0  0  0  0  0  0  0  0  0  0  0
   14.4121   -2.3204    2.6814 N   0  0  0  0  0  0  0  0  0  0  0  0
   15.3409   -2.3675    3.0921 H   0  0  0  0  0  0  0  0  0  0  0  0
   13.5995   -2.0725    3.2465 H   0  0  0  0  0  0  0  0  0  0  0  0
   15.2402   -2.9210    0.5948 N   0  0  0  0  0  4  0  0  0  0  0  0
   16.2084   -2.9487    0.9158 H   0  0  0  0  0  0  0  0  0  0  0  0
   15.3043   -0.8563   -1.5080 C   0  0  0  0  0  0  0  0  0  0  0  0
   14.8643   -0.5238   -0.5724 H   0  0  0  0  0  0  0  0  0  0  0  0
   15.4362    2.0198   -0.7990 C   0  0  0  0  0  0  0  0  0  0  0  0
   15.3129    1.2961   -0.0017 H   0  0  0  0  0  0  0  0  0  0  0  0
   15.3772    3.3955   -0.5530 C   0  0  0  0  0  0  0  0  0  0  0  0
   15.1725    3.7804    0.4402 H   0  0  0  0  0  0  0  0  0  0  0  0
  1  2  1  0
  2  3  2  0
  3  4  1  0
  4  5  1  0
  4  6  2  0
  6  7  1  0
  7  8  2  0
  8  9  1  0
  8 10  1  0
 10 11  1  0
 10 12  2  0
 12 13  1  0
 12 14  1  0
 15 14  1  6
 15 16  1  0
 16 17  2  0
 17 18  1  0
 17 19  1  0
 19 20  1  0
 19 21  2  0
 21 22  1  0
 21 23  1  0
 23 24  1  0
 23 25  2  0
 25 26  1  0
 15 27  1  0
 27 28  2  0
 27 29  1  0
 29 30  1  0
 30 31  1  1
 30 32  1  0
 32 33  1  0
 32 34  1  0
 32 35  1  0
 35 36  1  1
 35 37  1  0
 37 38  1  0
 37 39  1  0
 29 40  1  0
 40 41  1  0
 41 42  1  0
 41 43  1  0
 40 44  2  0
 44 45  1  0
 14 46  2  0
 46 47  1  0
  6 48  1  0
 48 49  1  0
 48 50  2  0
 50 51  1  0
 50  2  1  0
 46  7  1  0
 44 15  1  0
 25 16  1  0
 35 30  1  0
M  CHG  1  44   1
M  END
>  <score>  (213) 
5.59975

$$$$

     RDKit          3D

 49 53  0  0  0  0  0  0  0  0999 V2000
   15.5537    5.3528   -1.3935 H   0  0  0  0  0  0  0  0  0  0  0  0
   15.5861    4.2860   -1.6052 C   0  0  0  0  0  0  0  0  0  0  0  0
   15.8212    3.8688   -2.8598 N   0  0  0  0  0  0  0  0  0  0  0  0
   15.8788    2.5418   -3.0942 C   0  0  0  0  0  0  0  0  0  0  0  0
   16.0729    2.1970   -4.1044 H   0  0  0  0  0  0  0  0  0  0  0  0
   15.6972    1.5687   -2.0984 C   0  0  0  0  0  0  0  0  0  0  0  0
   15.7736    0.1234   -2.4066 C   0  0  0  0  0  0  0  0  0  0  0  0
   16.3318   -0.3163   -3.6097 C   0  0  0  0  0  0  0  0  0  0  0  0
   16.7090    0.4308   -4.2995 H   0  0  0  0  0  0  0  0  0  0  0  0
   16.4223   -1.6840   -3.9026 C   0  0  0  0  0  0  0  0  0  0  0  0
   16.8616   -2.0052   -4.8403 H   0  0  0  0  0  0  0  0  0  0  0  0
   15.9400   -2.6339   -2.9929 C   0  0  0  0  0  0  0  0  0  0  0  0
   15.9958   -3.6934   -3.2317 H   0  0  0  0  0  0  0  0  0  0  0  0
   15.3755   -2.2266   -1.7728 C   0  0  0  0  0  0  0  0  0  0  0  0
   14.8048   -3.2321   -0.7752 C   0  0  2  0  0  0  0  0  0  0  0  0
   15.1739   -4.6943   -1.0690 C   0  0  0  0  0  0  0  0  0  0  0  0
   16.3944   -5.2186   -0.6053 C   0  0  0  0  0  0  0  0  0  0  0  0
   17.0708   -4.5699   -0.0557 H   0  0  0  0  0  0  0  0  0  0  0  0
   16.7339   -6.5647   -0.8037 C   0  0  0  0  0  0  0  0  0  0  0  0
   17.6698   -6.9542   -0.4131 H   0  0  0  0  0  0  0  0  0  0  0  0
   15.8569   -7.4158   -1.4805 C   0  0  0  0  0  0  0  0  0  0  0  0
   16.1056   -8.4654   -1.6145 H   0  0  0  0  0  0  0  0  0  0  0  0
   14.6456   -6.9139   -1.9647 C   0  0  0  0  0  0  0  0  0  0  0  0
   13.9644   -7.5798   -2.4870 H   0  0  0  0  0  0  0  0  0  0  0  0
   14.3074   -5.5640   -1.7628 C   0  0  0  0  0  0  0  0  0  0  0  0
   13.3547   -5.1935   -2.1277 H   0  0  0  0  0  0  0  0  0  0  0  0
   13.2873   -3.0034   -0.6174 C   0  0  0  0  0  0  0  0  0  0  0  0
   12.4491   -3.1284   -1.5101 O   0  0  0  0  0  0  0  0  0  0  0  0
   13.0027   -2.6667    0.6929 N   0  0  0  0  0  0  0  0  0  0  0  0
   11.7252   -2.6069    1.2690 C   0  0  0  0  0  0  0  0  0  0  0  0
   11.3088   -3.3083    2.8292 S   0  0  0  0  0  0  0  0  0  0  0  0
    9.6391   -2.8160    2.6329 C   0  0  0  0  0  0  0  0  0  0  0  0
    8.3951   -3.2111    3.7811 Cl  0  0  0  0  0  0  0  0  0  0  0  0
    9.4293   -2.1326    1.4664 C   0  0  0  0  0  0  0  0  0  0  0  0
    8.4579   -1.7396    1.1897 H   0  0  0  0  0  0  0  0  0  0  0  0
   10.6456   -2.0199    0.6650 C   0  0  0  0  0  0  0  0  0  0  0  0
   10.7266   -1.5144   -0.2904 H   0  0  0  0  0  0  0  0  0  0  0  0
   14.2039   -2.6475    1.3738 C   0  0  0  0  0  0  0  0  0  0  0  0
   14.4007   -2.3810    2.6991 N   0  0  0  0  0  0  0  0  0  0  0  0
   15.3543   -2.3544    3.0646 H   0  0  0  0  0  0  0  0  0  0  0  0
   13.6291   -2.0090    3.2539 H   0  0  0  0  0  0  0  0  0  0  0  0
   15.2145   -2.9074    0.6087 N   0  0  0  0  0  4  0  0  0  0  0  0
   16.1798   -2.9580    0.9402 H   0  0  0  0  0  0  0  0  0  0  0  0
   15.3038   -0.8426   -1.5009 C   0  0  0  0  0  0  0  0  0  0  0  0
   14.8686   -0.4981   -0.5685 H   0  0  0  0  0  0  0  0  0  0  0  0
   15.4504    2.0108   -0.8005 C   0  0  0  0  0  0  0  0  0  0  0  0
   15.3382    1.2700   -0.0152 H   0  0  0  0  0  0  0  0  0  0  0  0
   15.3852    3.3854   -0.5568 C   0  0  0  0  0  0  0  0  0  0  0  0
   15.1805    3.7724    0.4340 H   0  0  0  0  0  0  0  0  0  0  0  0
  1  2  1  0
  2  3  2  0
  3  4  1  0
  4  5  1  0
  4  6  2  0
  6  7  1  0
  7  8  2  0
  8  9  1  0
  8 10  1  0
 10 11  1  0
 10 12  2  0
 12 13  1  0
 12 14  1  0
 15 14  1  6
 15 16  1  0
 16 17  2  0
 17 18  1  0
 17 19  1  0
 19 20  1  0
 19 21  2  0
 21 22  1  0
 21 23  1  0
 23 24  1  0
 23 25  2  0
 25 26  1  0
 15 27  1  0
 27 28  2  0
 27 29  1  0
 29 30  1  0
 30 31  1  0
 31 32  1  0
 32 33  1  0
 32 34  2  0
 34 35  1  0
 34 36  1  0
 36 37  1  0
 29 38  1  0
 38 39  1  0
 39 40  1  0
 39 41  1  0
 38 42  2  0
 42 43  1  0
 14 44  2  0
 44 45  1  0
  6 46  1  0
 46 47  1  0
 46 48  2  0
 48 49  1  0
 48  2  1  0
 44  7  1  0
 42 15  1  0
 25 16  1  0
 36 30  2  0
M  CHG  1  42   1
M  END
>  <score>  (214) 
5.59885

$$$$

     RDKit          3D

 50 53  0  0  0  0  0  0  0  0999 V2000
   15.5183    5.3138   -1.4298 H   0  0  0  0  0  0  0  0  0  0  0  0
   15.5930    4.2477   -1.6156 C   0  0  0  0  0  0  0  0  0  0  0  0
   15.8471    3.8289   -2.8650 N   0  0  0  0  0  0  0  0  0  0  0  0
   15.9143    2.5055   -3.0937 C   0  0  0  0  0  0  0  0  0  0  0  0
   16.1098    2.1846   -4.1131 H   0  0  0  0  0  0  0  0  0  0  0  0
   15.7173    1.5413   -2.0865 C   0  0  0  0  0  0  0  0  0  0  0  0
   15.7555    0.1033   -2.3873 C   0  0  0  0  0  0  0  0  0  0  0  0
   16.3115   -0.3421   -3.5903 C   0  0  0  0  0  0  0  0  0  0  0  0
   16.7064    0.3725   -4.3054 H   0  0  0  0  0  0  0  0  0  0  0  0
   16.3859   -1.7066   -3.8643 C   0  0  0  0  0  0  0  0  0  0  0  0
   16.8303   -2.0284   -4.7970 H   0  0  0  0  0  0  0  0  0  0  0  0
   15.8837   -2.6367   -2.9500 C   0  0  0  0  0  0  0  0  0  0  0  0
   15.9391   -3.6921   -3.1872 H   0  0  0  0  0  0  0  0  0  0  0  0
   15.3081   -2.2223   -1.7377 C   0  0  0  0  0  0  0  0  0  0  0  0
   14.7482   -3.2257   -0.7295 C   0  0  2  0  0  0  0  0  0  0  0  0
   15.1335   -4.6694   -1.0304 C   0  0  0  0  0  0  0  0  0  0  0  0
   16.3666   -5.1765   -0.5828 C   0  0  0  0  0  0  0  0  0  0  0  0
   17.0582   -4.5331   -0.0439 H   0  0  0  0  0  0  0  0  0  0  0  0
   16.7164   -6.5110   -0.7994 C   0  0  0  0  0  0  0  0  0  0  0  0
   17.6636   -6.8852   -0.4246 H   0  0  0  0  0  0  0  0  0  0  0  0
   15.8418   -7.3582   -1.4853 C   0  0  0  0  0  0  0  0  0  0  0  0
   16.1091   -8.3976   -1.6485 H   0  0  0  0  0  0  0  0  0  0  0  0
   14.6242   -6.8590   -1.9620 C   0  0  0  0  0  0  0  0  0  0  0  0
   13.9484   -7.5059   -2.5110 H   0  0  0  0  0  0  0  0  0  0  0  0
   14.2703   -5.5221   -1.7391 C   0  0  0  0  0  0  0  0  0  0  0  0
   13.3224   -5.1467   -2.1141 H   0  0  0  0  0  0  0  0  0  0  0  0
   13.2391   -3.0076   -0.4998 C   0  0  0  0  0  0  0  0  0  0  0  0
   12.3342   -3.0712   -1.3265 O   0  0  0  0  0  0  0  0  0  0  0  0
   13.0225   -2.6225    0.8004 N   0  0  0  0  0  0  0  0  0  0  0  0
   11.8356   -1.9871    1.2585 C   0  0  2  0  0  0  0  0  0  0  0  0
   11.8084   -1.8409    2.3509 H   0  0  0  0  0  0  0  0  0  0  0  0
   10.9057   -2.9684    0.7802 N   0  0  0  0  0  0  0  0  0  0  0  0
   11.1447   -3.8704    1.1743 H   0  0  0  0  0  0  0  0  0  0  0  0
   10.9875   -3.0128   -0.2326 H   0  0  0  0  0  0  0  0  0  0  0  0
   11.5738   -0.7171    0.4906 C   0  0  0  0  0  0  0  0  0  0  0  0
   11.4727   -0.9553   -0.5736 H   0  0  0  0  0  0  0  0  0  0  0  0
   12.3970   -0.0173    0.6125 H   0  0  0  0  0  0  0  0  0  0  0  0
   10.6540   -0.2541    0.8549 H   0  0  0  0  0  0  0  0  0  0  0  0
   14.2307   -2.5574    1.4132 C   0  0  0  0  0  0  0  0  0  0  0  0
   14.4191   -2.1688    2.7010 N   0  0  0  0  0  0  0  0  0  0  0  0
   13.5979   -2.1532    3.2984 H   0  0  0  0  0  0  0  0  0  0  0  0
   15.3384   -2.3432    3.1109 H   0  0  0  0  0  0  0  0  0  0  0  0
   15.1981   -2.9047    0.6360 N   0  0  0  0  0  4  0  0  0  0  0  0
   16.1760   -2.9434    0.9239 H   0  0  0  0  0  0  0  0  0  0  0  0
   15.2509   -0.8416   -1.4723 C   0  0  0  0  0  0  0  0  0  0  0  0
   14.8130   -0.4968   -0.5383 H   0  0  0  0  0  0  0  0  0  0  0  0
   15.4874    1.9870   -0.7853 C   0  0  0  0  0  0  0  0  0  0  0  0
   15.3780    1.2841    0.0353 H   0  0  0  0  0  0  0  0  0  0  0  0
   15.4188    3.3565   -0.5539 C   0  0  0  0  0  0  0  0  0  0  0  0
   15.2267    3.7245    0.4448 H   0  0  0  0  0  0  0  0  0  0  0  0
  1  2  1  0
  2  3  2  0
  3  4  1  0
  4  5  1  0
  4  6  2  0
  6  7  1  0
  7  8  2  0
  8  9  1  0
  8 10  1  0
 10 11  1  0
 10 12  2  0
 12 13  1  0
 12 14  1  0
 15 14  1  6
 15 16  1  0
 16 17  2  0
 17 18  1  0
 17 19  1  0
 19 20  1  0
 19 21  2  0
 21 22  1  0
 21 23  1  0
 23 24  1  0
 23 25  2  0
 25 26  1  0
 15 27  1  0
 27 28  2  0
 27 29  1  0
 29 30  1  0
 30 31  1  1
 30 32  1  0
 32 33  1  0
 32 34  1  0
 30 35  1  0
 35 36  1  0
 35 37  1  0
 35 38  1  0
 29 39  1  0
 39 40  1  0
 40 41  1  0
 40 42  1  0
 39 43  2  0
 43 44  1  0
 14 45  2  0
 45 46  1  0
  6 47  1  0
 47 48  1  0
 47 49  2  0
 49 50  1  0
 49  2  1  0
 45  7  1  0
 43 15  1  0
 25 16  1  0
M  CHG  1  43   1
M  END
>  <score>  (215) 
5.59877

$$$$

     RDKit          3D

 49 52  0  0  0  0  0  0  0  0999 V2000
   15.5447    5.3393   -1.4034 H   0  0  0  0  0  0  0  0  0  0  0  0
   15.5856    4.2738   -1.6089 C   0  0  0  0  0  0  0  0  0  0  0  0
   15.8321    3.8609   -2.8616 N   0  0  0  0  0  0  0  0  0  0  0  0
   15.8869    2.5358   -3.0965 C   0  0  0  0  0  0  0  0  0  0  0  0
   16.0804    2.2016   -4.1112 H   0  0  0  0  0  0  0  0  0  0  0  0
   15.7025    1.5650   -2.0965 C   0  0  0  0  0  0  0  0  0  0  0  0
   15.7729    0.1222   -2.3962 C   0  0  0  0  0  0  0  0  0  0  0  0
   16.3294   -0.3180   -3.6016 C   0  0  0  0  0  0  0  0  0  0  0  0
   16.7080    0.4179   -4.3042 H   0  0  0  0  0  0  0  0  0  0  0  0
   16.4080   -1.6843   -3.8936 C   0  0  0  0  0  0  0  0  0  0  0  0
   16.8607   -2.0084   -4.8272 H   0  0  0  0  0  0  0  0  0  0  0  0
   15.9199   -2.6282   -2.9773 C   0  0  0  0  0  0  0  0  0  0  0  0
   15.9865   -3.6865   -3.2134 H   0  0  0  0  0  0  0  0  0  0  0  0
   15.3560   -2.2235   -1.7525 C   0  0  0  0  0  0  0  0  0  0  0  0
   14.7831   -3.2325   -0.7510 C   0  0  2  0  0  0  0  0  0  0  0  0
   15.1621   -4.6860   -1.0551 C   0  0  0  0  0  0  0  0  0  0  0  0
   16.3858   -5.2073   -0.5982 C   0  0  0  0  0  0  0  0  0  0  0  0
   17.0658   -4.5586   -0.0543 H   0  0  0  0  0  0  0  0  0  0  0  0
   16.7264   -6.5504   -0.7986 C   0  0  0  0  0  0  0  0  0  0  0  0
   17.6687   -6.9344   -0.4167 H   0  0  0  0  0  0  0  0  0  0  0  0
   15.8486   -7.3975   -1.4796 C   0  0  0  0  0  0  0  0  0  0  0  0
   16.1054   -8.4439   -1.6204 H   0  0  0  0  0  0  0  0  0  0  0  0
   14.6375   -6.8951   -1.9659 C   0  0  0  0  0  0  0  0  0  0  0  0
   13.9593   -7.5618   -2.4916 H   0  0  0  0  0  0  0  0  0  0  0  0
   14.2956   -5.5490   -1.7557 C   0  0  0  0  0  0  0  0  0  0  0  0
   13.3423   -5.1814   -2.1235 H   0  0  0  0  0  0  0  0  0  0  0  0
   13.2573   -3.0360   -0.5561 C   0  0  0  0  0  0  0  0  0  0  0  0
   12.3320   -3.1214   -1.3607 O   0  0  0  0  0  0  0  0  0  0  0  0
   13.0275   -2.7882    0.7618 N   0  0  0  0  0  0  0  0  0  0  0  0
   11.7909   -2.5394    1.2476 C   0  0  0  0  0  0  0  0  0  0  0  0
   10.9498   -2.0524    0.5166 O   0  0  0  0  0  0  0  0  0  0  0  0
   11.4901   -3.0374    2.4855 N   0  0  0  0  0  0  0  0  0  0  0  0
   12.1988   -3.6338    2.8915 H   0  0  0  0  0  0  0  0  0  0  0  0
   10.1955   -2.9198    3.1450 C   0  0  0  0  0  0  0  0  0  0  0  0
    9.3902   -3.2752    2.4988 H   0  0  0  0  0  0  0  0  0  0  0  0
    9.9932   -1.8808    3.4075 H   0  0  0  0  0  0  0  0  0  0  0  0
   10.1786   -3.5112    4.0659 H   0  0  0  0  0  0  0  0  0  0  0  0
   14.2022   -2.7284    1.4331 C   0  0  0  0  0  0  0  0  0  0  0  0
   14.3487   -2.4542    2.7616 N   0  0  0  0  0  0  0  0  0  0  0  0
   13.5789   -1.9934    3.2404 H   0  0  0  0  0  0  0  0  0  0  0  0
   15.2970   -2.2836    3.0930 H   0  0  0  0  0  0  0  0  0  0  0  0
   15.2019   -2.9218    0.6413 N   0  0  0  0  0  4  0  0  0  0  0  0
   16.1754   -2.9436    0.9513 H   0  0  0  0  0  0  0  0  0  0  0  0
   15.2905   -0.8396   -1.4887 C   0  0  0  0  0  0  0  0  0  0  0  0
   14.8515   -0.4941   -0.5590 H   0  0  0  0  0  0  0  0  0  0  0  0
   15.4571    2.0061   -0.7979 C   0  0  0  0  0  0  0  0  0  0  0  0
   15.3439    1.2743   -0.0046 H   0  0  0  0  0  0  0  0  0  0  0  0
   15.3872    3.3773   -0.5575 C   0  0  0  0  0  0  0  0  0  0  0  0
   15.1913    3.7597    0.4364 H   0  0  0  0  0  0  0  0  0  0  0  0
  1  2  1  0
  2  3  2  0
  3  4  1  0
  4  5  1  0
  4  6  2  0
  6  7  1  0
  7  8  2  0
  8  9  1  0
  8 10  1  0
 10 11  1  0
 10 12  2  0
 12 13  1  0
 12 14  1  0
 15 14  1  6
 15 16  1  0
 16 17  2  0
 17 18  1  0
 17 19  1  0
 19 20  1  0
 19 21  2  0
 21 22  1  0
 21 23  1  0
 23 24  1  0
 23 25  2  0
 25 26  1  0
 15 27  1  0
 27 28  2  0
 27 29  1  0
 29 30  1  0
 30 31  2  0
 30 32  1  0
 32 33  1  0
 32 34  1  0
 34 35  1  0
 34 36  1  0
 34 37  1  0
 29 38  1  0
 38 39  1  0
 39 40  1  0
 39 41  1  0
 38 42  2  0
 42 43  1  0
 14 44  2  0
 44 45  1  0
  6 46  1  0
 46 47  1  0
 46 48  2  0
 48 49  1  0
 48  2  1  0
 44  7  1  0
 42 15  1  0
 25 16  1  0
M  CHG  1  42   1
M  END
>  <score>  (216) 
5.59471

$$$$

     RDKit          3D

 60 64  0  0  0  0  0  0  0  0999 V2000
   15.5379    5.3288   -1.4095 H   0  0  0  0  0  0  0  0  0  0  0  0
   15.5855    4.2638   -1.6118 C   0  0  0  0  0  0  0  0  0  0  0  0
   15.8359    3.8527   -2.8637 N   0  0  0  0  0  0  0  0  0  0  0  0
   15.8921    2.5284   -3.0977 C   0  0  0  0  0  0  0  0  0  0  0  0
   16.0885    2.1990   -4.1133 H   0  0  0  0  0  0  0  0  0  0  0  0
   15.7044    1.5590   -2.0963 C   0  0  0  0  0  0  0  0  0  0  0  0
   15.7742    0.1182   -2.3960 C   0  0  0  0  0  0  0  0  0  0  0  0
   16.3262   -0.3199   -3.6034 C   0  0  0  0  0  0  0  0  0  0  0  0
   16.7051    0.4146   -4.3075 H   0  0  0  0  0  0  0  0  0  0  0  0
   16.4060   -1.6844   -3.8957 C   0  0  0  0  0  0  0  0  0  0  0  0
   16.8588   -2.0052   -4.8287 H   0  0  0  0  0  0  0  0  0  0  0  0
   15.9230   -2.6280   -2.9790 C   0  0  0  0  0  0  0  0  0  0  0  0
   15.9919   -3.6854   -3.2138 H   0  0  0  0  0  0  0  0  0  0  0  0
   15.3634   -2.2256   -1.7550 C   0  0  0  0  0  0  0  0  0  0  0  0
   14.7907   -3.2332   -0.7540 C   0  0  2  0  0  0  0  0  0  0  0  0
   15.1704   -4.6871   -1.0489 C   0  0  0  0  0  0  0  0  0  0  0  0
   16.3954   -5.2098   -0.5935 C   0  0  0  0  0  0  0  0  0  0  0  0
   17.0816   -4.5645   -0.0532 H   0  0  0  0  0  0  0  0  0  0  0  0
   16.7330   -6.5531   -0.7989 C   0  0  0  0  0  0  0  0  0  0  0  0
   17.6740   -6.9405   -0.4168 H   0  0  0  0  0  0  0  0  0  0  0  0
   15.8528   -7.3960   -1.4823 C   0  0  0  0  0  0  0  0  0  0  0  0
   16.1040   -8.4435   -1.6256 H   0  0  0  0  0  0  0  0  0  0  0  0
   14.6425   -6.8893   -1.9669 C   0  0  0  0  0  0  0  0  0  0  0  0
   13.9579   -7.5491   -2.4920 H   0  0  0  0  0  0  0  0  0  0  0  0
   14.3042   -5.5444   -1.7518 C   0  0  0  0  0  0  0  0  0  0  0  0
   13.3531   -5.1704   -2.1184 H   0  0  0  0  0  0  0  0  0  0  0  0
   13.2659   -3.0114   -0.5772 C   0  0  0  0  0  0  0  0  0  0  0  0
   12.3982   -3.0896   -1.4461 O   0  0  0  0  0  0  0  0  0  0  0  0
   13.0028   -2.6219    0.7253 N   0  0  0  0  0  0  0  0  0  0  0  0
   11.7874   -1.9582    1.1878 C   0  0  0  0  0  0  0  0  0  0  0  0
   11.8601   -1.7176    2.2579 H   0  0  0  0  0  0  0  0  0  0  0  0
   11.6005   -0.6751    0.3669 C   0  0  0  0  0  0  0  0  0  0  0  0
   12.3933    0.0307    0.6094 H   0  0  0  0  0  0  0  0  0  0  0  0
   11.6771   -0.9383   -0.6865 H   0  0  0  0  0  0  0  0  0  0  0  0
   10.2582    0.0196    0.5389 C   0  0  0  0  0  0  0  0  0  0  0  0
   10.0871    0.6654   -0.3253 H   0  0  0  0  0  0  0  0  0  0  0  0
   10.2851    0.6756    1.4076 H   0  0  0  0  0  0  0  0  0  0  0  0
    9.1424   -0.9390    0.6018 N   0  0  0  0  0  0  0  0  0  0  0  0
    7.8629   -0.2623    0.8437 C   0  0  0  0  0  0  0  0  0  0  0  0
    7.0409   -0.8536    0.4407 H   0  0  0  0  0  0  0  0  0  0  0  0
    7.7173   -0.1084    1.9190 H   0  0  0  0  0  0  0  0  0  0  0  0
    7.8396    0.7096    0.3462 H   0  0  0  0  0  0  0  0  0  0  0  0
    9.3239   -2.1607    1.4100 C   0  0  0  0  0  0  0  0  0  0  0  0
    8.4656   -2.8230    1.2538 H   0  0  0  0  0  0  0  0  0  0  0  0
    9.3811   -1.9088    2.4790 H   0  0  0  0  0  0  0  0  0  0  0  0
   10.5951   -2.8859    0.9866 C   0  0  0  0  0  0  0  0  0  0  0  0
   10.5195   -3.1794   -0.0649 H   0  0  0  0  0  0  0  0  0  0  0  0
   10.7180   -3.7969    1.5820 H   0  0  0  0  0  0  0  0  0  0  0  0
   14.2174   -2.5581    1.3715 C   0  0  0  0  0  0  0  0  0  0  0  0
   14.4085   -2.1878    2.6663 N   0  0  0  0  0  0  0  0  0  0  0  0
   13.6057   -2.2283    3.2911 H   0  0  0  0  0  0  0  0  0  0  0  0
   15.3370   -2.3623    3.0530 H   0  0  0  0  0  0  0  0  0  0  0  0
   15.2105   -2.8978    0.6205 N   0  0  0  0  0  4  0  0  0  0  0  0
   16.1784   -2.9611    0.9495 H   0  0  0  0  0  0  0  0  0  0  0  0
   15.2941   -0.8426   -1.4864 C   0  0  0  0  0  0  0  0  0  0  0  0
   14.8520   -0.5025   -0.5552 H   0  0  0  0  0  0  0  0  0  0  0  0
   15.4618    1.9993   -0.7971 C   0  0  0  0  0  0  0  0  0  0  0  0
   15.3547    1.2731    0.0025 H   0  0  0  0  0  0  0  0  0  0  0  0
   15.3913    3.3690   -0.5581 C   0  0  0  0  0  0  0  0  0  0  0  0
   15.2008    3.7484    0.4378 H   0  0  0  0  0  0  0  0  0  0  0  0
  1  2  1  0
  2  3  2  0
  3  4  1  0
  4  5  1  0
  4  6  2  0
  6  7  1  0
  7  8  2  0
  8  9  1  0
  8 10  1  0
 10 11  1  0
 10 12  2  0
 12 13  1  0
 12 14  1  0
 15 14  1  6
 15 16  1  0
 16 17  2  0
 17 18  1  0
 17 19  1  0
 19 20  1  0
 19 21  2  0
 21 22  1  0
 21 23  1  0
 23 24  1  0
 23 25  2  0
 25 26  1  0
 15 27  1  0
 27 28  2  0
 27 29  1  0
 29 30  1  0
 30 31  1  0
 30 32  1  0
 32 33  1  0
 32 34  1  0
 32 35  1  0
 35 36  1  0
 35 37  1  0
 35 38  1  0
 38 39  1  0
 39 40  1  0
 39 41  1  0
 39 42  1  0
 38 43  1  0
 43 44  1  0
 43 45  1  0
 43 46  1  0
 46 47  1  0
 46 48  1  0
 29 49  1  0
 49 50  1  0
 50 51  1  0
 50 52  1  0
 49 53  2  0
 53 54  1  0
 14 55  2  0
 55 56  1  0
  6 57  1  0
 57 58  1  0
 57 59  2  0
 59 60  1  0
 59  2  1  0
 55  7  1  0
 53 15  1  0
 25 16  1  0
 46 30  1  0
M  CHG  1  53   1
M  END
>  <score>  (217) 
5.59416

$$$$

     RDKit          3D

 55 59  0  0  0  0  0  0  0  0999 V2000
   15.5200    5.3262   -1.4299 H   0  0  0  0  0  0  0  0  0  0  0  0
   15.6029    4.2589   -1.6142 C   0  0  0  0  0  0  0  0  0  0  0  0
   15.8535    3.8357   -2.8627 N   0  0  0  0  0  0  0  0  0  0  0  0
   15.9298    2.5092   -3.0815 C   0  0  0  0  0  0  0  0  0  0  0  0
   16.1318    2.1641   -4.0899 H   0  0  0  0  0  0  0  0  0  0  0  0
   15.7484    1.5476   -2.0754 C   0  0  0  0  0  0  0  0  0  0  0  0
   15.8122    0.1070   -2.3761 C   0  0  0  0  0  0  0  0  0  0  0  0
   16.3281   -0.3536   -3.5953 C   0  0  0  0  0  0  0  0  0  0  0  0
   16.6929    0.3657   -4.3194 H   0  0  0  0  0  0  0  0  0  0  0  0
   16.3946   -1.7212   -3.8744 C   0  0  0  0  0  0  0  0  0  0  0  0
   16.7869   -2.0608   -4.8256 H   0  0  0  0  0  0  0  0  0  0  0  0
   15.9510   -2.6464   -2.9295 C   0  0  0  0  0  0  0  0  0  0  0  0
   15.9774   -3.7092   -3.1512 H   0  0  0  0  0  0  0  0  0  0  0  0
   15.4454   -2.2132   -1.6975 C   0  0  0  0  0  0  0  0  0  0  0  0
   14.8940   -3.1995   -0.6925 C   0  0  2  0  0  0  0  0  0  0  0  0
   15.2381   -4.6423   -1.0052 C   0  0  0  0  0  0  0  0  0  0  0  0
   16.4524   -5.1814   -0.5706 C   0  0  0  0  0  0  0  0  0  0  0  0
   17.1498   -4.5477   -0.0287 H   0  0  0  0  0  0  0  0  0  0  0  0
   16.7589   -6.5210   -0.8135 C   0  0  0  0  0  0  0  0  0  0  0  0
   17.6976   -6.9207   -0.4450 H   0  0  0  0  0  0  0  0  0  0  0  0
   15.8514   -7.3314   -1.5068 C   0  0  0  0  0  0  0  0  0  0  0  0
   16.0841   -8.3750   -1.6896 H   0  0  0  0  0  0  0  0  0  0  0  0
   14.6427   -6.7964   -1.9645 C   0  0  0  0  0  0  0  0  0  0  0  0
   13.9299   -7.4126   -2.5040 H   0  0  0  0  0  0  0  0  0  0  0  0
   14.3402   -5.4557   -1.7192 C   0  0  0  0  0  0  0  0  0  0  0  0
   13.3948   -5.0513   -2.0682 H   0  0  0  0  0  0  0  0  0  0  0  0
   13.3816   -2.9907   -0.5954 C   0  0  0  0  0  0  0  0  0  0  0  0
   12.5239   -3.2503   -1.4354 O   0  0  0  0  0  0  0  0  0  0  0  0
   13.0841   -2.6367    0.6871 N   0  0  0  0  0  0  0  0  0  0  0  0
   11.7972   -2.5952    1.0979 C   0  0  0  0  0  0  0  0  0  0  0  0
   10.9517   -2.3759    0.2496 O   0  0  0  0  0  0  0  0  0  0  0  0
   11.4344   -2.8173    2.4049 N   0  0  0  0  0  0  0  0  0  0  0  0
   12.2065   -2.9186    3.0570 H   0  0  0  0  0  0  0  0  0  0  0  0
   10.1187   -3.1171    2.8468 C   0  0  0  0  0  0  0  0  0  0  0  0
    8.9985   -3.2733    1.9888 C   0  0  0  0  0  0  0  0  0  0  0  0
    9.1661   -3.1730    0.9236 H   0  0  0  0  0  0  0  0  0  0  0  0
    7.7525   -3.5671    2.4098 N   0  0  0  0  0  0  0  0  0  0  0  0
    7.5729   -3.7557    3.7255 C   0  0  0  0  0  0  0  0  0  0  0  0
    6.5781   -4.0193    4.0640 H   0  0  0  0  0  0  0  0  0  0  0  0
    8.6266   -3.6662    4.6415 C   0  0  0  0  0  0  0  0  0  0  0  0
    8.4261   -3.8645    5.6875 H   0  0  0  0  0  0  0  0  0  0  0  0
    9.9135   -3.3293    4.2005 C   0  0  0  0  0  0  0  0  0  0  0  0
   10.7641   -3.2228    4.8717 H   0  0  0  0  0  0  0  0  0  0  0  0
   14.2156   -2.6507    1.4306 C   0  0  0  0  0  0  0  0  0  0  0  0
   14.2998   -2.4553    2.7723 N   0  0  0  0  0  0  0  0  0  0  0  0
   13.4927   -2.0573    3.2466 H   0  0  0  0  0  0  0  0  0  0  0  0
   15.2351   -2.2437    3.1230 H   0  0  0  0  0  0  0  0  0  0  0  0
   15.2592   -2.8787    0.7095 N   0  0  0  0  0  4  0  0  0  0  0  0
   16.1915   -3.0309    1.1022 H   0  0  0  0  0  0  0  0  0  0  0  0
   15.3545   -0.8349   -1.4445 C   0  0  0  0  0  0  0  0  0  0  0  0
   14.8909   -0.4878   -0.5240 H   0  0  0  0  0  0  0  0  0  0  0  0
   15.5198    1.9994   -0.7734 C   0  0  0  0  0  0  0  0  0  0  0  0
   15.4165    1.2866    0.0400 H   0  0  0  0  0  0  0  0  0  0  0  0
   15.4444    3.3721   -0.5451 C   0  0  0  0  0  0  0  0  0  0  0  0
   15.2566    3.7526    0.4524 H   0  0  0  0  0  0  0  0  0  0  0  0
  1  2  1  0
  2  3  2  0
  3  4  1  0
  4  5  1  0
  4  6  2  0
  6  7  1  0
  7  8  2  0
  8  9  1  0
  8 10  1  0
 10 11  1  0
 10 12  2  0
 12 13  1  0
 12 14  1  0
 15 14  1  6
 15 16  1  0
 16 17  2  0
 17 18  1  0
 17 19  1  0
 19 20  1  0
 19 21  2  0
 21 22  1  0
 21 23  1  0
 23 24  1  0
 23 25  2  0
 25 26  1  0
 15 27  1  0
 27 28  2  0
 27 29  1  0
 29 30  1  0
 30 31  2  0
 30 32  1  0
 32 33  1  0
 32 34  1  0
 34 35  2  0
 35 36  1  0
 35 37  1  0
 37 38  2  0
 38 39  1  0
 38 40  1  0
 40 41  1  0
 40 42  2  0
 42 43  1  0
 29 44  1  0
 44 45  1  0
 45 46  1  0
 45 47  1  0
 44 48  2  0
 48 49  1  0
 14 50  2  0
 50 51  1  0
  6 52  1  0
 52 53  1  0
 52 54  2  0
 54 55  1  0
 54  2  1  0
 50  7  1  0
 48 15  1  0
 25 16  1  0
 42 34  1  0
M  CHG  1  48   1
M  END
>  <score>  (218) 
5.59341

$$$$

     RDKit          3D

 50 54  0  0  0  0  0  0  0  0999 V2000
   15.5370    5.3294   -1.4073 H   0  0  0  0  0  0  0  0  0  0  0  0
   15.5851    4.2656   -1.6128 C   0  0  0  0  0  0  0  0  0  0  0  0
   15.8350    3.8566   -2.8661 N   0  0  0  0  0  0  0  0  0  0  0  0
   15.8920    2.5321   -3.1006 C   0  0  0  0  0  0  0  0  0  0  0  0
   16.0922    2.1931   -4.1125 H   0  0  0  0  0  0  0  0  0  0  0  0
   15.7070    1.5638   -2.0991 C   0  0  0  0  0  0  0  0  0  0  0  0
   15.7825    0.1245   -2.3995 C   0  0  0  0  0  0  0  0  0  0  0  0
   16.3305   -0.3106   -3.6085 C   0  0  0  0  0  0  0  0  0  0  0  0
   16.7024    0.4323   -4.3069 H   0  0  0  0  0  0  0  0  0  0  0  0
   16.4120   -1.6773   -3.9052 C   0  0  0  0  0  0  0  0  0  0  0  0
   16.8613   -2.0008   -4.8403 H   0  0  0  0  0  0  0  0  0  0  0  0
   15.9391   -2.6214   -2.9825 C   0  0  0  0  0  0  0  0  0  0  0  0
   15.9988   -3.6799   -3.2167 H   0  0  0  0  0  0  0  0  0  0  0  0
   15.3944   -2.2177   -1.7518 C   0  0  0  0  0  0  0  0  0  0  0  0
   14.8276   -3.2258   -0.7601 C   0  0  2  0  0  0  0  0  0  0  0  0
   15.1906   -4.6801   -1.0623 C   0  0  0  0  0  0  0  0  0  0  0  0
   16.4091   -5.2103   -0.6048 C   0  0  0  0  0  0  0  0  0  0  0  0
   17.0869   -4.5658   -0.0553 H   0  0  0  0  0  0  0  0  0  0  0  0
   16.7383   -6.5572   -0.8012 C   0  0  0  0  0  0  0  0  0  0  0  0
   17.6751   -6.9495   -0.4113 H   0  0  0  0  0  0  0  0  0  0  0  0
   15.8533   -7.3974   -1.4842 C   0  0  0  0  0  0  0  0  0  0  0  0
   16.0989   -8.4470   -1.6232 H   0  0  0  0  0  0  0  0  0  0  0  0
   14.6446   -6.8861   -1.9707 C   0  0  0  0  0  0  0  0  0  0  0  0
   13.9541   -7.5490   -2.4871 H   0  0  0  0  0  0  0  0  0  0  0  0
   14.3157   -5.5371   -1.7587 C   0  0  0  0  0  0  0  0  0  0  0  0
   13.3600   -5.1636   -2.1139 H   0  0  0  0  0  0  0  0  0  0  0  0
   13.3078   -3.0145   -0.6140 C   0  0  0  0  0  0  0  0  0  0  0  0
   12.4732   -3.1626   -1.5101 O   0  0  0  0  0  0  0  0  0  0  0  0
   13.0334   -2.6764    0.6949 N   0  0  0  0  0  0  0  0  0  0  0  0
   11.7594   -2.5705    1.2493 C   0  0  0  0  0  0  0  0  0  0  0  0
   10.6616   -1.9776    0.6811 C   0  0  0  0  0  0  0  0  0  0  0  0
   10.6495   -1.4772   -0.2814 H   0  0  0  0  0  0  0  0  0  0  0  0
    9.5427   -2.1276    1.6085 C   0  0  0  0  0  0  0  0  0  0  0  0
    8.5229   -1.7648    1.4842 H   0  0  0  0  0  0  0  0  0  0  0  0
   10.0221   -2.8200    2.6932 C   0  0  0  0  0  0  0  0  0  0  0  0
    9.4526   -3.1093    3.5687 H   0  0  0  0  0  0  0  0  0  0  0  0
   11.3748   -3.0680    2.4784 N   0  0  0  0  0  0  0  0  0  0  0  0
   12.0007   -3.5429    3.1301 H   0  0  0  0  0  0  0  0  0  0  0  0
   14.2293   -2.6671    1.3886 C   0  0  0  0  0  0  0  0  0  0  0  0
   14.4139   -2.4274    2.7219 N   0  0  0  0  0  0  0  0  0  0  0  0
   15.3712   -2.2949    3.0471 H   0  0  0  0  0  0  0  0  0  0  0  0
   13.6470   -2.0101    3.2491 H   0  0  0  0  0  0  0  0  0  0  0  0
   15.2410   -2.9050    0.6224 N   0  0  0  0  0  4  0  0  0  0  0  0
   16.2057   -2.9899    0.9494 H   0  0  0  0  0  0  0  0  0  0  0  0
   15.3139   -0.8361   -1.4873 C   0  0  0  0  0  0  0  0  0  0  0  0
   14.8675   -0.4934   -0.5602 H   0  0  0  0  0  0  0  0  0  0  0  0
   15.4656    1.9994   -0.7999 C   0  0  0  0  0  0  0  0  0  0  0  0
   15.3615    1.2639   -0.0085 H   0  0  0  0  0  0  0  0  0  0  0  0
   15.3917    3.3689   -0.5601 C   0  0  0  0  0  0  0  0  0  0  0  0
   15.1997    3.7492    0.4349 H   0  0  0  0  0  0  0  0  0  0  0  0
  1  2  1  0
  2  3  2  0
  3  4  1  0
  4  5  1  0
  4  6  2  0
  6  7  1  0
  7  8  2  0
  8  9  1  0
  8 10  1  0
 10 11  1  0
 10 12  2  0
 12 13  1  0
 12 14  1  0
 15 14  1  6
 15 16  1  0
 16 17  2  0
 17 18  1  0
 17 19  1  0
 19 20  1  0
 19 21  2  0
 21 22  1  0
 21 23  1  0
 23 24  1  0
 23 25  2  0
 25 26  1  0
 15 27  1  0
 27 28  2  0
 27 29  1  0
 29 30  1  0
 30 31  2  0
 31 32  1  0
 31 33  1  0
 33 34  1  0
 33 35  2  0
 35 36  1  0
 35 37  1  0
 37 38  1  0
 29 39  1  0
 39 40  1  0
 40 41  1  0
 40 42  1  0
 39 43  2  0
 43 44  1  0
 14 45  2  0
 45 46  1  0
  6 47  1  0
 47 48  1  0
 47 49  2  0
 49 50  1  0
 49  2  1  0
 45  7  1  0
 43 15  1  0
 25 16  1  0
 37 30  1  0
M  CHG  1  43   1
M  END
>  <score>  (219) 
5.59278

$$$$

     RDKit          3D

 53 57  0  0  0  0  0  0  0  0999 V2000
    8.4784   -1.5572    3.8560 H   0  0  0  0  0  0  0  0  0  0  0  0
    9.2438   -2.2587    3.5474 C   0  0  0  0  0  0  0  0  0  0  0  0
    9.9412   -1.9268    2.4647 N   0  0  0  0  0  0  0  0  0  0  0  0
   10.9795   -2.6919    2.1425 C   0  0  0  0  0  0  0  0  0  0  0  0
   11.7002   -2.1534    1.1062 N   0  0  0  0  0  0  0  0  0  0  0  0
   11.3618   -1.2106    0.9291 H   0  0  0  0  0  0  0  0  0  0  0  0
   13.0196   -2.5773    0.6376 N   0  0  0  0  0  0  0  0  0  0  0  0
   13.3306   -3.0158   -0.6473 C   0  0  0  0  0  0  0  0  0  0  0  0
   12.5108   -3.1793   -1.5539 O   0  0  0  0  0  0  0  0  0  0  0  0
   14.8452   -3.2426   -0.7671 C   0  0  1  0  0  0  0  0  0  0  0  0
   15.2032   -4.7002   -1.0614 C   0  0  0  0  0  0  0  0  0  0  0  0
   16.4192   -5.2311   -0.6036 C   0  0  0  0  0  0  0  0  0  0  0  0
   17.1021   -4.5849   -0.0614 H   0  0  0  0  0  0  0  0  0  0  0  0
   16.7441   -6.5762   -0.8046 C   0  0  0  0  0  0  0  0  0  0  0  0
   17.6811   -6.9623   -0.4154 H   0  0  0  0  0  0  0  0  0  0  0  0
   15.8579   -7.4157   -1.4852 C   0  0  0  0  0  0  0  0  0  0  0  0
   16.1059   -8.4652   -1.6239 H   0  0  0  0  0  0  0  0  0  0  0  0
   14.6506   -6.9011   -1.9699 C   0  0  0  0  0  0  0  0  0  0  0  0
   13.9611   -7.5605   -2.4884 H   0  0  0  0  0  0  0  0  0  0  0  0
   14.3224   -5.5532   -1.7581 C   0  0  0  0  0  0  0  0  0  0  0  0
   13.3709   -5.1798   -2.1271 H   0  0  0  0  0  0  0  0  0  0  0  0
   15.4098   -2.2301   -1.7566 C   0  0  0  0  0  0  0  0  0  0  0  0
   15.9478   -2.6290   -2.9893 C   0  0  0  0  0  0  0  0  0  0  0  0
   16.0084   -3.6862   -3.2295 H   0  0  0  0  0  0  0  0  0  0  0  0
   16.4163   -1.6798   -3.9056 C   0  0  0  0  0  0  0  0  0  0  0  0
   16.8579   -2.0001   -4.8441 H   0  0  0  0  0  0  0  0  0  0  0  0
   16.3360   -0.3166   -3.6067 C   0  0  0  0  0  0  0  0  0  0  0  0
   16.7046    0.4181   -4.3151 H   0  0  0  0  0  0  0  0  0  0  0  0
   15.7811    0.1182   -2.3984 C   0  0  0  0  0  0  0  0  0  0  0  0
   15.7026    1.5588   -2.0977 C   0  0  0  0  0  0  0  0  0  0  0  0
   15.8875    2.5307   -3.0970 C   0  0  0  0  0  0  0  0  0  0  0  0
   16.0831    2.2025   -4.1131 H   0  0  0  0  0  0  0  0  0  0  0  0
   15.8355    3.8556   -2.8615 N   0  0  0  0  0  0  0  0  0  0  0  0
   15.5837    4.2681   -1.6099 C   0  0  0  0  0  0  0  0  0  0  0  0
   15.5417    5.3345   -1.4076 H   0  0  0  0  0  0  0  0  0  0  0  0
   15.3881    3.3715   -0.5578 C   0  0  0  0  0  0  0  0  0  0  0  0
   15.1976    3.7519    0.4386 H   0  0  0  0  0  0  0  0  0  0  0  0
   15.4608    2.0008   -0.7975 C   0  0  0  0  0  0  0  0  0  0  0  0
   15.3462    1.2796    0.0044 H   0  0  0  0  0  0  0  0  0  0  0  0
   15.3149   -0.8479   -1.4893 C   0  0  0  0  0  0  0  0  0  0  0  0
   14.8694   -0.5133   -0.5574 H   0  0  0  0  0  0  0  0  0  0  0  0
   15.2414   -2.9058    0.6125 N   0  0  0  0  0  4  0  0  0  0  0  0
   16.2011   -2.9875    0.9532 H   0  0  0  0  0  0  0  0  0  0  0  0
   14.2255   -2.5727    1.3468 C   0  0  0  0  0  0  0  0  0  0  0  0
   14.4366   -2.2870    2.6756 N   0  0  0  0  0  0  0  0  0  0  0  0
   13.6459   -2.0705    3.2836 H   0  0  0  0  0  0  0  0  0  0  0  0
   15.3806   -2.3381    3.0566 H   0  0  0  0  0  0  0  0  0  0  0  0
   11.3305   -3.8547    2.8155 C   0  0  0  0  0  0  0  0  0  0  0  0
   12.2277   -4.3836    2.5123 H   0  0  0  0  0  0  0  0  0  0  0  0
   10.5301   -4.2764    3.8780 C   0  0  0  0  0  0  0  0  0  0  0  0
   10.7626   -5.1774    4.4396 H   0  0  0  0  0  0  0  0  0  0  0  0
    9.4727   -3.4411    4.2551 C   0  0  0  0  0  0  0  0  0  0  0  0
    8.8286   -3.6586    5.0976 H   0  0  0  0  0  0  0  0  0  0  0  0
  1  2  1  0
  2  3  2  0
  3  4  1  0
  4  5  1  0
  5  6  1  0
  5  7  1  0
  7  8  1  0
  8  9  2  0
  8 10  1  0
 10 11  1  6
 11 12  2  0
 12 13  1  0
 12 14  1  0
 14 15  1  0
 14 16  2  0
 16 17  1  0
 16 18  1  0
 18 19  1  0
 18 20  2  0
 20 21  1  0
 10 22  1  0
 22 23  2  0
 23 24  1  0
 23 25  1  0
 25 26  1  0
 25 27  2  0
 27 28  1  0
 27 29  1  0
 29 30  1  0
 30 31  2  0
 31 32  1  0
 31 33  1  0
 33 34  2  0
 34 35  1  0
 34 36  1  0
 36 37  1  0
 36 38  2  0
 38 39  1  0
 29 40  2  0
 40 41  1  0
 10 42  1  0
 42 43  1  0
 42 44  2  0
 44 45  1  0
 45 46  1  0
 45 47  1  0
  4 48  2  0
 48 49  1  0
 48 50  1  0
 50 51  1  0
 50 52  2  0
 52 53  1  0
 52  2  1  0
 44  7  1  0
 20 11  1  0
 40 22  1  0
 38 30  1  0
M  CHG  1  42   1
M  END
>  <score>  (220) 
5.59175

$$$$

     RDKit          3D

 57 61  0  0  0  0  0  0  0  0999 V2000
   15.5136    5.3189   -1.4320 H   0  0  0  0  0  0  0  0  0  0  0  0
   15.6001    4.2531   -1.6152 C   0  0  0  0  0  0  0  0  0  0  0  0
   15.8532    3.8365   -2.8644 N   0  0  0  0  0  0  0  0  0  0  0  0
   15.9240    2.5124   -3.0895 C   0  0  0  0  0  0  0  0  0  0  0  0
   16.1252    2.1796   -4.1036 H   0  0  0  0  0  0  0  0  0  0  0  0
   15.7368    1.5509   -2.0813 C   0  0  0  0  0  0  0  0  0  0  0  0
   15.7857    0.1132   -2.3822 C   0  0  0  0  0  0  0  0  0  0  0  0
   16.3244   -0.3444   -3.5927 C   0  0  0  0  0  0  0  0  0  0  0  0
   16.7058    0.3640   -4.3205 H   0  0  0  0  0  0  0  0  0  0  0  0
   16.3875   -1.7102   -3.8756 C   0  0  0  0  0  0  0  0  0  0  0  0
   16.8155   -2.0427   -4.8175 H   0  0  0  0  0  0  0  0  0  0  0  0
   15.9146   -2.6384   -2.9427 C   0  0  0  0  0  0  0  0  0  0  0  0
   15.9617   -3.6989   -3.1735 H   0  0  0  0  0  0  0  0  0  0  0  0
   15.3825   -2.2115   -1.7156 C   0  0  0  0  0  0  0  0  0  0  0  0
   14.8353   -3.1972   -0.6994 C   0  0  2  0  0  0  0  0  0  0  0  0
   15.1806   -4.6414   -1.0148 C   0  0  0  0  0  0  0  0  0  0  0  0
   16.4041   -5.1683   -0.5821 C   0  0  0  0  0  0  0  0  0  0  0  0
   17.1003   -4.5311   -0.0449 H   0  0  0  0  0  0  0  0  0  0  0  0
   16.7291   -6.5060   -0.8070 C   0  0  0  0  0  0  0  0  0  0  0  0
   17.6752   -6.8896   -0.4360 H   0  0  0  0  0  0  0  0  0  0  0  0
   15.8366   -7.3335   -1.4981 C   0  0  0  0  0  0  0  0  0  0  0  0
   16.0884   -8.3760   -1.6698 H   0  0  0  0  0  0  0  0  0  0  0  0
   14.6231   -6.8137   -1.9667 C   0  0  0  0  0  0  0  0  0  0  0  0
   13.9264   -7.4488   -2.5079 H   0  0  0  0  0  0  0  0  0  0  0  0
   14.2977   -5.4730   -1.7268 C   0  0  0  0  0  0  0  0  0  0  0  0
   13.3514   -5.0848   -2.0918 H   0  0  0  0  0  0  0  0  0  0  0  0
   13.3267   -2.9719   -0.5361 C   0  0  0  0  0  0  0  0  0  0  0  0
   12.4306   -3.1633   -1.3515 O   0  0  0  0  0  0  0  0  0  0  0  0
   13.0895   -2.6825    0.7677 N   0  0  0  0  0  0  0  0  0  0  0  0
   11.8420   -2.4423    1.2445 C   0  0  0  0  0  0  0  0  0  0  0  0
   11.0874   -1.8048    0.5290 O   0  0  0  0  0  0  0  0  0  0  0  0
   11.3739   -3.1050    2.3680 N   0  0  0  0  0  0  0  0  0  0  0  0
   10.0146   -2.8471    2.8666 C   0  0  0  0  0  0  0  0  0  0  0  0
    9.2751   -3.3977    2.2758 H   0  0  0  0  0  0  0  0  0  0  0  0
    9.7708   -1.7825    2.7661 H   0  0  0  0  0  0  0  0  0  0  0  0
    9.9254   -3.2623    4.3434 C   0  0  0  0  0  0  0  0  0  0  0  0
   10.5244   -2.5590    4.9226 H   0  0  0  0  0  0  0  0  0  0  0  0
    8.8935   -3.1758    4.7059 H   0  0  0  0  0  0  0  0  0  0  0  0
   10.4330   -4.6003    4.5535 O   0  0  0  0  0  0  0  0  0  0  0  0
   11.8099   -4.7156    4.1610 C   0  0  0  0  0  0  0  0  0  0  0  0
   12.4404   -4.0081    4.7124 H   0  0  0  0  0  0  0  0  0  0  0  0
   12.1647   -5.7272    4.3723 H   0  0  0  0  0  0  0  0  0  0  0  0
   11.9092   -4.4415    2.6633 C   0  0  0  0  0  0  0  0  0  0  0  0
   11.3194   -5.1942    2.1276 H   0  0  0  0  0  0  0  0  0  0  0  0
   12.9499   -4.5443    2.3398 H   0  0  0  0  0  0  0  0  0  0  0  0
   14.2452   -2.6995    1.4675 C   0  0  0  0  0  0  0  0  0  0  0  0
   14.3395   -2.4884    2.8050 N   0  0  0  0  0  0  0  0  0  0  0  0
   15.2571   -2.1831    3.1285 H   0  0  0  0  0  0  0  0  0  0  0  0
   13.5140   -2.1089    3.2620 H   0  0  0  0  0  0  0  0  0  0  0  0
   15.2538   -2.9017    0.6908 N   0  0  0  0  0  4  0  0  0  0  0  0
   16.2181   -2.9996    1.0191 H   0  0  0  0  0  0  0  0  0  0  0  0
   15.3003   -0.8319   -1.4645 C   0  0  0  0  0  0  0  0  0  0  0  0
   14.8515   -0.4876   -0.5381 H   0  0  0  0  0  0  0  0  0  0  0  0
   15.5091    1.9969   -0.7784 C   0  0  0  0  0  0  0  0  0  0  0  0
   15.3989    1.2906    0.0392 H   0  0  0  0  0  0  0  0  0  0  0  0
   15.4344    3.3647   -0.5498 C   0  0  0  0  0  0  0  0  0  0  0  0
   15.2428    3.7332    0.4495 H   0  0  0  0  0  0  0  0  0  0  0  0
  1  2  1  0
  2  3  2  0
  3  4  1  0
  4  5  1  0
  4  6  2  0
  6  7  1  0
  7  8  2  0
  8  9  1  0
  8 10  1  0
 10 11  1  0
 10 12  2  0
 12 13  1  0
 12 14  1  0
 15 14  1  6
 15 16  1  0
 16 17  2  0
 17 18  1  0
 17 19  1  0
 19 20  1  0
 19 21  2  0
 21 22  1  0
 21 23  1  0
 23 24  1  0
 23 25  2  0
 25 26  1  0
 15 27  1  0
 27 28  2  0
 27 29  1  0
 29 30  1  0
 30 31  2  0
 30 32  1  0
 32 33  1  0
 33 34  1  0
 33 35  1  0
 33 36  1  0
 36 37  1  0
 36 38  1  0
 36 39  1  0
 39 40  1  0
 40 41  1  0
 40 42  1  0
 40 43  1  0
 43 44  1  0
 43 45  1  0
 29 46  1  0
 46 47  1  0
 47 48  1  0
 47 49  1  0
 46 50  2  0
 50 51  1  0
 14 52  2  0
 52 53  1  0
  6 54  1  0
 54 55  1  0
 54 56  2  0
 56 57  1  0
 56  2  1  0
 52  7  1  0
 50 15  1  0
 25 16  1  0
 43 32  1  0
M  CHG  1  50   1
M  END
>  <score>  (221) 
5.59012

$$$$

     RDKit          3D

 55 59  0  0  0  0  0  0  0  0999 V2000
   15.5248    5.3287   -1.4273 H   0  0  0  0  0  0  0  0  0  0  0  0
   15.6007    4.2612   -1.6132 C   0  0  0  0  0  0  0  0  0  0  0  0
   15.8521    3.8363   -2.8613 N   0  0  0  0  0  0  0  0  0  0  0  0
   15.9239    2.5093   -3.0802 C   0  0  0  0  0  0  0  0  0  0  0  0
   16.1256    2.1611   -4.0881 H   0  0  0  0  0  0  0  0  0  0  0  0
   15.7410    1.5488   -2.0732 C   0  0  0  0  0  0  0  0  0  0  0  0
   15.7984    0.1067   -2.3704 C   0  0  0  0  0  0  0  0  0  0  0  0
   16.3235   -0.3554   -3.5851 C   0  0  0  0  0  0  0  0  0  0  0  0
   16.6954    0.3660   -4.3038 H   0  0  0  0  0  0  0  0  0  0  0  0
   16.3858   -1.7243   -3.8626 C   0  0  0  0  0  0  0  0  0  0  0  0
   16.7916   -2.0692   -4.8077 H   0  0  0  0  0  0  0  0  0  0  0  0
   15.9247   -2.6473   -2.9215 C   0  0  0  0  0  0  0  0  0  0  0  0
   15.9550   -3.7108   -3.1404 H   0  0  0  0  0  0  0  0  0  0  0  0
   15.4041   -2.2136   -1.6939 C   0  0  0  0  0  0  0  0  0  0  0  0
   14.8445   -3.2020   -0.6914 C   0  0  2  0  0  0  0  0  0  0  0  0
   15.2031   -4.6419   -1.0058 C   0  0  0  0  0  0  0  0  0  0  0  0
   16.4233   -5.1712   -0.5688 C   0  0  0  0  0  0  0  0  0  0  0  0
   17.1102   -4.5313   -0.0214 H   0  0  0  0  0  0  0  0  0  0  0  0
   16.7438   -6.5086   -0.8079 C   0  0  0  0  0  0  0  0  0  0  0  0
   17.6867   -6.9014   -0.4399 H   0  0  0  0  0  0  0  0  0  0  0  0
   15.8462   -7.3287   -1.5026 C   0  0  0  0  0  0  0  0  0  0  0  0
   16.0905   -8.3694   -1.6846 H   0  0  0  0  0  0  0  0  0  0  0  0
   14.6335   -6.8052   -1.9652 C   0  0  0  0  0  0  0  0  0  0  0  0
   13.9315   -7.4335   -2.5062 H   0  0  0  0  0  0  0  0  0  0  0  0
   14.3165   -5.4665   -1.7211 C   0  0  0  0  0  0  0  0  0  0  0  0
   13.3661   -5.0707   -2.0695 H   0  0  0  0  0  0  0  0  0  0  0  0
   13.3269   -3.0147   -0.5791 C   0  0  0  0  0  0  0  0  0  0  0  0
   12.4579   -3.2443   -1.4164 O   0  0  0  0  0  0  0  0  0  0  0  0
   13.0453   -2.7029    0.7150 N   0  0  0  0  0  0  0  0  0  0  0  0
   11.7709   -2.6330    1.1441 C   0  0  0  0  0  0  0  0  0  0  0  0
   10.9246   -2.4071    0.3030 O   0  0  0  0  0  0  0  0  0  0  0  0
   11.4558   -2.8321    2.4539 N   0  0  0  0  0  0  0  0  0  0  0  0
   12.2210   -3.0122    3.0867 H   0  0  0  0  0  0  0  0  0  0  0  0
   10.1780   -3.0932    2.8924 C   0  0  0  0  0  0  0  0  0  0  0  0
    9.9533   -3.2870    4.2312 C   0  0  0  0  0  0  0  0  0  0  0  0
   10.7900   -3.2277    4.9152 H   0  0  0  0  0  0  0  0  0  0  0  0
    8.6532   -3.5388    4.6778 C   0  0  0  0  0  0  0  0  0  0  0  0
    8.4657   -3.6803    5.7389 H   0  0  0  0  0  0  0  0  0  0  0  0
    7.6083   -3.6195    3.8356 N   0  0  0  0  0  0  0  0  0  0  0  0
    7.8471   -3.4893    2.5219 C   0  0  0  0  0  0  0  0  0  0  0  0
    7.0329   -3.5988    1.8117 H   0  0  0  0  0  0  0  0  0  0  0  0
    9.1128   -3.2177    2.0207 C   0  0  0  0  0  0  0  0  0  0  0  0
    9.2604   -3.1225    0.9572 H   0  0  0  0  0  0  0  0  0  0  0  0
   14.1826   -2.6787    1.4431 C   0  0  0  0  0  0  0  0  0  0  0  0
   14.2731   -2.4639    2.7807 N   0  0  0  0  0  0  0  0  0  0  0  0
   13.4668   -2.0584    3.2495 H   0  0  0  0  0  0  0  0  0  0  0  0
   15.2096   -2.2470    3.1271 H   0  0  0  0  0  0  0  0  0  0  0  0
   15.2173   -2.8790    0.7073 N   0  0  0  0  0  4  0  0  0  0  0  0
   16.1614   -3.0024    1.0855 H   0  0  0  0  0  0  0  0  0  0  0  0
   15.3263   -0.8338   -1.4434 C   0  0  0  0  0  0  0  0  0  0  0  0
   14.8682   -0.4796   -0.5234 H   0  0  0  0  0  0  0  0  0  0  0  0
   15.5139    2.0018   -0.7723 C   0  0  0  0  0  0  0  0  0  0  0  0
   15.4102    1.2842    0.0365 H   0  0  0  0  0  0  0  0  0  0  0  0
   15.4379    3.3750   -0.5450 C   0  0  0  0  0  0  0  0  0  0  0  0
   15.2500    3.7596    0.4506 H   0  0  0  0  0  0  0  0  0  0  0  0
  1  2  1  0
  2  3  2  0
  3  4  1  0
  4  5  1  0
  4  6  2  0
  6  7  1  0
  7  8  2  0
  8  9  1  0
  8 10  1  0
 10 11  1  0
 10 12  2  0
 12 13  1  0
 12 14  1  0
 15 14  1  6
 15 16  1  0
 16 17  2  0
 17 18  1  0
 17 19  1  0
 19 20  1  0
 19 21  2  0
 21 22  1  0
 21 23  1  0
 23 24  1  0
 23 25  2  0
 25 26  1  0
 15 27  1  0
 27 28  2  0
 27 29  1  0
 29 30  1  0
 30 31  2  0
 30 32  1  0
 32 33  1  0
 32 34  1  0
 34 35  2  0
 35 36  1  0
 35 37  1  0
 37 38  1  0
 37 39  2  0
 39 40  1  0
 40 41  1  0
 40 42  2  0
 42 43  1  0
 29 44  1  0
 44 45  1  0
 45 46  1  0
 45 47  1  0
 44 48  2  0
 48 49  1  0
 14 50  2  0
 50 51  1  0
  6 52  1  0
 52 53  1  0
 52 54  2  0
 54 55  1  0
 54  2  1  0
 50  7  1  0
 48 15  1  0
 25 16  1  0
 42 34  1  0
M  CHG  1  48   1
M  END
>  <score>  (222) 
5.58966

$$$$

     RDKit          3D

 55 58  0  0  0  0  0  0  0  0999 V2000
   15.5509    5.3484   -1.3961 H   0  0  0  0  0  0  0  0  0  0  0  0
   15.5873    4.2819   -1.6063 C   0  0  0  0  0  0  0  0  0  0  0  0
   15.8240    3.8668   -2.8607 N   0  0  0  0  0  0  0  0  0  0  0  0
   15.8804    2.5404   -3.0942 C   0  0  0  0  0  0  0  0  0  0  0  0
   16.0738    2.2005   -4.1062 H   0  0  0  0  0  0  0  0  0  0  0  0
   15.6967    1.5671   -2.0982 C   0  0  0  0  0  0  0  0  0  0  0  0
   15.7763    0.1217   -2.4049 C   0  0  0  0  0  0  0  0  0  0  0  0
   16.3302   -0.3163   -3.6123 C   0  0  0  0  0  0  0  0  0  0  0  0
   16.7088    0.4310   -4.3014 H   0  0  0  0  0  0  0  0  0  0  0  0
   16.4227   -1.6827   -3.9083 C   0  0  0  0  0  0  0  0  0  0  0  0
   16.8644   -2.0010   -4.8471 H   0  0  0  0  0  0  0  0  0  0  0  0
   15.9492   -2.6347   -2.9968 C   0  0  0  0  0  0  0  0  0  0  0  0
   16.0037   -3.6940   -3.2357 H   0  0  0  0  0  0  0  0  0  0  0  0
   15.3954   -2.2312   -1.7727 C   0  0  0  0  0  0  0  0  0  0  0  0
   14.8375   -3.2439   -0.7763 C   0  0  2  0  0  0  0  0  0  0  0  0
   15.1896   -4.7032   -1.0781 C   0  0  0  0  0  0  0  0  0  0  0  0
   16.4042   -5.2293   -0.6113 C   0  0  0  0  0  0  0  0  0  0  0  0
   17.0784   -4.5792   -0.0612 H   0  0  0  0  0  0  0  0  0  0  0  0
   16.7398   -6.5738   -0.8050 C   0  0  0  0  0  0  0  0  0  0  0  0
   17.6758   -6.9622   -0.4111 H   0  0  0  0  0  0  0  0  0  0  0  0
   15.8584   -7.4210   -1.4823 C   0  0  0  0  0  0  0  0  0  0  0  0
   16.1052   -8.4704   -1.6165 H   0  0  0  0  0  0  0  0  0  0  0  0
   14.6464   -6.9179   -1.9686 C   0  0  0  0  0  0  0  0  0  0  0  0
   13.9598   -7.5823   -2.4876 H   0  0  0  0  0  0  0  0  0  0  0  0
   14.3147   -5.5666   -1.7691 C   0  0  0  0  0  0  0  0  0  0  0  0
   13.3604   -5.1930   -2.1281 H   0  0  0  0  0  0  0  0  0  0  0  0
   13.3259   -3.0198   -0.6191 C   0  0  0  0  0  0  0  0  0  0  0  0
   12.4866   -3.1286   -1.5147 O   0  0  0  0  0  0  0  0  0  0  0  0
   13.0568   -2.6607    0.6906 N   0  0  0  0  0  0  0  0  0  0  0  0
   11.8134   -2.1443    1.1868 O   0  0  0  0  0  0  0  0  0  0  0  0
   10.9031   -3.1374    1.6972 C   0  0  0  0  0  0  0  0  0  0  0  0
    9.7421   -2.4042    2.3531 C   0  0  0  0  0  0  0  0  0  0  0  0
    9.2829   -1.7281    1.6283 H   0  0  0  0  0  0  0  0  0  0  0  0
   10.1199   -1.8242    3.1964 H   0  0  0  0  0  0  0  0  0  0  0  0
    8.9829   -3.1016    2.7215 H   0  0  0  0  0  0  0  0  0  0  0  0
   11.5800   -4.0404    2.7336 C   0  0  0  0  0  0  0  0  0  0  0  0
   10.8806   -4.7917    3.1192 H   0  0  0  0  0  0  0  0  0  0  0  0
   12.4322   -4.5501    2.2716 H   0  0  0  0  0  0  0  0  0  0  0  0
   11.9391   -3.4423    3.5741 H   0  0  0  0  0  0  0  0  0  0  0  0
   10.3909   -3.9828    0.5341 C   0  0  0  0  0  0  0  0  0  0  0  0
   10.0322   -3.3248   -0.2645 H   0  0  0  0  0  0  0  0  0  0  0  0
   11.2089   -4.6015    0.1482 H   0  0  0  0  0  0  0  0  0  0  0  0
    9.5703   -4.6354    0.8564 H   0  0  0  0  0  0  0  0  0  0  0  0
   14.2698   -2.6152    1.3640 C   0  0  0  0  0  0  0  0  0  0  0  0
   14.4442   -2.3033    2.6866 N   0  0  0  0  0  0  0  0  0  0  0  0
   13.6472   -1.9988    3.2441 H   0  0  0  0  0  0  0  0  0  0  0  0
   15.3787   -2.3442    3.0938 H   0  0  0  0  0  0  0  0  0  0  0  0
   15.2678   -2.9231    0.6024 N   0  0  0  0  0  4  0  0  0  0  0  0
   16.2422   -2.9706    0.9175 H   0  0  0  0  0  0  0  0  0  0  0  0
   15.3134   -0.8480   -1.4990 C   0  0  0  0  0  0  0  0  0  0  0  0
   14.8665   -0.5103   -0.5686 H   0  0  0  0  0  0  0  0  0  0  0  0
   15.4484    2.0090   -0.8003 C   0  0  0  0  0  0  0  0  0  0  0  0
   15.3392    1.2702   -0.0124 H   0  0  0  0  0  0  0  0  0  0  0  0
   15.3853    3.3833   -0.5565 C   0  0  0  0  0  0  0  0  0  0  0  0
   15.1833    3.7694    0.4352 H   0  0  0  0  0  0  0  0  0  0  0  0
  1  2  1  0
  2  3  2  0
  3  4  1  0
  4  5  1  0
  4  6  2  0
  6  7  1  0
  7  8  2  0
  8  9  1  0
  8 10  1  0
 10 11  1  0
 10 12  2  0
 12 13  1  0
 12 14  1  0
 15 14  1  6
 15 16  1  0
 16 17  2  0
 17 18  1  0
 17 19  1  0
 19 20  1  0
 19 21  2  0
 21 22  1  0
 21 23  1  0
 23 24  1  0
 23 25  2  0
 25 26  1  0
 15 27  1  0
 27 28  2  0
 27 29  1  0
 29 30  1  0
 30 31  1  0
 31 32  1  0
 32 33  1  0
 32 34  1  0
 32 35  1  0
 31 36  1  0
 36 37  1  0
 36 38  1  0
 36 39  1  0
 31 40  1  0
 40 41  1  0
 40 42  1  0
 40 43  1  0
 29 44  1  0
 44 45  1  0
 45 46  1  0
 45 47  1  0
 44 48  2  0
 48 49  1  0
 14 50  2  0
 50 51  1  0
  6 52  1  0
 52 53  1  0
 52 54  2  0
 54 55  1  0
 54  2  1  0
 50  7  1  0
 48 15  1  0
 25 16  1  0
M  CHG  1  48   1
M  END
>  <score>  (223) 
5.5882

$$$$

     RDKit          3D

 53 57  0  0  0  0  0  0  0  0999 V2000
   15.5333    5.3268   -1.4185 H   0  0  0  0  0  0  0  0  0  0  0  0
   15.5986    4.2592   -1.6091 C   0  0  0  0  0  0  0  0  0  0  0  0
   15.8438    3.8364   -2.8585 N   0  0  0  0  0  0  0  0  0  0  0  0
   15.9170    2.5103   -3.0819 C   0  0  0  0  0  0  0  0  0  0  0  0
   16.1089    2.1748   -4.0961 H   0  0  0  0  0  0  0  0  0  0  0  0
   15.7423    1.5447   -2.0754 C   0  0  0  0  0  0  0  0  0  0  0  0
   15.8105    0.1004   -2.3772 C   0  0  0  0  0  0  0  0  0  0  0  0
   16.3368   -0.3534   -3.5946 C   0  0  0  0  0  0  0  0  0  0  0  0
   16.6983    0.3668   -4.3219 H   0  0  0  0  0  0  0  0  0  0  0  0
   16.4049   -1.7221   -3.8770 C   0  0  0  0  0  0  0  0  0  0  0  0
   16.8155   -2.0573   -4.8238 H   0  0  0  0  0  0  0  0  0  0  0  0
   15.9445   -2.6553   -2.9424 C   0  0  0  0  0  0  0  0  0  0  0  0
   15.9918   -3.7162   -3.1702 H   0  0  0  0  0  0  0  0  0  0  0  0
   15.4155   -2.2350   -1.7124 C   0  0  0  0  0  0  0  0  0  0  0  0
   14.8536   -3.2316   -0.7051 C   0  0  2  0  0  0  0  0  0  0  0  0
   15.2151   -4.6751   -1.0069 C   0  0  0  0  0  0  0  0  0  0  0  0
   16.4354   -5.2033   -0.5662 C   0  0  0  0  0  0  0  0  0  0  0  0
   17.1243   -4.5644   -0.0209 H   0  0  0  0  0  0  0  0  0  0  0  0
   16.7601   -6.5410   -0.8042 C   0  0  0  0  0  0  0  0  0  0  0  0
   17.7035   -6.9334   -0.4380 H   0  0  0  0  0  0  0  0  0  0  0  0
   15.8666   -7.3651   -1.4971 C   0  0  0  0  0  0  0  0  0  0  0  0
   16.1118   -8.4085   -1.6691 H   0  0  0  0  0  0  0  0  0  0  0  0
   14.6550   -6.8443   -1.9629 C   0  0  0  0  0  0  0  0  0  0  0  0
   13.9584   -7.4787   -2.5026 H   0  0  0  0  0  0  0  0  0  0  0  0
   14.3329   -5.5053   -1.7216 C   0  0  0  0  0  0  0  0  0  0  0  0
   13.3857   -5.1130   -2.0809 H   0  0  0  0  0  0  0  0  0  0  0  0
   13.3367   -3.0414   -0.5898 C   0  0  0  0  0  0  0  0  0  0  0  0
   12.5364   -3.1579   -1.5183 O   0  0  0  0  0  0  0  0  0  0  0  0
   12.9828   -2.6393    0.6945 N   0  0  0  0  0  0  0  0  0  0  0  0
   11.6808   -2.0698    1.0557 N   0  0  0  0  0  0  0  0  0  0  0  0
   11.6674   -1.1752    1.5493 H   0  0  0  0  0  0  0  0  0  0  0  0
   10.4449   -2.4252    0.5004 C   0  0  0  0  0  0  0  0  0  0  0  0
   10.2532   -3.5148   -0.0287 O   0  0  0  0  0  0  0  0  0  0  0  0
    9.3882   -1.4277    0.4318 C   0  0  0  0  0  0  0  0  0  0  0  0
    7.8313   -1.7832   -0.3044 S   0  0  0  0  0  0  0  0  0  0  0  0
    7.2967   -0.1344    0.0190 C   0  0  0  0  0  0  0  0  0  0  0  0
    6.3074    0.2428   -0.2271 H   0  0  0  0  0  0  0  0  0  0  0  0
    8.2744    0.6266    0.6172 C   0  0  0  0  0  0  0  0  0  0  0  0
    8.1650    1.6780    0.8697 H   0  0  0  0  0  0  0  0  0  0  0  0
    9.4921   -0.1228    0.8529 C   0  0  0  0  0  0  0  0  0  0  0  0
   10.3986    0.3195    1.2669 H   0  0  0  0  0  0  0  0  0  0  0  0
   14.1973   -2.5657    1.3984 C   0  0  0  0  0  0  0  0  0  0  0  0
   14.4127   -2.1937    2.7012 N   0  0  0  0  0  0  0  0  0  0  0  0
   13.6166   -2.1317    3.3353 H   0  0  0  0  0  0  0  0  0  0  0  0
   15.3531   -2.3174    3.0812 H   0  0  0  0  0  0  0  0  0  0  0  0
   15.2269   -2.8919    0.6799 N   0  0  0  0  0  4  0  0  0  0  0  0
   16.1909   -2.9190    1.0254 H   0  0  0  0  0  0  0  0  0  0  0  0
   15.3453   -0.8523   -1.4546 C   0  0  0  0  0  0  0  0  0  0  0  0
   14.9123   -0.5061   -0.5213 H   0  0  0  0  0  0  0  0  0  0  0  0
   15.5046    1.9971   -0.7754 C   0  0  0  0  0  0  0  0  0  0  0  0
   15.3993    1.2837    0.0364 H   0  0  0  0  0  0  0  0  0  0  0  0
   15.4268    3.3702   -0.5461 C   0  0  0  0  0  0  0  0  0  0  0  0
   15.2383    3.7555    0.4486 H   0  0  0  0  0  0  0  0  0  0  0  0
  1  2  1  0
  2  3  2  0
  3  4  1  0
  4  5  1  0
  4  6  2  0
  6  7  1  0
  7  8  2  0
  8  9  1  0
  8 10  1  0
 10 11  1  0
 10 12  2  0
 12 13  1  0
 12 14  1  0
 15 14  1  6
 15 16  1  0
 16 17  2  0
 17 18  1  0
 17 19  1  0
 19 20  1  0
 19 21  2  0
 21 22  1  0
 21 23  1  0
 23 24  1  0
 23 25  2  0
 25 26  1  0
 15 27  1  0
 27 28  2  0
 27 29  1  0
 29 30  1  0
 30 31  1  0
 30 32  1  0
 32 33  2  0
 32 34  1  0
 34 35  1  0
 35 36  1  0
 36 37  1  0
 36 38  2  0
 38 39  1  0
 38 40  1  0
 40 41  1  0
 29 42  1  0
 42 43  1  0
 43 44  1  0
 43 45  1  0
 42 46  2  0
 46 47  1  0
 14 48  2  0
 48 49  1  0
  6 50  1  0
 50 51  1  0
 50 52  2  0
 52 53  1  0
 52  2  1  0
 48  7  1  0
 46 15  1  0
 25 16  1  0
 40 34  2  0
M  CHG  1  46   1
M  END
>  <score>  (224) 
5.58781

$$$$

     RDKit          3D

 54 59  0  0  0  0  0  0  0  0999 V2000
   15.5293    5.3539   -1.4096 H   0  0  0  0  0  0  0  0  0  0  0  0
   15.6262    4.2907   -1.6096 C   0  0  0  0  0  0  0  0  0  0  0  0
   15.8814    3.8864   -2.8635 N   0  0  0  0  0  0  0  0  0  0  0  0
   15.9972    2.5655   -3.0982 C   0  0  0  0  0  0  0  0  0  0  0  0
   16.1920    2.2415   -4.1159 H   0  0  0  0  0  0  0  0  0  0  0  0
   15.8626    1.5909   -2.0964 C   0  0  0  0  0  0  0  0  0  0  0  0
   15.9740    0.1546   -2.4008 C   0  0  0  0  0  0  0  0  0  0  0  0
   16.4226   -0.2997   -3.6488 C   0  0  0  0  0  0  0  0  0  0  0  0
   16.7019    0.4202   -4.4107 H   0  0  0  0  0  0  0  0  0  0  0  0
   16.4971   -1.6712   -3.9210 C   0  0  0  0  0  0  0  0  0  0  0  0
   16.8410   -2.0119   -4.8915 H   0  0  0  0  0  0  0  0  0  0  0  0
   16.1094   -2.6025   -2.9517 C   0  0  0  0  0  0  0  0  0  0  0  0
   16.1415   -3.6658   -3.1736 H   0  0  0  0  0  0  0  0  0  0  0  0
   15.6567   -2.1717   -1.6962 C   0  0  0  0  0  0  0  0  0  0  0  0
   15.0852   -3.1352   -0.6737 C   0  0  2  0  0  0  0  0  0  0  0  0
   15.3631   -4.6021   -0.9857 C   0  0  0  0  0  0  0  0  0  0  0  0
   16.5612   -5.1994   -0.5667 C   0  0  0  0  0  0  0  0  0  0  0  0
   17.2937   -4.6060   -0.0259 H   0  0  0  0  0  0  0  0  0  0  0  0
   16.8183   -6.5471   -0.8349 C   0  0  0  0  0  0  0  0  0  0  0  0
   17.7472   -6.9943   -0.4962 H   0  0  0  0  0  0  0  0  0  0  0  0
   15.8831   -7.3143   -1.5356 C   0  0  0  0  0  0  0  0  0  0  0  0
   16.0858   -8.3606   -1.7382 H   0  0  0  0  0  0  0  0  0  0  0  0
   14.6889   -6.7334   -1.9706 C   0  0  0  0  0  0  0  0  0  0  0  0
   13.9637   -7.3311   -2.5162 H   0  0  0  0  0  0  0  0  0  0  0  0
   14.4319   -5.3837   -1.7000 C   0  0  0  0  0  0  0  0  0  0  0  0
   13.5009   -4.9443   -2.0472 H   0  0  0  0  0  0  0  0  0  0  0  0
   13.5871   -2.8358   -0.5820 C   0  0  0  0  0  0  0  0  0  0  0  0
   12.7581   -3.0332   -1.4703 O   0  0  0  0  0  0  0  0  0  0  0  0
   13.2772   -2.4479    0.6987 N   0  0  0  0  0  0  0  0  0  0  0  0
   11.9692   -2.5629    1.1257 C   0  0  0  0  0  0  0  0  0  0  0  0
   11.0507   -2.4521    0.1992 N   0  0  0  0  0  0  0  0  0  0  0  0
    9.8330   -2.8701    0.6863 C   0  0  0  0  0  0  0  0  0  0  0  0
    8.6906   -2.9572   -0.1006 C   0  0  0  0  0  0  0  0  0  0  0  0
    8.7450   -2.6053   -1.1284 H   0  0  0  0  0  0  0  0  0  0  0  0
    7.5149   -3.4995    0.4443 C   0  0  0  0  0  0  0  0  0  0  0  0
    6.6195   -3.5122   -0.1703 H   0  0  0  0  0  0  0  0  0  0  0  0
    7.5132   -3.9957    1.7657 C   0  0  0  0  0  0  0  0  0  0  0  0
    6.6100   -4.4449    2.1854 H   0  0  0  0  0  0  0  0  0  0  0  0
    8.6889   -3.8991    2.5402 C   0  0  0  0  0  0  0  0  0  0  0  0
    8.7367   -4.2923    3.5514 H   0  0  0  0  0  0  0  0  0  0  0  0
    9.8345   -3.3081    2.0009 C   0  0  0  0  0  0  0  0  0  0  0  0
   11.4135   -3.0760    2.7103 S   0  0  0  0  0  0  0  0  0  0  0  0
   14.4218   -2.5458    1.4534 C   0  0  0  0  0  0  0  0  0  0  0  0
   14.4985   -2.4172    2.8168 N   0  0  0  0  0  0  0  0  0  0  0  0
   15.4272   -2.3279    3.2288 H   0  0  0  0  0  0  0  0  0  0  0  0
   13.7259   -1.9575    3.2932 H   0  0  0  0  0  0  0  0  0  0  0  0
   15.4580   -2.8198    0.7248 N   0  0  0  0  0  4  0  0  0  0  0  0
   16.3727   -3.0501    1.1165 H   0  0  0  0  0  0  0  0  0  0  0  0
   15.5975   -0.7940   -1.4415 C   0  0  0  0  0  0  0  0  0  0  0  0
   15.2227   -0.4515   -0.4822 H   0  0  0  0  0  0  0  0  0  0  0  0
   15.6005    2.0227   -0.7933 C   0  0  0  0  0  0  0  0  0  0  0  0
   15.4973    1.3038    0.0160 H   0  0  0  0  0  0  0  0  0  0  0  0
   15.4792    3.3886   -0.5544 C   0  0  0  0  0  0  0  0  0  0  0  0
   15.2729    3.7562    0.4432 H   0  0  0  0  0  0  0  0  0  0  0  0
  1  2  1  0
  2  3  2  0
  3  4  1  0
  4  5  1  0
  4  6  2  0
  6  7  1  0
  7  8  2  0
  8  9  1  0
  8 10  1  0
 10 11  1  0
 10 12  2  0
 12 13  1  0
 12 14  1  0
 15 14  1  6
 15 16  1  0
 16 17  2  0
 17 18  1  0
 17 19  1  0
 19 20  1  0
 19 21  2  0
 21 22  1  0
 21 23  1  0
 23 24  1  0
 23 25  2  0
 25 26  1  0
 15 27  1  0
 27 28  2  0
 27 29  1  0
 29 30  1  0
 30 31  2  0
 31 32  1  0
 32 33  2  0
 33 34  1  0
 33 35  1  0
 35 36  1  0
 35 37  2  0
 37 38  1  0
 37 39  1  0
 39 40  1  0
 39 41  2  0
 41 42  1  0
 29 43  1  0
 43 44  1  0
 44 45  1  0
 44 46  1  0
 43 47  2  0
 47 48  1  0
 14 49  2  0
 49 50  1  0
  6 51  1  0
 51 52  1  0
 51 53  2  0
 53 54  1  0
 53  2  1  0
 49  7  1  0
 47 15  1  0
 25 16  1  0
 42 30  1  0
 41 32  1  0
M  CHG  1  47   1
M  END
>  <score>  (225) 
5.58716

$$$$

     RDKit          3D

 55 59  0  0  0  0  0  0  0  0999 V2000
   15.5491    5.3448   -1.3973 H   0  0  0  0  0  0  0  0  0  0  0  0
   15.5867    4.2789   -1.6076 C   0  0  0  0  0  0  0  0  0  0  0  0
   15.8240    3.8639   -2.8620 N   0  0  0  0  0  0  0  0  0  0  0  0
   15.8821    2.5377   -3.0949 C   0  0  0  0  0  0  0  0  0  0  0  0
   16.0785    2.1946   -4.1058 H   0  0  0  0  0  0  0  0  0  0  0  0
   15.6973    1.5663   -2.0975 C   0  0  0  0  0  0  0  0  0  0  0  0
   15.7722    0.1217   -2.4037 C   0  0  0  0  0  0  0  0  0  0  0  0
   16.3265   -0.3159   -3.6106 C   0  0  0  0  0  0  0  0  0  0  0  0
   16.7065    0.4324   -4.2978 H   0  0  0  0  0  0  0  0  0  0  0  0
   16.4166   -1.6815   -3.9079 C   0  0  0  0  0  0  0  0  0  0  0  0
   16.8629   -2.0027   -4.8420 H   0  0  0  0  0  0  0  0  0  0  0  0
   15.9430   -2.6325   -2.9980 C   0  0  0  0  0  0  0  0  0  0  0  0
   15.9995   -3.6918   -3.2324 H   0  0  0  0  0  0  0  0  0  0  0  0
   15.3944   -2.2317   -1.7717 C   0  0  0  0  0  0  0  0  0  0  0  0
   14.8474   -3.2543   -0.7770 C   0  0  2  0  0  0  0  0  0  0  0  0
   15.2031   -4.7074   -1.0801 C   0  0  0  0  0  0  0  0  0  0  0  0
   16.4133   -5.2316   -0.6087 C   0  0  0  0  0  0  0  0  0  0  0  0
   17.0815   -4.5765   -0.0571 H   0  0  0  0  0  0  0  0  0  0  0  0
   16.7433   -6.5754   -0.8035 C   0  0  0  0  0  0  0  0  0  0  0  0
   17.6777   -6.9626   -0.4101 H   0  0  0  0  0  0  0  0  0  0  0  0
   15.8598   -7.4186   -1.4840 C   0  0  0  0  0  0  0  0  0  0  0  0
   16.1036   -8.4679   -1.6168 H   0  0  0  0  0  0  0  0  0  0  0  0
   14.6484   -6.9157   -1.9694 C   0  0  0  0  0  0  0  0  0  0  0  0
   13.9590   -7.5772   -2.4879 H   0  0  0  0  0  0  0  0  0  0  0  0
   14.3207   -5.5658   -1.7684 C   0  0  0  0  0  0  0  0  0  0  0  0
   13.3655   -5.1871   -2.1219 H   0  0  0  0  0  0  0  0  0  0  0  0
   13.3295   -3.0694   -0.6262 C   0  0  0  0  0  0  0  0  0  0  0  0
   12.5156   -3.1355   -1.5528 O   0  0  0  0  0  0  0  0  0  0  0  0
   13.0438   -2.7071    0.6809 N   0  0  0  0  0  0  0  0  0  0  0  0
   11.8165   -2.0987    1.1242 N   0  0  0  0  0  0  0  0  0  0  0  0
   11.6146   -0.6998    0.6760 C   0  0  0  0  0  0  0  0  0  0  0  0
   11.2627   -0.0690    1.4831 H   0  0  0  0  0  0  0  0  0  0  0  0
   12.5686   -0.2946    0.3194 H   0  0  0  0  0  0  0  0  0  0  0  0
   10.5787   -0.6030   -0.4358 C   0  0  0  0  0  0  0  0  0  0  0  0
   10.3407    0.4536   -0.6007 H   0  0  0  0  0  0  0  0  0  0  0  0
   11.0017   -0.9979   -1.3642 H   0  0  0  0  0  0  0  0  0  0  0  0
    9.3838   -1.3282   -0.0799 O   0  0  0  0  0  0  0  0  0  0  0  0
    9.6535   -2.7341    0.0901 C   0  0  0  0  0  0  0  0  0  0  0  0
   10.1017   -3.1204   -0.8270 H   0  0  0  0  0  0  0  0  0  0  0  0
    8.7243   -3.2932    0.2576 H   0  0  0  0  0  0  0  0  0  0  0  0
   10.6383   -2.9877    1.2382 C   0  0  0  0  0  0  0  0  0  0  0  0
   10.1517   -2.8296    2.2035 H   0  0  0  0  0  0  0  0  0  0  0  0
   10.9533   -4.0379    1.1990 H   0  0  0  0  0  0  0  0  0  0  0  0
   14.2590   -2.6390    1.3577 C   0  0  0  0  0  0  0  0  0  0  0  0
   14.4441   -2.2922    2.6751 N   0  0  0  0  0  0  0  0  0  0  0  0
   15.3740   -2.3430    3.0834 H   0  0  0  0  0  0  0  0  0  0  0  0
   13.6312   -2.1366    3.2716 H   0  0  0  0  0  0  0  0  0  0  0  0
   15.2721   -2.9280    0.6031 N   0  0  0  0  0  4  0  0  0  0  0  0
   16.2433   -2.9695    0.9280 H   0  0  0  0  0  0  0  0  0  0  0  0
   15.3089   -0.8473   -1.4971 C   0  0  0  0  0  0  0  0  0  0  0  0
   14.8677   -0.5050   -0.5649 H   0  0  0  0  0  0  0  0  0  0  0  0
   15.4508    2.0071   -0.7995 C   0  0  0  0  0  0  0  0  0  0  0  0
   15.3465    1.2656   -0.0133 H   0  0  0  0  0  0  0  0  0  0  0  0
   15.3861    3.3808   -0.5577 C   0  0  0  0  0  0  0  0  0  0  0  0
   15.1857    3.7665    0.4339 H   0  0  0  0  0  0  0  0  0  0  0  0
  1  2  1  0
  2  3  2  0
  3  4  1  0
  4  5  1  0
  4  6  2  0
  6  7  1  0
  7  8  2  0
  8  9  1  0
  8 10  1  0
 10 11  1  0
 10 12  2  0
 12 13  1  0
 12 14  1  0
 15 14  1  6
 15 16  1  0
 16 17  2  0
 17 18  1  0
 17 19  1  0
 19 20  1  0
 19 21  2  0
 21 22  1  0
 21 23  1  0
 23 24  1  0
 23 25  2  0
 25 26  1  0
 15 27  1  0
 27 28  2  0
 27 29  1  0
 29 30  1  0
 30 31  1  0
 31 32  1  0
 31 33  1  0
 31 34  1  0
 34 35  1  0
 34 36  1  0
 34 37  1  0
 37 38  1  0
 38 39  1  0
 38 40  1  0
 38 41  1  0
 41 42  1  0
 41 43  1  0
 29 44  1  0
 44 45  1  0
 45 46  1  0
 45 47  1  0
 44 48  2  0
 48 49  1  0
 14 50  2  0
 50 51  1  0
  6 52  1  0
 52 53  1  0
 52 54  2  0
 54 55  1  0
 54  2  1  0
 50  7  1  0
 48 15  1  0
 25 16  1  0
 41 30  1  0
M  CHG  1  48   1
M  END
>  <score>  (226) 
5.58693

$$$$

     RDKit          3D

 54 58  0  0  0  0  0  0  0  0999 V2000
    8.1253   -3.0578    5.4638 H   0  0  0  0  0  0  0  0  0  0  0  0
    8.5150   -3.8617    5.0865 O   0  0  0  0  0  0  0  0  0  0  0  0
    9.3618   -3.5034    4.0836 C   0  0  0  0  0  0  0  0  0  0  0  0
    9.0913   -2.3451    3.3586 C   0  0  0  0  0  0  0  0  0  0  0  0
    8.2371   -1.7275    3.5786 H   0  0  0  0  0  0  0  0  0  0  0  0
    9.9441   -1.9505    2.3350 C   0  0  0  0  0  0  0  0  0  0  0  0
    9.7722   -1.0264    1.7921 H   0  0  0  0  0  0  0  0  0  0  0  0
   11.0843   -2.6766    2.0433 C   0  0  0  0  0  0  0  0  0  0  0  0
   11.8402   -2.1260    1.0481 O   0  0  0  0  0  0  0  0  0  0  0  0
   13.0262   -2.7984    0.7146 N   0  0  0  0  0  0  0  0  0  0  0  0
   13.3444   -3.0975   -0.5938 C   0  0  0  0  0  0  0  0  0  0  0  0
   12.5322   -3.1877   -1.5132 O   0  0  0  0  0  0  0  0  0  0  0  0
   14.8621   -3.2486   -0.7236 C   0  0  1  0  0  0  0  0  0  0  0  0
   15.2319   -4.6854   -1.0339 C   0  0  0  0  0  0  0  0  0  0  0  0
   16.4483   -5.2140   -0.5867 C   0  0  0  0  0  0  0  0  0  0  0  0
   17.1431   -4.5793   -0.0421 H   0  0  0  0  0  0  0  0  0  0  0  0
   16.7604   -6.5576   -0.8054 C   0  0  0  0  0  0  0  0  0  0  0  0
   17.6990   -6.9526   -0.4317 H   0  0  0  0  0  0  0  0  0  0  0  0
   15.8625   -7.3816   -1.4931 C   0  0  0  0  0  0  0  0  0  0  0  0
   16.1021   -8.4274   -1.6592 H   0  0  0  0  0  0  0  0  0  0  0  0
   14.6555   -6.8589   -1.9670 C   0  0  0  0  0  0  0  0  0  0  0  0
   13.9525   -7.4879   -2.5048 H   0  0  0  0  0  0  0  0  0  0  0  0
   14.3427   -5.5159   -1.7396 C   0  0  0  0  0  0  0  0  0  0  0  0
   13.3986   -5.1198   -2.1011 H   0  0  0  0  0  0  0  0  0  0  0  0
   15.4070   -2.2348   -1.7233 C   0  0  0  0  0  0  0  0  0  0  0  0
   15.9446   -2.6432   -2.9533 C   0  0  0  0  0  0  0  0  0  0  0  0
   15.9961   -3.7013   -3.1913 H   0  0  0  0  0  0  0  0  0  0  0  0
   16.4049   -1.7043   -3.8822 C   0  0  0  0  0  0  0  0  0  0  0  0
   16.8202   -2.0273   -4.8309 H   0  0  0  0  0  0  0  0  0  0  0  0
   16.3280   -0.3410   -3.5952 C   0  0  0  0  0  0  0  0  0  0  0  0
   16.6898    0.3822   -4.3196 H   0  0  0  0  0  0  0  0  0  0  0  0
   15.7909    0.1031   -2.3809 C   0  0  0  0  0  0  0  0  0  0  0  0
   15.7306    1.5429   -2.0821 C   0  0  0  0  0  0  0  0  0  0  0  0
   15.9142    2.5067   -3.0893 C   0  0  0  0  0  0  0  0  0  0  0  0
   16.1167    2.1738   -4.1035 H   0  0  0  0  0  0  0  0  0  0  0  0
   15.8429    3.8318   -2.8639 N   0  0  0  0  0  0  0  0  0  0  0  0
   15.5947    4.2501   -1.6139 C   0  0  0  0  0  0  0  0  0  0  0  0
   15.5191    5.3171   -1.4271 H   0  0  0  0  0  0  0  0  0  0  0  0
   15.4238    3.3593   -0.5514 C   0  0  0  0  0  0  0  0  0  0  0  0
   15.2315    3.7315    0.4468 H   0  0  0  0  0  0  0  0  0  0  0  0
   15.4973    1.9898   -0.7808 C   0  0  0  0  0  0  0  0  0  0  0  0
   15.3871    1.2783    0.0323 H   0  0  0  0  0  0  0  0  0  0  0  0
   15.3205   -0.8528   -1.4617 C   0  0  0  0  0  0  0  0  0  0  0  0
   14.8831   -0.5107   -0.5282 H   0  0  0  0  0  0  0  0  0  0  0  0
   15.2462   -2.9233    0.6635 N   0  0  0  0  0  4  0  0  0  0  0  0
   16.2115   -2.8940    0.9958 H   0  0  0  0  0  0  0  0  0  0  0  0
   14.2215   -2.6338    1.3890 C   0  0  0  0  0  0  0  0  0  0  0  0
   14.4171   -2.2082    2.6732 N   0  0  0  0  0  0  0  0  0  0  0  0
   13.6160   -2.1219    3.2996 H   0  0  0  0  0  0  0  0  0  0  0  0
   15.3619   -2.2451    3.0542 H   0  0  0  0  0  0  0  0  0  0  0  0
   11.3597   -3.8612    2.7522 C   0  0  0  0  0  0  0  0  0  0  0  0
   12.2436   -4.4438    2.4966 H   0  0  0  0  0  0  0  0  0  0  0  0
   10.4854   -4.2808    3.7695 C   0  0  0  0  0  0  0  0  0  0  0  0
   10.6842   -5.1968    4.3192 H   0  0  0  0  0  0  0  0  0  0  0  0
  1  2  1  0
  2  3  1  0
  3  4  2  0
  4  5  1  0
  4  6  1  0
  6  7  1  0
  6  8  2  0
  8  9  1  0
  9 10  1  0
 10 11  1  0
 11 12  2  0
 11 13  1  0
 13 14  1  6
 14 15  2  0
 15 16  1  0
 15 17  1  0
 17 18  1  0
 17 19  2  0
 19 20  1  0
 19 21  1  0
 21 22  1  0
 21 23  2  0
 23 24  1  0
 13 25  1  0
 25 26  2  0
 26 27  1  0
 26 28  1  0
 28 29  1  0
 28 30  2  0
 30 31  1  0
 30 32  1  0
 32 33  1  0
 33 34  2  0
 34 35  1  0
 34 36  1  0
 36 37  2  0
 37 38  1  0
 37 39  1  0
 39 40  1  0
 39 41  2  0
 41 42  1  0
 32 43  2  0
 43 44  1  0
 13 45  1  0
 45 46  1  0
 45 47  2  0
 47 48  1  0
 48 49  1  0
 48 50  1  0
  8 51  1  0
 51 52  1  0
 51 53  2  0
 53 54  1  0
 53  3  1  0
 47 10  1  0
 23 14  1  0
 43 25  1  0
 41 33  1  0
M  CHG  1  45   1
M  END
>  <score>  (227) 
5.58446

$$$$

     RDKit          3D

 57 61  0  0  0  0  0  0  0  0999 V2000
   15.5682    5.3709   -1.3882 H   0  0  0  0  0  0  0  0  0  0  0  0
   15.5844    4.3017   -1.5964 C   0  0  0  0  0  0  0  0  0  0  0  0
   15.8193    3.8798   -2.8488 N   0  0  0  0  0  0  0  0  0  0  0  0
   15.8652    2.5520   -3.0879 C   0  0  0  0  0  0  0  0  0  0  0  0
   16.0474    2.2242   -4.1055 H   0  0  0  0  0  0  0  0  0  0  0  0
   15.6862    1.5705   -2.0960 C   0  0  0  0  0  0  0  0  0  0  0  0
   15.7712    0.1179   -2.4098 C   0  0  0  0  0  0  0  0  0  0  0  0
   16.3450   -0.3220   -3.6115 C   0  0  0  0  0  0  0  0  0  0  0  0
   16.7243    0.4090   -4.3191 H   0  0  0  0  0  0  0  0  0  0  0  0
   16.4316   -1.6896   -3.9084 C   0  0  0  0  0  0  0  0  0  0  0  0
   16.8649   -2.0068   -4.8519 H   0  0  0  0  0  0  0  0  0  0  0  0
   15.9456   -2.6453   -3.0052 C   0  0  0  0  0  0  0  0  0  0  0  0
   16.0046   -3.7018   -3.2564 H   0  0  0  0  0  0  0  0  0  0  0  0
   15.3789   -2.2466   -1.7822 C   0  0  0  0  0  0  0  0  0  0  0  0
   14.8136   -3.2587   -0.7808 C   0  0  2  0  0  0  0  0  0  0  0  0
   15.1737   -4.7196   -1.0759 C   0  0  0  0  0  0  0  0  0  0  0  0
   16.3926   -5.2397   -0.6107 C   0  0  0  0  0  0  0  0  0  0  0  0
   17.0670   -4.5869   -0.0641 H   0  0  0  0  0  0  0  0  0  0  0  0
   16.7311   -6.5825   -0.8038 C   0  0  0  0  0  0  0  0  0  0  0  0
   17.6728   -6.9572   -0.4161 H   0  0  0  0  0  0  0  0  0  0  0  0
   15.8545   -7.4390   -1.4735 C   0  0  0  0  0  0  0  0  0  0  0  0
   16.1196   -8.4847   -1.6117 H   0  0  0  0  0  0  0  0  0  0  0  0
   14.6433   -6.9396   -1.9622 C   0  0  0  0  0  0  0  0  0  0  0  0
   13.9709   -7.6108   -2.4883 H   0  0  0  0  0  0  0  0  0  0  0  0
   14.3035   -5.5896   -1.7691 C   0  0  0  0  0  0  0  0  0  0  0  0
   13.3532   -5.2298   -2.1535 H   0  0  0  0  0  0  0  0  0  0  0  0
   13.2981   -3.0332   -0.6019 C   0  0  0  0  0  0  0  0  0  0  0  0
   12.4659   -3.0995   -1.5093 O   0  0  0  0  0  0  0  0  0  0  0  0
   13.0218   -2.6444    0.7032 N   0  0  0  0  0  0  0  0  0  0  0  0
   11.7959   -2.0379    1.1932 N   0  0  0  0  0  0  0  0  0  0  0  0
   11.8190   -1.1608    1.7247 H   0  0  0  0  0  0  0  0  0  0  0  0
   10.5373   -2.5421    0.9192 C   0  0  0  0  0  0  0  0  0  0  0  0
   10.3431   -3.8782    0.5765 C   0  0  0  0  0  0  0  0  0  0  0  0
   11.2087   -4.5259    0.5341 H   0  0  0  0  0  0  0  0  0  0  0  0
    9.0583   -4.3658    0.3247 C   0  0  0  0  0  0  0  0  0  0  0  0
    8.9109   -5.4104    0.0807 H   0  0  0  0  0  0  0  0  0  0  0  0
    7.9570   -3.5093    0.3945 C   0  0  0  0  0  0  0  0  0  0  0  0
    6.5662   -4.0337    0.1471 C   0  0  0  0  0  0  0  0  0  0  0  0
    5.9221   -3.2506   -0.2644 H   0  0  0  0  0  0  0  0  0  0  0  0
    6.5894   -4.8691   -0.5593 H   0  0  0  0  0  0  0  0  0  0  0  0
    6.1242   -4.3907    1.0825 H   0  0  0  0  0  0  0  0  0  0  0  0
    8.1709   -2.1626    0.7134 C   0  0  0  0  0  0  0  0  0  0  0  0
    7.3483   -1.4693    0.7235 H   0  0  0  0  0  0  0  0  0  0  0  0
    9.4478   -1.6808    1.0001 C   0  0  0  0  0  0  0  0  0  0  0  0
    9.6028   -0.6355    1.2564 H   0  0  0  0  0  0  0  0  0  0  0  0
   14.2384   -2.6288    1.3654 C   0  0  0  0  0  0  0  0  0  0  0  0
   14.4178   -2.3194    2.6876 N   0  0  0  0  0  0  0  0  0  0  0  0
   15.3516   -2.3451    3.0983 H   0  0  0  0  0  0  0  0  0  0  0  0
   13.5975   -2.1746    3.2739 H   0  0  0  0  0  0  0  0  0  0  0  0
   15.2349   -2.9247    0.5967 N   0  0  0  0  0  4  0  0  0  0  0  0
   16.2101   -2.9213    0.9007 H   0  0  0  0  0  0  0  0  0  0  0  0
   15.2981   -0.8603   -1.5128 C   0  0  0  0  0  0  0  0  0  0  0  0
   14.8673   -0.5288   -0.5749 H   0  0  0  0  0  0  0  0  0  0  0  0
   15.4350    2.0241   -0.7975 C   0  0  0  0  0  0  0  0  0  0  0  0
   15.3008    1.3052    0.0022 H   0  0  0  0  0  0  0  0  0  0  0  0
   15.3732    3.4004   -0.5511 C   0  0  0  0  0  0  0  0  0  0  0  0
   15.1688    3.7870    0.4414 H   0  0  0  0  0  0  0  0  0  0  0  0
  1  2  1  0
  2  3  2  0
  3  4  1  0
  4  5  1  0
  4  6  2  0
  6  7  1  0
  7  8  2  0
  8  9  1  0
  8 10  1  0
 10 11  1  0
 10 12  2  0
 12 13  1  0
 12 14  1  0
 15 14  1  6
 15 16  1  0
 16 17  2  0
 17 18  1  0
 17 19  1  0
 19 20  1  0
 19 21  2  0
 21 22  1  0
 21 23  1  0
 23 24  1  0
 23 25  2  0
 25 26  1  0
 15 27  1  0
 27 28  2  0
 27 29  1  0
 29 30  1  0
 30 31  1  0
 30 32  1  0
 32 33  2  0
 33 34  1  0
 33 35  1  0
 35 36  1  0
 35 37  2  0
 37 38  1  0
 38 39  1  0
 38 40  1  0
 38 41  1  0
 37 42  1  0
 42 43  1  0
 42 44  2  0
 44 45  1  0
 29 46  1  0
 46 47  1  0
 47 48  1  0
 47 49  1  0
 46 50  2  0
 50 51  1  0
 14 52  2  0
 52 53  1  0
  6 54  1  0
 54 55  1  0
 54 56  2  0
 56 57  1  0
 56  2  1  0
 52  7  1  0
 50 15  1  0
 25 16  1  0
 44 32  1  0
M  CHG  1  50   1
M  END
>  <score>  (228) 
5.5819

$$$$

     RDKit          3D

 52 55  0  0  0  0  0  0  0  0999 V2000
   15.5570    5.3576   -1.3917 H   0  0  0  0  0  0  0  0  0  0  0  0
   15.5876    4.2904   -1.6038 C   0  0  0  0  0  0  0  0  0  0  0  0
   15.8211    3.8729   -2.8590 N   0  0  0  0  0  0  0  0  0  0  0  0
   15.8763    2.5454   -3.0921 C   0  0  0  0  0  0  0  0  0  0  0  0
   16.0639    2.2069   -4.1044 H   0  0  0  0  0  0  0  0  0  0  0  0
   15.6936    1.5693   -2.0989 C   0  0  0  0  0  0  0  0  0  0  0  0
   15.7756    0.1230   -2.4097 C   0  0  0  0  0  0  0  0  0  0  0  0
   16.3326   -0.3165   -3.6146 C   0  0  0  0  0  0  0  0  0  0  0  0
   16.7158    0.4252   -4.3059 H   0  0  0  0  0  0  0  0  0  0  0  0
   16.4281   -1.6842   -3.9099 C   0  0  0  0  0  0  0  0  0  0  0  0
   16.8654   -2.0025   -4.8498 H   0  0  0  0  0  0  0  0  0  0  0  0
   15.9479   -2.6376   -3.0035 C   0  0  0  0  0  0  0  0  0  0  0  0
   16.0019   -3.6974   -3.2426 H   0  0  0  0  0  0  0  0  0  0  0  0
   15.3836   -2.2305   -1.7854 C   0  0  0  0  0  0  0  0  0  0  0  0
   14.8291   -3.2373   -0.7816 C   0  0  2  0  0  0  0  0  0  0  0  0
   15.1842   -4.7033   -1.0750 C   0  0  0  0  0  0  0  0  0  0  0  0
   16.3993   -5.2289   -0.6058 C   0  0  0  0  0  0  0  0  0  0  0  0
   17.0765   -4.5790   -0.0598 H   0  0  0  0  0  0  0  0  0  0  0  0
   16.7375   -6.5733   -0.8037 C   0  0  0  0  0  0  0  0  0  0  0  0
   17.6740   -6.9598   -0.4123 H   0  0  0  0  0  0  0  0  0  0  0  0
   15.8584   -7.4252   -1.4779 C   0  0  0  0  0  0  0  0  0  0  0  0
   16.1092   -8.4738   -1.6143 H   0  0  0  0  0  0  0  0  0  0  0  0
   14.6467   -6.9241   -1.9637 C   0  0  0  0  0  0  0  0  0  0  0  0
   13.9644   -7.5889   -2.4872 H   0  0  0  0  0  0  0  0  0  0  0  0
   14.3132   -5.5724   -1.7674 C   0  0  0  0  0  0  0  0  0  0  0  0
   13.3602   -5.2033   -2.1343 H   0  0  0  0  0  0  0  0  0  0  0  0
   13.3147   -3.0175   -0.6113 C   0  0  0  0  0  0  0  0  0  0  0  0
   12.5004   -3.1602   -1.5253 O   0  0  0  0  0  0  0  0  0  0  0  0
   13.0360   -2.6112    0.6936 N   0  0  0  0  0  0  0  0  0  0  0  0
   11.7353   -2.6063    1.3291 N   0  0  0  0  0  0  0  0  0  0  0  0
   11.6310   -1.8524    2.0252 H   0  0  0  0  0  0  0  0  0  0  0  0
   11.4054   -3.9317    1.9047 C   0  0  0  0  0  0  0  0  0  0  0  0
   11.5556   -4.7052    1.1412 H   0  0  0  0  0  0  0  0  0  0  0  0
   12.0656   -4.1558    2.7533 H   0  0  0  0  0  0  0  0  0  0  0  0
    9.9578   -3.9922    2.3680 C   0  0  0  0  0  0  0  0  0  0  0  0
    9.3016   -3.7825    1.5143 H   0  0  0  0  0  0  0  0  0  0  0  0
    9.7932   -3.2126    3.1216 H   0  0  0  0  0  0  0  0  0  0  0  0
    9.6709   -5.3342    2.9291 N   0  0  0  0  0  0  0  0  0  0  0  0
   10.2616   -5.5228    3.7393 H   0  0  0  0  0  0  0  0  0  0  0  0
    9.7980   -6.0610    2.2252 H   0  0  0  0  0  0  0  0  0  0  0  0
   14.2659   -2.6011    1.3543 C   0  0  0  0  0  0  0  0  0  0  0  0
   14.4450   -2.3496    2.6856 N   0  0  0  0  0  0  0  0  0  0  0  0
   15.3868   -2.3462    3.0848 H   0  0  0  0  0  0  0  0  0  0  0  0
   13.6363   -2.1253    3.2618 H   0  0  0  0  0  0  0  0  0  0  0  0
   15.2671   -2.8879    0.5851 N   0  0  0  0  0  4  0  0  0  0  0  0
   16.2377   -2.9545    0.9060 H   0  0  0  0  0  0  0  0  0  0  0  0
   15.3088   -0.8474   -1.5074 C   0  0  0  0  0  0  0  0  0  0  0  0
   14.8659   -0.5148   -0.5744 H   0  0  0  0  0  0  0  0  0  0  0  0
   15.4427    2.0141   -0.8013 C   0  0  0  0  0  0  0  0  0  0  0  0
   15.3279    1.2819   -0.0094 H   0  0  0  0  0  0  0  0  0  0  0  0
   15.3823    3.3897   -0.5549 C   0  0  0  0  0  0  0  0  0  0  0  0
   15.1768    3.7751    0.4381 H   0  0  0  0  0  0  0  0  0  0  0  0
  1  2  1  0
  2  3  2  0
  3  4  1  0
  4  5  1  0
  4  6  2  0
  6  7  1  0
  7  8  2  0
  8  9  1  0
  8 10  1  0
 10 11  1  0
 10 12  2  0
 12 13  1  0
 12 14  1  0
 15 14  1  6
 15 16  1  0
 16 17  2  0
 17 18  1  0
 17 19  1  0
 19 20  1  0
 19 21  2  0
 21 22  1  0
 21 23  1  0
 23 24  1  0
 23 25  2  0
 25 26  1  0
 15 27  1  0
 27 28  2  0
 27 29  1  0
 29 30  1  0
 30 31  1  0
 30 32  1  0
 32 33  1  0
 32 34  1  0
 32 35  1  0
 35 36  1  0
 35 37  1  0
 35 38  1  0
 38 39  1  0
 38 40  1  0
 29 41  1  0
 41 42  1  0
 42 43  1  0
 42 44  1  0
 41 45  2  0
 45 46  1  0
 14 47  2  0
 47 48  1  0
  6 49  1  0
 49 50  1  0
 49 51  2  0
 51 52  1  0
 51  2  1  0
 47  7  1  0
 45 15  1  0
 25 16  1  0
M  CHG  1  45   1
M  END
>  <score>  (229) 
5.58053

$$$$

     RDKit          3D

 52 56  0  0  0  0  0  0  0  0999 V2000
   15.5447    5.3427   -1.3973 H   0  0  0  0  0  0  0  0  0  0  0  0
   15.5855    4.2765   -1.6100 C   0  0  0  0  0  0  0  0  0  0  0  0
   15.8243    3.8633   -2.8653 N   0  0  0  0  0  0  0  0  0  0  0  0
   15.8867    2.5362   -3.0983 C   0  0  0  0  0  0  0  0  0  0  0  0
   16.0883    2.1830   -4.1054 H   0  0  0  0  0  0  0  0  0  0  0  0
   15.7055    1.5670   -2.1005 C   0  0  0  0  0  0  0  0  0  0  0  0
   15.7756    0.1257   -2.4011 C   0  0  0  0  0  0  0  0  0  0  0  0
   16.3287   -0.3137   -3.6034 C   0  0  0  0  0  0  0  0  0  0  0  0
   16.6989    0.4408   -4.2906 H   0  0  0  0  0  0  0  0  0  0  0  0
   16.4169   -1.6808   -3.8951 C   0  0  0  0  0  0  0  0  0  0  0  0
   16.8589   -2.0053   -4.8313 H   0  0  0  0  0  0  0  0  0  0  0  0
   15.9341   -2.6264   -2.9796 C   0  0  0  0  0  0  0  0  0  0  0  0
   15.9873   -3.6884   -3.2114 H   0  0  0  0  0  0  0  0  0  0  0  0
   15.3726   -2.2171   -1.7583 C   0  0  0  0  0  0  0  0  0  0  0  0
   14.7905   -3.2228   -0.7678 C   0  0  2  0  0  0  0  0  0  0  0  0
   15.1662   -4.6802   -1.0670 C   0  0  0  0  0  0  0  0  0  0  0  0
   16.3888   -5.2034   -0.6051 C   0  0  0  0  0  0  0  0  0  0  0  0
   17.0625   -4.5544   -0.0523 H   0  0  0  0  0  0  0  0  0  0  0  0
   16.7292   -6.5490   -0.8042 C   0  0  0  0  0  0  0  0  0  0  0  0
   17.6632   -6.9441   -0.4137 H   0  0  0  0  0  0  0  0  0  0  0  0
   15.8527   -7.3972   -1.4845 C   0  0  0  0  0  0  0  0  0  0  0  0
   16.0990   -8.4487   -1.6170 H   0  0  0  0  0  0  0  0  0  0  0  0
   14.6418   -6.8944   -1.9671 C   0  0  0  0  0  0  0  0  0  0  0  0
   13.9612   -7.5614   -2.4874 H   0  0  0  0  0  0  0  0  0  0  0  0
   14.2996   -5.5472   -1.7588 C   0  0  0  0  0  0  0  0  0  0  0  0
   13.3451   -5.1721   -2.1149 H   0  0  0  0  0  0  0  0  0  0  0  0
   13.2692   -2.9822   -0.6077 C   0  0  0  0  0  0  0  0  0  0  0  0
   12.3896   -3.1219   -1.4560 O   0  0  0  0  0  0  0  0  0  0  0  0
   13.0111   -2.7066    0.7058 N   0  0  0  0  0  0  0  0  0  0  0  0
   11.7506   -2.5951    1.2130 C   0  0  0  0  0  0  0  0  0  0  0  0
   10.7267   -2.2362    0.4878 N   0  0  0  0  0  0  0  0  0  0  0  0
    9.6682   -2.2844    1.3387 N   0  0  0  0  0  0  0  0  0  0  0  0
    8.3204   -1.8625    0.9941 C   0  0  0  0  0  0  0  0  0  0  0  0
    7.7681   -2.7252    0.6132 H   0  0  0  0  0  0  0  0  0  0  0  0
    7.8563   -1.4815    1.9042 H   0  0  0  0  0  0  0  0  0  0  0  0
    8.3299   -1.0678    0.2360 H   0  0  0  0  0  0  0  0  0  0  0  0
   10.0208   -2.7897    2.5796 C   0  0  0  0  0  0  0  0  0  0  0  0
    9.3568   -3.0138    3.4040 H   0  0  0  0  0  0  0  0  0  0  0  0
   11.3609   -2.9815    2.5332 C   0  0  0  0  0  0  0  0  0  0  0  0
   12.0053   -3.4081    3.2894 H   0  0  0  0  0  0  0  0  0  0  0  0
   14.1819   -2.7077    1.4027 C   0  0  0  0  0  0  0  0  0  0  0  0
   14.3577   -2.4564    2.7353 N   0  0  0  0  0  0  0  0  0  0  0  0
   13.6045   -1.9877    3.2361 H   0  0  0  0  0  0  0  0  0  0  0  0
   15.3182   -2.3079    3.0482 H   0  0  0  0  0  0  0  0  0  0  0  0
   15.1885   -2.9317    0.6313 N   0  0  0  0  0  4  0  0  0  0  0  0
   16.1549   -2.9686    0.9625 H   0  0  0  0  0  0  0  0  0  0  0  0
   15.3027   -0.8333   -1.4918 C   0  0  0  0  0  0  0  0  0  0  0  0
   14.8663   -0.4808   -0.5624 H   0  0  0  0  0  0  0  0  0  0  0  0
   15.4642    2.0034   -0.8034 C   0  0  0  0  0  0  0  0  0  0  0  0
   15.3596    1.2512   -0.0264 H   0  0  0  0  0  0  0  0  0  0  0  0
   15.3920    3.3760   -0.5605 C   0  0  0  0  0  0  0  0  0  0  0  0
   15.1881    3.7620    0.4303 H   0  0  0  0  0  0  0  0  0  0  0  0
  1  2  1  0
  2  3  2  0
  3  4  1  0
  4  5  1  0
  4  6  2  0
  6  7  1  0
  7  8  2  0
  8  9  1  0
  8 10  1  0
 10 11  1  0
 10 12  2  0
 12 13  1  0
 12 14  1  0
 15 14  1  6
 15 16  1  0
 16 17  2  0
 17 18  1  0
 17 19  1  0
 19 20  1  0
 19 21  2  0
 21 22  1  0
 21 23  1  0
 23 24  1  0
 23 25  2  0
 25 26  1  0
 15 27  1  0
 27 28  2  0
 27 29  1  0
 29 30  1  0
 30 31  2  0
 31 32  1  0
 32 33  1  0
 33 34  1  0
 33 35  1  0
 33 36  1  0
 32 37  1  0
 37 38  1  0
 37 39  2  0
 39 40  1  0
 29 41  1  0
 41 42  1  0
 42 43  1  0
 42 44  1  0
 41 45  2  0
 45 46  1  0
 14 47  2  0
 47 48  1  0
  6 49  1  0
 49 50  1  0
 49 51  2  0
 51 52  1  0
 51  2  1  0
 47  7  1  0
 45 15  1  0
 25 16  1  0
 39 30  1  0
M  CHG  1  45   1
M  END
>  <score>  (230) 
5.58046

$$$$

     RDKit          3D

 51 55  0  0  0  0  0  0  0  0999 V2000
   15.5381    5.3290   -1.4086 H   0  0  0  0  0  0  0  0  0  0  0  0
   15.5839    4.2639   -1.6116 C   0  0  0  0  0  0  0  0  0  0  0  0
   15.8343    3.8524   -2.8637 N   0  0  0  0  0  0  0  0  0  0  0  0
   15.8901    2.5279   -3.0983 C   0  0  0  0  0  0  0  0  0  0  0  0
   16.0906    2.1952   -4.1123 H   0  0  0  0  0  0  0  0  0  0  0  0
   15.7025    1.5577   -2.0973 C   0  0  0  0  0  0  0  0  0  0  0  0
   15.7755    0.1164   -2.3972 C   0  0  0  0  0  0  0  0  0  0  0  0
   16.3285   -0.3159   -3.6063 C   0  0  0  0  0  0  0  0  0  0  0  0
   16.7007    0.4254   -4.3071 H   0  0  0  0  0  0  0  0  0  0  0  0
   16.4105   -1.6801   -3.9025 C   0  0  0  0  0  0  0  0  0  0  0  0
   16.8582   -1.9980   -4.8390 H   0  0  0  0  0  0  0  0  0  0  0  0
   15.9384   -2.6272   -2.9842 C   0  0  0  0  0  0  0  0  0  0  0  0
   16.0046   -3.6833   -3.2232 H   0  0  0  0  0  0  0  0  0  0  0  0
   15.3919   -2.2317   -1.7524 C   0  0  0  0  0  0  0  0  0  0  0  0
   14.8385   -3.2536   -0.7588 C   0  0  2  0  0  0  0  0  0  0  0  0
   15.2049   -4.7005   -1.0653 C   0  0  0  0  0  0  0  0  0  0  0  0
   16.4221   -5.2272   -0.6074 C   0  0  0  0  0  0  0  0  0  0  0  0
   17.1008   -4.5804   -0.0591 H   0  0  0  0  0  0  0  0  0  0  0  0
   16.7469   -6.5722   -0.8062 C   0  0  0  0  0  0  0  0  0  0  0  0
   17.6813   -6.9622   -0.4127 H   0  0  0  0  0  0  0  0  0  0  0  0
   15.8593   -7.4106   -1.4881 C   0  0  0  0  0  0  0  0  0  0  0  0
   16.1017   -8.4606   -1.6243 H   0  0  0  0  0  0  0  0  0  0  0  0
   14.6515   -6.8972   -1.9737 C   0  0  0  0  0  0  0  0  0  0  0  0
   13.9568   -7.5549   -2.4885 H   0  0  0  0  0  0  0  0  0  0  0  0
   14.3252   -5.5502   -1.7627 C   0  0  0  0  0  0  0  0  0  0  0  0
   13.3719   -5.1715   -2.1199 H   0  0  0  0  0  0  0  0  0  0  0  0
   13.3209   -3.0622   -0.5975 C   0  0  0  0  0  0  0  0  0  0  0  0
   12.5084   -3.1388   -1.5232 O   0  0  0  0  0  0  0  0  0  0  0  0
   13.0210   -2.7217    0.7191 N   0  0  0  0  0  0  0  0  0  0  0  0
   11.7836   -2.1009    1.1537 N   0  0  0  0  0  0  0  0  0  0  0  0
   11.4745   -2.4255    2.0788 H   0  0  0  0  0  0  0  0  0  0  0  0
   11.8248   -0.6333    1.1060 C   0  0  0  0  0  0  0  0  0  0  0  0
   12.5068   -0.1603    1.8138 H   0  0  0  0  0  0  0  0  0  0  0  0
   11.7144    0.0347   -0.2492 C   0  0  0  0  0  0  0  0  0  0  0  0
   12.3537    0.9067   -0.4051 H   0  0  0  0  0  0  0  0  0  0  0  0
   11.5569   -0.6000   -1.1237 H   0  0  0  0  0  0  0  0  0  0  0  0
   10.5799    0.1612    0.7601 C   0  0  0  0  0  0  0  0  0  0  0  0
   10.4640    1.1326    1.2499 H   0  0  0  0  0  0  0  0  0  0  0  0
    9.6571   -0.4065    0.6185 H   0  0  0  0  0  0  0  0  0  0  0  0
   14.2469   -2.6418    1.3753 C   0  0  0  0  0  0  0  0  0  0  0  0
   14.4643   -2.2693    2.6731 N   0  0  0  0  0  0  0  0  0  0  0  0
   15.4089   -2.3508    3.0479 H   0  0  0  0  0  0  0  0  0  0  0  0
   13.6702   -2.1474    3.2985 H   0  0  0  0  0  0  0  0  0  0  0  0
   15.2500   -2.9396    0.6214 N   0  0  0  0  0  4  0  0  0  0  0  0
   16.2216   -2.9639    0.9378 H   0  0  0  0  0  0  0  0  0  0  0  0
   15.3056   -0.8486   -1.4857 C   0  0  0  0  0  0  0  0  0  0  0  0
   14.8626   -0.5080   -0.5548 H   0  0  0  0  0  0  0  0  0  0  0  0
   15.4615    1.9971   -0.7978 C   0  0  0  0  0  0  0  0  0  0  0  0
   15.3553    1.2673   -0.0014 H   0  0  0  0  0  0  0  0  0  0  0  0
   15.3899    3.3677   -0.5589 C   0  0  0  0  0  0  0  0  0  0  0  0
   15.1997    3.7488    0.4363 H   0  0  0  0  0  0  0  0  0  0  0  0
  1  2  1  0
  2  3  2  0
  3  4  1  0
  4  5  1  0
  4  6  2  0
  6  7  1  0
  7  8  2  0
  8  9  1  0
  8 10  1  0
 10 11  1  0
 10 12  2  0
 12 13  1  0
 12 14  1  0
 15 14  1  6
 15 16  1  0
 16 17  2  0
 17 18  1  0
 17 19  1  0
 19 20  1  0
 19 21  2  0
 21 22  1  0
 21 23  1  0
 23 24  1  0
 23 25  2  0
 25 26  1  0
 15 27  1  0
 27 28  2  0
 27 29  1  0
 29 30  1  0
 30 31  1  0
 30 32  1  0
 32 33  1  0
 32 34  1  0
 34 35  1  0
 34 36  1  0
 34 37  1  0
 37 38  1  0
 37 39  1  0
 29 40  1  0
 40 41  1  0
 41 42  1  0
 41 43  1  0
 40 44  2  0
 44 45  1  0
 14 46  2  0
 46 47  1  0
  6 48  1  0
 48 49  1  0
 48 50  2  0
 50 51  1  0
 50  2  1  0
 46  7  1  0
 44 15  1  0
 25 16  1  0
 37 32  1  0
M  CHG  1  44   1
M  END
>  <score>  (231) 
5.57856

$$$$

     RDKit          3D

 49 52  0  0  0  0  0  0  0  0999 V2000
   12.2759    0.0604    1.9288 H   0  0  0  0  0  0  0  0  0  0  0  0
   11.7343    0.0610    0.9837 C   0  0  0  0  0  0  0  0  0  0  0  0
   11.5615    1.0151    0.4891 H   0  0  0  0  0  0  0  0  0  0  0  0
   11.3635   -1.1320    0.4126 C   0  0  0  0  0  0  0  0  0  0  0  0
   10.8947   -1.1661   -0.5722 H   0  0  0  0  0  0  0  0  0  0  0  0
   11.6358   -2.4301    1.1124 C   0  0  0  0  0  0  0  0  0  0  0  0
   10.8922   -3.1831    0.8212 H   0  0  0  0  0  0  0  0  0  0  0  0
   11.6070   -2.3267    2.2086 H   0  0  0  0  0  0  0  0  0  0  0  0
   12.9588   -2.8164    0.6752 N   0  0  0  0  0  0  0  0  0  0  0  0
   13.2900   -3.0947   -0.6305 C   0  0  0  0  0  0  0  0  0  0  0  0
   12.4682   -3.1726   -1.5426 O   0  0  0  0  0  0  0  0  0  0  0  0
   14.8131   -3.2368   -0.7640 C   0  0  1  0  0  0  0  0  0  0  0  0
   15.2030   -4.6786   -1.0508 C   0  0  0  0  0  0  0  0  0  0  0  0
   16.4215   -5.2007   -0.5879 C   0  0  0  0  0  0  0  0  0  0  0  0
   17.1172   -4.5628   -0.0483 H   0  0  0  0  0  0  0  0  0  0  0  0
   16.7471   -6.5442   -0.7985 C   0  0  0  0  0  0  0  0  0  0  0  0
   17.6857   -6.9375   -0.4197 H   0  0  0  0  0  0  0  0  0  0  0  0
   15.8593   -7.3819   -1.4816 C   0  0  0  0  0  0  0  0  0  0  0  0
   16.1052   -8.4271   -1.6401 H   0  0  0  0  0  0  0  0  0  0  0  0
   14.6491   -6.8715   -1.9604 C   0  0  0  0  0  0  0  0  0  0  0  0
   13.9557   -7.5104   -2.4989 H   0  0  0  0  0  0  0  0  0  0  0  0
   14.3267   -5.5279   -1.7502 C   0  0  0  0  0  0  0  0  0  0  0  0
   13.3803   -5.1418   -2.1174 H   0  0  0  0  0  0  0  0  0  0  0  0
   15.3790   -2.2232   -1.7577 C   0  0  0  0  0  0  0  0  0  0  0  0
   15.9438   -2.6293   -2.9778 C   0  0  0  0  0  0  0  0  0  0  0  0
   15.9988   -3.6862   -3.2190 H   0  0  0  0  0  0  0  0  0  0  0  0
   16.4186   -1.6873   -3.8956 C   0  0  0  0  0  0  0  0  0  0  0  0
   16.8407   -2.0069   -4.8417 H   0  0  0  0  0  0  0  0  0  0  0  0
   16.3315   -0.3246   -3.6106 C   0  0  0  0  0  0  0  0  0  0  0  0
   16.7042    0.3996   -4.3273 H   0  0  0  0  0  0  0  0  0  0  0  0
   15.7910    0.1142   -2.3962 C   0  0  0  0  0  0  0  0  0  0  0  0
   15.7242    1.5507   -2.0913 C   0  0  0  0  0  0  0  0  0  0  0  0
   15.9096    2.5178   -3.0942 C   0  0  0  0  0  0  0  0  0  0  0  0
   16.1038    2.1921   -4.1117 H   0  0  0  0  0  0  0  0  0  0  0  0
   15.8364    3.8412   -2.8658 N   0  0  0  0  0  0  0  0  0  0  0  0
   15.5912    4.2569   -1.6136 C   0  0  0  0  0  0  0  0  0  0  0  0
   15.5245    5.3234   -1.4198 H   0  0  0  0  0  0  0  0  0  0  0  0
   15.4124    3.3626   -0.5548 C   0  0  0  0  0  0  0  0  0  0  0  0
   15.2182    3.7335    0.4445 H   0  0  0  0  0  0  0  0  0  0  0  0
   15.4808    1.9931   -0.7900 C   0  0  0  0  0  0  0  0  0  0  0  0
   15.3738    1.2815    0.0233 H   0  0  0  0  0  0  0  0  0  0  0  0
   15.3151   -0.8433   -1.4835 C   0  0  0  0  0  0  0  0  0  0  0  0
   14.8738   -0.5068   -0.5491 H   0  0  0  0  0  0  0  0  0  0  0  0
   15.1745   -2.8955    0.6258 N   0  0  0  0  0  4  0  0  0  0  0  0
   16.1293   -2.9109    0.9864 H   0  0  0  0  0  0  0  0  0  0  0  0
   14.1438   -2.6261    1.3463 C   0  0  0  0  0  0  0  0  0  0  0  0
   14.3329   -2.1979    2.6237 N   0  0  0  0  0  0  0  0  0  0  0  0
   13.5318   -2.1626    3.2480 H   0  0  0  0  0  0  0  0  0  0  0  0
   15.2675   -2.3127    3.0094 H   0  0  0  0  0  0  0  0  0  0  0  0
  1  2  1  0
  2  3  1  0
  2  4  2  0
  4  5  1  0
  4  6  1  0
  6  7  1  0
  6  8  1  0
  6  9  1  0
  9 10  1  0
 10 11  2  0
 10 12  1  0
 12 13  1  6
 13 14  2  0
 14 15  1  0
 14 16  1  0
 16 17  1  0
 16 18  2  0
 18 19  1  0
 18 20  1  0
 20 21  1  0
 20 22  2  0
 22 23  1  0
 12 24  1  0
 24 25  2  0
 25 26  1  0
 25 27  1  0
 27 28  1  0
 27 29  2  0
 29 30  1  0
 29 31  1  0
 31 32  1  0
 32 33  2  0
 33 34  1  0
 33 35  1  0
 35 36  2  0
 36 37  1  0
 36 38  1  0
 38 39  1  0
 38 40  2  0
 40 41  1  0
 31 42  2  0
 42 43  1  0
 12 44  1  0
 44 45  1  0
 44 46  2  0
 46 47  1  0
 47 48  1  0
 47 49  1  0
 46  9  1  0
 22 13  1  0
 42 24  1  0
 40 32  1  0
M  CHG  1  44   1
M  END
>  <score>  (232) 
5.57758

$$$$

     RDKit          3D

 49 53  0  0  0  0  0  0  0  0999 V2000
   15.5486    5.3461   -1.3967 H   0  0  0  0  0  0  0  0  0  0  0  0
   15.5861    4.2800   -1.6073 C   0  0  0  0  0  0  0  0  0  0  0  0
   15.8240    3.8652   -2.8616 N   0  0  0  0  0  0  0  0  0  0  0  0
   15.8829    2.5388   -3.0961 C   0  0  0  0  0  0  0  0  0  0  0  0
   16.0805    2.1921   -4.1060 H   0  0  0  0  0  0  0  0  0  0  0  0
   15.7015    1.5674   -2.0986 C   0  0  0  0  0  0  0  0  0  0  0  0
   15.7729    0.1228   -2.4040 C   0  0  0  0  0  0  0  0  0  0  0  0
   16.3304   -0.3159   -3.6075 C   0  0  0  0  0  0  0  0  0  0  0  0
   16.7040    0.4365   -4.2958 H   0  0  0  0  0  0  0  0  0  0  0  0
   16.4177   -1.6831   -3.9010 C   0  0  0  0  0  0  0  0  0  0  0  0
   16.8622   -2.0030   -4.8369 H   0  0  0  0  0  0  0  0  0  0  0  0
   15.9331   -2.6316   -2.9902 C   0  0  0  0  0  0  0  0  0  0  0  0
   15.9942   -3.6907   -3.2245 H   0  0  0  0  0  0  0  0  0  0  0  0
   15.3656   -2.2262   -1.7706 C   0  0  0  0  0  0  0  0  0  0  0  0
   14.8015   -3.2351   -0.7714 C   0  0  2  0  0  0  0  0  0  0  0  0
   15.1792   -4.6916   -1.0659 C   0  0  0  0  0  0  0  0  0  0  0  0
   16.3993   -5.2151   -0.6044 C   0  0  0  0  0  0  0  0  0  0  0  0
   17.0739   -4.5659   -0.0537 H   0  0  0  0  0  0  0  0  0  0  0  0
   16.7361   -6.5614   -0.8029 C   0  0  0  0  0  0  0  0  0  0  0  0
   17.6704   -6.9536   -0.4124 H   0  0  0  0  0  0  0  0  0  0  0  0
   15.8571   -7.4095   -1.4829 C   0  0  0  0  0  0  0  0  0  0  0  0
   16.1028   -8.4605   -1.6161 H   0  0  0  0  0  0  0  0  0  0  0  0
   14.6467   -6.9066   -1.9676 C   0  0  0  0  0  0  0  0  0  0  0  0
   13.9618   -7.5715   -2.4872 H   0  0  0  0  0  0  0  0  0  0  0  0
   14.3108   -5.5578   -1.7615 C   0  0  0  0  0  0  0  0  0  0  0  0
   13.3571   -5.1843   -2.1210 H   0  0  0  0  0  0  0  0  0  0  0  0
   13.2804   -3.0469   -0.5935 C   0  0  0  0  0  0  0  0  0  0  0  0
   12.4138   -3.1797   -1.4591 O   0  0  0  0  0  0  0  0  0  0  0  0
   13.0347   -2.6922    0.7075 N   0  0  0  0  0  0  0  0  0  0  0  0
   11.7525   -2.6849    1.2940 N   0  0  0  0  0  0  0  0  0  0  0  0
   10.6771   -2.1472    0.6740 N   0  0  0  0  0  0  0  0  0  0  0  0
    9.6569   -2.3928    1.4618 C   0  0  0  0  0  0  0  0  0  0  0  0
    8.6363   -2.0802    1.2563 H   0  0  0  0  0  0  0  0  0  0  0  0
   10.0850   -3.1356    2.6267 C   0  0  0  0  0  0  0  0  0  0  0  0
    9.4712   -3.4826    3.4474 H   0  0  0  0  0  0  0  0  0  0  0  0
   11.4248   -3.2977    2.4848 C   0  0  0  0  0  0  0  0  0  0  0  0
   12.1199   -3.7887    3.1518 H   0  0  0  0  0  0  0  0  0  0  0  0
   14.2239   -2.6392    1.3819 C   0  0  0  0  0  0  0  0  0  0  0  0
   14.3947   -2.3863    2.7140 N   0  0  0  0  0  0  0  0  0  0  0  0
   13.6192   -2.0038    3.2541 H   0  0  0  0  0  0  0  0  0  0  0  0
   15.3475   -2.3175    3.0715 H   0  0  0  0  0  0  0  0  0  0  0  0
   15.2239   -2.8911    0.6060 N   0  0  0  0  0  4  0  0  0  0  0  0
   16.1896   -2.9613    0.9339 H   0  0  0  0  0  0  0  0  0  0  0  0
   15.2971   -0.8417   -1.4997 C   0  0  0  0  0  0  0  0  0  0  0  0
   14.8641   -0.4937   -0.5670 H   0  0  0  0  0  0  0  0  0  0  0  0
   15.4562    2.0071   -0.8008 C   0  0  0  0  0  0  0  0  0  0  0  0
   15.3473    1.2602   -0.0199 H   0  0  0  0  0  0  0  0  0  0  0  0
   15.3881    3.3805   -0.5582 C   0  0  0  0  0  0  0  0  0  0  0  0
   15.1849    3.7675    0.4317 H   0  0  0  0  0  0  0  0  0  0  0  0
  1  2  1  0
  2  3  2  0
  3  4  1  0
  4  5  1  0
  4  6  2  0
  6  7  1  0
  7  8  2  0
  8  9  1  0
  8 10  1  0
 10 11  1  0
 10 12  2  0
 12 13  1  0
 12 14  1  0
 15 14  1  6
 15 16  1  0
 16 17  2  0
 17 18  1  0
 17 19  1  0
 19 20  1  0
 19 21  2  0
 21 22  1  0
 21 23  1  0
 23 24  1  0
 23 25  2  0
 25 26  1  0
 15 27  1  0
 27 28  2  0
 27 29  1  0
 29 30  1  0
 30 31  1  0
 31 32  2  0
 32 33  1  0
 32 34  1  0
 34 35  1  0
 34 36  2  0
 36 37  1  0
 29 38  1  0
 38 39  1  0
 39 40  1  0
 39 41  1  0
 38 42  2  0
 42 43  1  0
 14 44  2  0
 44 45  1  0
  6 46  1  0
 46 47  1  0
 46 48  2  0
 48 49  1  0
 48  2  1  0
 44  7  1  0
 42 15  1  0
 25 16  1  0
 36 30  1  0
M  CHG  1  42   1
M  END
>  <score>  (233) 
5.57489

$$$$

     RDKit          3D

 59 64  0  0  0  0  0  0  0  0999 V2000
   15.5514    5.3582   -1.4092 H   0  0  0  0  0  0  0  0  0  0  0  0
   15.6523    4.2967   -1.6103 C   0  0  0  0  0  0  0  0  0  0  0  0
   15.9078    3.8945   -2.8643 N   0  0  0  0  0  0  0  0  0  0  0  0
   16.0195    2.5740   -3.1013 C   0  0  0  0  0  0  0  0  0  0  0  0
   16.2130    2.2557   -4.1217 H   0  0  0  0  0  0  0  0  0  0  0  0
   15.8774    1.5992   -2.0982 C   0  0  0  0  0  0  0  0  0  0  0  0
   15.9724    0.1606   -2.3996 C   0  0  0  0  0  0  0  0  0  0  0  0
   16.4225   -0.3071   -3.6435 C   0  0  0  0  0  0  0  0  0  0  0  0
   16.7332    0.3990   -4.4067 H   0  0  0  0  0  0  0  0  0  0  0  0
   16.4713   -1.6811   -3.9101 C   0  0  0  0  0  0  0  0  0  0  0  0
   16.8111   -2.0356   -4.8774 H   0  0  0  0  0  0  0  0  0  0  0  0
   16.0585   -2.6002   -2.9408 C   0  0  0  0  0  0  0  0  0  0  0  0
   16.0630   -3.6628   -3.1640 H   0  0  0  0  0  0  0  0  0  0  0  0
   15.6063   -2.1573   -1.6904 C   0  0  0  0  0  0  0  0  0  0  0  0
   15.0280   -3.1052   -0.6591 C   0  0  2  0  0  0  0  0  0  0  0  0
   15.3072   -4.5714   -0.9662 C   0  0  0  0  0  0  0  0  0  0  0  0
   16.5113   -5.1647   -0.5587 C   0  0  0  0  0  0  0  0  0  0  0  0
   17.2380   -4.5700   -0.0143 H   0  0  0  0  0  0  0  0  0  0  0  0
   16.7824   -6.5085   -0.8366 C   0  0  0  0  0  0  0  0  0  0  0  0
   17.7161   -6.9498   -0.4979 H   0  0  0  0  0  0  0  0  0  0  0  0
   15.8485   -7.2771   -1.5404 C   0  0  0  0  0  0  0  0  0  0  0  0
   16.0509   -8.3225   -1.7542 H   0  0  0  0  0  0  0  0  0  0  0  0
   14.6463   -6.6975   -1.9617 C   0  0  0  0  0  0  0  0  0  0  0  0
   13.9151   -7.2893   -2.5049 H   0  0  0  0  0  0  0  0  0  0  0  0
   14.3795   -5.3531   -1.6772 C   0  0  0  0  0  0  0  0  0  0  0  0
   13.4432   -4.9147   -2.0085 H   0  0  0  0  0  0  0  0  0  0  0  0
   13.5301   -2.7885   -0.5080 C   0  0  0  0  0  0  0  0  0  0  0  0
   12.6350   -3.0221   -1.3210 O   0  0  0  0  0  0  0  0  0  0  0  0
   13.3046   -2.2504    0.7271 N   0  0  0  0  0  0  0  0  0  0  0  0
   12.0919   -2.4399    1.3057 C   0  0  0  0  0  0  0  0  0  0  0  0
   11.9402   -3.1903    2.3529 N   0  0  0  0  0  0  0  0  0  0  0  0
   10.5648   -3.2545    2.5191 C   0  0  0  0  0  0  0  0  0  0  0  0
    9.8577   -3.9774    3.4765 C   0  0  0  0  0  0  0  0  0  0  0  0
   10.4397   -4.5411    4.1993 H   0  0  0  0  0  0  0  0  0  0  0  0
    8.4430   -3.9611    3.4643 C   0  0  0  0  0  0  0  0  0  0  0  0
    7.6206   -4.7039    4.4401 C   0  0  0  0  0  0  0  0  0  0  0  0
    7.8335   -5.8660    4.7547 O   0  0  0  0  0  0  0  0  0  0  0  0
    6.4308   -4.1983    4.8953 N   0  0  0  0  0  0  0  0  0  0  0  0
    6.0857   -3.3276    4.5099 H   0  0  0  0  0  0  0  0  0  0  0  0
    5.7898   -4.8605    5.3299 H   0  0  0  0  0  0  0  0  0  0  0  0
    7.7910   -3.2062    2.4700 C   0  0  0  0  0  0  0  0  0  0  0  0
    6.7089   -3.2047    2.4570 H   0  0  0  0  0  0  0  0  0  0  0  0
    8.5034   -2.4993    1.4965 C   0  0  0  0  0  0  0  0  0  0  0  0
    7.9879   -1.9252    0.7358 H   0  0  0  0  0  0  0  0  0  0  0  0
    9.8947   -2.5376    1.5396 C   0  0  0  0  0  0  0  0  0  0  0  0
   10.8991   -2.0082    0.7812 N   0  0  0  0  0  0  0  0  0  0  0  0
   10.8033   -1.4125   -0.0290 H   0  0  0  0  0  0  0  0  0  0  0  0
   14.4528   -2.4140    1.4507 C   0  0  0  0  0  0  0  0  0  0  0  0
   14.5304   -2.2955    2.8097 N   0  0  0  0  0  0  0  0  0  0  0  0
   13.7275   -1.9393    3.3310 H   0  0  0  0  0  0  0  0  0  0  0  0
   15.4482   -2.3223    3.2477 H   0  0  0  0  0  0  0  0  0  0  0  0
   15.4536   -2.7586    0.7141 N   0  0  0  0  0  4  0  0  0  0  0  0
   16.3638   -3.0200    1.0978 H   0  0  0  0  0  0  0  0  0  0  0  0
   15.5746   -0.7785   -1.4395 C   0  0  0  0  0  0  0  0  0  0  0  0
   15.1957   -0.4240   -0.4861 H   0  0  0  0  0  0  0  0  0  0  0  0
   15.6253    2.0319   -0.7923 C   0  0  0  0  0  0  0  0  0  0  0  0
   15.5274    1.3153    0.0202 H   0  0  0  0  0  0  0  0  0  0  0  0
   15.5098    3.3972   -0.5541 C   0  0  0  0  0  0  0  0  0  0  0  0
   15.3116    3.7689    0.4430 H   0  0  0  0  0  0  0  0  0  0  0  0
  1  2  1  0
  2  3  2  0
  3  4  1  0
  4  5  1  0
  4  6  2  0
  6  7  1  0
  7  8  2  0
  8  9  1  0
  8 10  1  0
 10 11  1  0
 10 12  2  0
 12 13  1  0
 12 14  1  0
 15 14  1  6
 15 16  1  0
 16 17  2  0
 17 18  1  0
 17 19  1  0
 19 20  1  0
 19 21  2  0
 21 22  1  0
 21 23  1  0
 23 24  1  0
 23 25  2  0
 25 26  1  0
 15 27  1  0
 27 28  2  0
 27 29  1  0
 29 30  1  0
 30 31  2  0
 31 32  1  0
 32 33  2  0
 33 34  1  0
 33 35  1  0
 35 36  1  0
 36 37  2  0
 36 38  1  0
 38 39  1  0
 38 40  1  0
 35 41  2  0
 41 42  1  0
 41 43  1  0
 43 44  1  0
 43 45  2  0
 45 46  1  0
 46 47  1  0
 29 48  1  0
 48 49  1  0
 49 50  1  0
 49 51  1  0
 48 52  2  0
 52 53  1  0
 14 54  2  0
 54 55  1  0
  6 56  1  0
 56 57  1  0
 56 58  2  0
 58 59  1  0
 58  2  1  0
 54  7  1  0
 52 15  1  0
 25 16  1  0
 46 30  1  0
 45 32  1  0
M  CHG  1  52   1
M  END
>  <score>  (234) 
5.5732

$$$$

     RDKit          3D

 58 62  0  0  0  0  0  0  0  0999 V2000
   15.5378    5.3361   -1.4094 H   0  0  0  0  0  0  0  0  0  0  0  0
   15.6074    4.2705   -1.6087 C   0  0  0  0  0  0  0  0  0  0  0  0
   15.8515    3.8590   -2.8626 N   0  0  0  0  0  0  0  0  0  0  0  0
   15.9316    2.5351   -3.0959 C   0  0  0  0  0  0  0  0  0  0  0  0
   16.1223    2.2031   -4.1111 H   0  0  0  0  0  0  0  0  0  0  0  0
   15.7677    1.5631   -2.0973 C   0  0  0  0  0  0  0  0  0  0  0  0
   15.8508    0.1247   -2.4115 C   0  0  0  0  0  0  0  0  0  0  0  0
   16.3574   -0.3357   -3.6358 C   0  0  0  0  0  0  0  0  0  0  0  0
   16.7078    0.3788   -4.3734 H   0  0  0  0  0  0  0  0  0  0  0  0
   16.4197   -1.7081   -3.9104 C   0  0  0  0  0  0  0  0  0  0  0  0
   16.8016   -2.0507   -4.8660 H   0  0  0  0  0  0  0  0  0  0  0  0
   15.9869   -2.6355   -2.9561 C   0  0  0  0  0  0  0  0  0  0  0  0
   16.0195   -3.6989   -3.1777 H   0  0  0  0  0  0  0  0  0  0  0  0
   15.4936   -2.1980   -1.7176 C   0  0  0  0  0  0  0  0  0  0  0  0
   14.9297   -3.1498   -0.6797 C   0  0  2  0  0  0  0  0  0  0  0  0
   15.2407   -4.6143   -0.9731 C   0  0  0  0  0  0  0  0  0  0  0  0
   16.4565   -5.1721   -0.5437 C   0  0  0  0  0  0  0  0  0  0  0  0
   17.1651   -4.5503   -0.0032 H   0  0  0  0  0  0  0  0  0  0  0  0
   16.7608   -6.5129   -0.7954 C   0  0  0  0  0  0  0  0  0  0  0  0
   17.7030   -6.9230   -0.4440 H   0  0  0  0  0  0  0  0  0  0  0  0
   15.8504   -7.3145   -1.4905 C   0  0  0  0  0  0  0  0  0  0  0  0
   16.0812   -8.3584   -1.6795 H   0  0  0  0  0  0  0  0  0  0  0  0
   14.6434   -6.7692   -1.9414 C   0  0  0  0  0  0  0  0  0  0  0  0
   13.9409   -7.3888   -2.4903 H   0  0  0  0  0  0  0  0  0  0  0  0
   14.3401   -5.4249   -1.6857 C   0  0  0  0  0  0  0  0  0  0  0  0
   13.4018   -5.0082   -2.0403 H   0  0  0  0  0  0  0  0  0  0  0  0
   13.4336   -2.8216   -0.5293 C   0  0  0  0  0  0  0  0  0  0  0  0
   12.5698   -2.9036   -1.4017 O   0  0  0  0  0  0  0  0  0  0  0  0
   13.1805   -2.3608    0.7448 N   0  0  0  0  0  0  0  0  0  0  0  0
   11.8601   -2.3888    1.3643 C   0  0  0  0  0  0  0  0  0  0  0  0
   11.9153   -1.9566    2.3709 H   0  0  0  0  0  0  0  0  0  0  0  0
   11.1497   -1.7897    0.7885 H   0  0  0  0  0  0  0  0  0  0  0  0
   11.4179   -3.8279    1.4376 C   0  0  0  0  0  0  0  0  0  0  0  0
   11.1676   -4.5842    0.2822 C   0  0  0  0  0  0  0  0  0  0  0  0
   11.1308   -4.0998   -0.6855 H   0  0  0  0  0  0  0  0  0  0  0  0
   11.0417   -5.9710    0.3545 C   0  0  0  0  0  0  0  0  0  0  0  0
   10.9221   -6.5376   -0.5663 H   0  0  0  0  0  0  0  0  0  0  0  0
   11.0941   -6.6150    1.5988 C   0  0  0  0  0  0  0  0  0  0  0  0
   11.0404   -8.1210    1.6906 C   0  0  0  0  0  0  0  0  0  0  0  0
   11.9994   -8.5255    2.5627 F   0  0  0  0  0  0  0  0  0  0  0  0
   11.3040   -8.7285    0.4996 F   0  0  0  0  0  0  0  0  0  0  0  0
    9.7937   -8.4873    2.0944 F   0  0  0  0  0  0  0  0  0  0  0  0
   11.1909   -5.8337    2.7646 C   0  0  0  0  0  0  0  0  0  0  0  0
   11.1630   -6.2853    3.7498 H   0  0  0  0  0  0  0  0  0  0  0  0
   11.3735   -4.4586    2.6811 C   0  0  0  0  0  0  0  0  0  0  0  0
   11.5174   -3.8925    3.5959 H   0  0  0  0  0  0  0  0  0  0  0  0
   14.3595   -2.4850    1.4445 C   0  0  0  0  0  0  0  0  0  0  0  0
   14.4957   -2.3483    2.7920 N   0  0  0  0  0  0  0  0  0  0  0  0
   13.7141   -1.9680    3.3221 H   0  0  0  0  0  0  0  0  0  0  0  0
   15.4395   -2.2456    3.1640 H   0  0  0  0  0  0  0  0  0  0  0  0
   15.3592   -2.8226    0.6958 N   0  0  0  0  0  4  0  0  0  0  0  0
   16.2637   -3.1001    1.0833 H   0  0  0  0  0  0  0  0  0  0  0  0
   15.4116   -0.8189   -1.4762 C   0  0  0  0  0  0  0  0  0  0  0  0
   14.9736   -0.4711   -0.5453 H   0  0  0  0  0  0  0  0  0  0  0  0
   15.5262    2.0030   -0.7915 C   0  0  0  0  0  0  0  0  0  0  0  0
   15.4202    1.2880    0.0201 H   0  0  0  0  0  0  0  0  0  0  0  0
   15.4424    3.3735   -0.5514 C   0  0  0  0  0  0  0  0  0  0  0  0
   15.2538    3.7514    0.4469 H   0  0  0  0  0  0  0  0  0  0  0  0
  1  2  1  0
  2  3  2  0
  3  4  1  0
  4  5  1  0
  4  6  2  0
  6  7  1  0
  7  8  2  0
  8  9  1  0
  8 10  1  0
 10 11  1  0
 10 12  2  0
 12 13  1  0
 12 14  1  0
 15 14  1  6
 15 16  1  0
 16 17  2  0
 17 18  1  0
 17 19  1  0
 19 20  1  0
 19 21  2  0
 21 22  1  0
 21 23  1  0
 23 24  1  0
 23 25  2  0
 25 26  1  0
 15 27  1  0
 27 28  2  0
 27 29  1  0
 29 30  1  0
 30 31  1  0
 30 32  1  0
 30 33  1  0
 33 34  2  0
 34 35  1  0
 34 36  1  0
 36 37  1  0
 36 38  2  0
 38 39  1  0
 39 40  1  0
 39 41  1  0
 39 42  1  0
 38 43  1  0
 43 44  1  0
 43 45  2  0
 45 46  1  0
 29 47  1  0
 47 48  1  0
 48 49  1  0
 48 50  1  0
 47 51  2  0
 51 52  1  0
 14 53  2  0
 53 54  1  0
  6 55  1  0
 55 56  1  0
 55 57  2  0
 57 58  1  0
 57  2  1  0
 53  7  1  0
 51 15  1  0
 25 16  1  0
 45 33  1  0
M  CHG  1  51   1
M  END
>  <score>  (235) 
5.57302

$$$$

     RDKit          3D

 59 63  0  0  0  0  0  0  0  0999 V2000
   15.5297    5.3363   -1.4127 H   0  0  0  0  0  0  0  0  0  0  0  0
   15.5972    4.2702   -1.6090 C   0  0  0  0  0  0  0  0  0  0  0  0
   15.8466    3.8562   -2.8607 N   0  0  0  0  0  0  0  0  0  0  0  0
   15.9226    2.5316   -3.0918 C   0  0  0  0  0  0  0  0  0  0  0  0
   16.1163    2.2003   -4.1073 H   0  0  0  0  0  0  0  0  0  0  0  0
   15.7474    1.5607   -2.0910 C   0  0  0  0  0  0  0  0  0  0  0  0
   15.8136    0.1190   -2.4001 C   0  0  0  0  0  0  0  0  0  0  0  0
   16.3448   -0.3316   -3.6167 C   0  0  0  0  0  0  0  0  0  0  0  0
   16.7152    0.3882   -4.3410 H   0  0  0  0  0  0  0  0  0  0  0  0
   16.4125   -1.7005   -3.8969 C   0  0  0  0  0  0  0  0  0  0  0  0
   16.8353   -2.0316   -4.8411 H   0  0  0  0  0  0  0  0  0  0  0  0
   15.9389   -2.6342   -2.9642 C   0  0  0  0  0  0  0  0  0  0  0  0
   15.9963   -3.6937   -3.1949 H   0  0  0  0  0  0  0  0  0  0  0  0
   15.3924   -2.2148   -1.7370 C   0  0  0  0  0  0  0  0  0  0  0  0
   14.8189   -3.1969   -0.7150 C   0  0  2  0  0  0  0  0  0  0  0  0
   15.1929   -4.6457   -1.0100 C   0  0  0  0  0  0  0  0  0  0  0  0
   16.4188   -5.1744   -0.5705 C   0  0  0  0  0  0  0  0  0  0  0  0
   17.1172   -4.5380   -0.0328 H   0  0  0  0  0  0  0  0  0  0  0  0
   16.7419   -6.5161   -0.7994 C   0  0  0  0  0  0  0  0  0  0  0  0
   17.6862   -6.9120   -0.4377 H   0  0  0  0  0  0  0  0  0  0  0  0
   15.8469   -7.3430   -1.4860 C   0  0  0  0  0  0  0  0  0  0  0  0
   16.0914   -8.3867   -1.6566 H   0  0  0  0  0  0  0  0  0  0  0  0
   14.6376   -6.8227   -1.9565 C   0  0  0  0  0  0  0  0  0  0  0  0
   13.9440   -7.4587   -2.4984 H   0  0  0  0  0  0  0  0  0  0  0  0
   14.3158   -5.4811   -1.7237 C   0  0  0  0  0  0  0  0  0  0  0  0
   13.3727   -5.0886   -2.0906 H   0  0  0  0  0  0  0  0  0  0  0  0
   13.2970   -2.9768   -0.5560 C   0  0  0  0  0  0  0  0  0  0  0  0
   12.4211   -3.2518   -1.3751 O   0  0  0  0  0  0  0  0  0  0  0  0
   13.0140   -2.4725    0.6992 N   0  0  0  0  0  0  0  0  0  0  0  0
   11.6803   -2.5180    1.3027 C   0  0  0  0  0  0  0  0  0  0  0  0
   10.9049   -2.1814    0.6013 H   0  0  0  0  0  0  0  0  0  0  0  0
   11.6237   -1.8722    2.1868 H   0  0  0  0  0  0  0  0  0  0  0  0
   11.4897   -3.9527    1.6873 C   0  0  0  0  0  0  0  0  0  0  0  0
   11.8910   -4.3623    2.9594 C   0  0  0  0  0  0  0  0  0  0  0  0
   12.1315   -3.6289    3.7236 H   0  0  0  0  0  0  0  0  0  0  0  0
   12.0391   -5.7110    3.2338 C   0  0  0  0  0  0  0  0  0  0  0  0
   12.4486   -5.9446    4.2043 H   0  0  0  0  0  0  0  0  0  0  0  0
   11.7159   -6.6849    2.2805 C   0  0  0  0  0  0  0  0  0  0  0  0
   11.8213   -8.0252    2.5347 O   0  0  0  0  0  0  0  0  0  0  0  0
   13.0414   -8.4355    3.1607 C   0  0  0  0  0  0  0  0  0  0  0  0
   13.6713   -8.9159    2.4130 H   0  0  0  0  0  0  0  0  0  0  0  0
   12.8457   -9.1469    3.9651 H   0  0  0  0  0  0  0  0  0  0  0  0
   13.5871   -7.6013    3.5904 H   0  0  0  0  0  0  0  0  0  0  0  0
   11.2302   -6.2735    1.0355 C   0  0  0  0  0  0  0  0  0  0  0  0
   10.9900   -7.0371    0.3045 H   0  0  0  0  0  0  0  0  0  0  0  0
   11.0993   -4.9109    0.7363 C   0  0  0  0  0  0  0  0  0  0  0  0
   10.7379   -4.6180   -0.2481 H   0  0  0  0  0  0  0  0  0  0  0  0
   14.1995   -2.5531    1.4034 C   0  0  0  0  0  0  0  0  0  0  0  0
   14.3680   -2.4151    2.7507 N   0  0  0  0  0  0  0  0  0  0  0  0
   13.5962   -2.0275    3.2887 H   0  0  0  0  0  0  0  0  0  0  0  0
   15.3204   -2.2707    3.0832 H   0  0  0  0  0  0  0  0  0  0  0  0
   15.2187   -2.8531    0.6656 N   0  0  0  0  0  4  0  0  0  0  0  0
   16.1480   -3.0442    1.0454 H   0  0  0  0  0  0  0  0  0  0  0  0
   15.3376   -0.8327   -1.4821 C   0  0  0  0  0  0  0  0  0  0  0  0
   14.9082   -0.4842   -0.5487 H   0  0  0  0  0  0  0  0  0  0  0  0
   15.5044    2.0040   -0.7884 C   0  0  0  0  0  0  0  0  0  0  0  0
   15.3937    1.2871    0.0200 H   0  0  0  0  0  0  0  0  0  0  0  0
   15.4238    3.3748   -0.5514 C   0  0  0  0  0  0  0  0  0  0  0  0
   15.2306    3.7522    0.4455 H   0  0  0  0  0  0  0  0  0  0  0  0
  1  2  1  0
  2  3  2  0
  3  4  1  0
  4  5  1  0
  4  6  2  0
  6  7  1  0
  7  8  2  0
  8  9  1  0
  8 10  1  0
 10 11  1  0
 10 12  2  0
 12 13  1  0
 12 14  1  0
 15 14  1  6
 15 16  1  0
 16 17  2  0
 17 18  1  0
 17 19  1  0
 19 20  1  0
 19 21  2  0
 21 22  1  0
 21 23  1  0
 23 24  1  0
 23 25  2  0
 25 26  1  0
 15 27  1  0
 27 28  2  0
 27 29  1  0
 29 30  1  0
 30 31  1  0
 30 32  1  0
 30 33  1  0
 33 34  2  0
 34 35  1  0
 34 36  1  0
 36 37  1  0
 36 38  2  0
 38 39  1  0
 39 40  1  0
 40 41  1  0
 40 42  1  0
 40 43  1  0
 38 44  1  0
 44 45  1  0
 44 46  2  0
 46 47  1  0
 29 48  1  0
 48 49  1  0
 49 50  1  0
 49 51  1  0
 48 52  2  0
 52 53  1  0
 14 54  2  0
 54 55  1  0
  6 56  1  0
 56 57  1  0
 56 58  2  0
 58 59  1  0
 58  2  1  0
 54  7  1  0
 52 15  1  0
 25 16  1  0
 46 33  1  0
M  CHG  1  52   1
M  END
>  <score>  (236) 
5.57136

$$$$

     RDKit          3D

 57 60  0  0  0  0  0  0  0  0999 V2000
    9.3945   -0.3619   -1.0913 H   0  0  0  0  0  0  0  0  0  0  0  0
    9.4105   -1.2120   -0.6339 O   0  0  0  0  0  0  0  0  0  0  0  0
   10.6061   -0.8532    0.3079 P   0  0  0  0  0  0  0  0  0  0  0  0
   10.2425    0.5069    0.7201 O   0  0  0  0  0  0  0  0  0  0  0  0
   11.7257   -0.5253   -0.6448 O   0  0  0  0  0  0  0  0  0  0  0  0
   11.3046    0.2967   -0.9270 H   0  0  0  0  0  0  0  0  0  0  0  0
   11.1071   -1.9698    1.5842 C   0  0  0  0  0  0  0  0  0  0  0  0
   11.6630   -1.3955    2.3033 H   0  0  0  0  0  0  0  0  0  0  0  0
   11.8145   -3.2920    1.3556 N   0  0  0  0  0  0  0  0  0  0  0  0
   11.9646   -3.8773    2.2097 H   0  0  0  0  0  0  0  0  0  0  0  0
   13.0554   -2.9085    0.7591 N   0  0  0  0  0  0  0  0  0  0  0  0
   13.3623   -3.0574   -0.5826 C   0  0  0  0  0  0  0  0  0  0  0  0
   12.5423   -3.1940   -1.4923 O   0  0  0  0  0  0  0  0  0  0  0  0
   14.8892   -3.1813   -0.7426 C   0  0  1  0  0  0  0  0  0  0  0  0
   15.2663   -4.6310   -1.0349 C   0  0  0  0  0  0  0  0  0  0  0  0
   16.4793   -5.1748   -0.5808 C   0  0  0  0  0  0  0  0  0  0  0  0
   17.1826   -4.5492   -0.0376 H   0  0  0  0  0  0  0  0  0  0  0  0
   16.7857   -6.5216   -0.8065 C   0  0  0  0  0  0  0  0  0  0  0  0
   17.7214   -6.9296   -0.4369 H   0  0  0  0  0  0  0  0  0  0  0  0
   15.8860   -7.3409   -1.4963 C   0  0  0  0  0  0  0  0  0  0  0  0
   16.1165   -8.3888   -1.6602 H   0  0  0  0  0  0  0  0  0  0  0  0
   14.6840   -6.8096   -1.9707 C   0  0  0  0  0  0  0  0  0  0  0  0
   13.9791   -7.4391   -2.5054 H   0  0  0  0  0  0  0  0  0  0  0  0
   14.3814   -5.4634   -1.7470 C   0  0  0  0  0  0  0  0  0  0  0  0
   13.4411   -5.0650   -2.1169 H   0  0  0  0  0  0  0  0  0  0  0  0
   15.4325   -2.1938   -1.7663 C   0  0  0  0  0  0  0  0  0  0  0  0
   15.9581   -2.6140   -2.9998 C   0  0  0  0  0  0  0  0  0  0  0  0
   16.0073   -3.6741   -3.2315 H   0  0  0  0  0  0  0  0  0  0  0  0
   16.4221   -1.6802   -3.9335 C   0  0  0  0  0  0  0  0  0  0  0  0
   16.8279   -2.0130   -4.8834 H   0  0  0  0  0  0  0  0  0  0  0  0
   16.3628   -0.3127   -3.6465 C   0  0  0  0  0  0  0  0  0  0  0  0
   16.7285    0.4040   -4.3751 H   0  0  0  0  0  0  0  0  0  0  0  0
   15.8420    0.1365   -2.4239 C   0  0  0  0  0  0  0  0  0  0  0  0
   15.7714    1.5741   -2.1061 C   0  0  0  0  0  0  0  0  0  0  0  0
   15.9393    2.5497   -3.1026 C   0  0  0  0  0  0  0  0  0  0  0  0
   16.1300    2.2252   -4.1208 H   0  0  0  0  0  0  0  0  0  0  0  0
   15.8620    3.8724   -2.8638 N   0  0  0  0  0  0  0  0  0  0  0  0
   15.6183    4.2786   -1.6084 C   0  0  0  0  0  0  0  0  0  0  0  0
   15.5462    5.3434   -1.4072 H   0  0  0  0  0  0  0  0  0  0  0  0
   15.4496    3.3770   -0.5553 C   0  0  0  0  0  0  0  0  0  0  0  0
   15.2552    3.7442    0.4453 H   0  0  0  0  0  0  0  0  0  0  0  0
   15.5306    2.0090   -0.7995 C   0  0  0  0  0  0  0  0  0  0  0  0
   15.4198    1.2942    0.0112 H   0  0  0  0  0  0  0  0  0  0  0  0
   15.3758   -0.8151   -1.5034 C   0  0  0  0  0  0  0  0  0  0  0  0
   14.9537   -0.4717   -0.5639 H   0  0  0  0  0  0  0  0  0  0  0  0
   15.2892   -2.8190    0.6305 N   0  0  0  0  0  4  0  0  0  0  0  0
   16.2585   -2.8247    0.9550 H   0  0  0  0  0  0  0  0  0  0  0  0
   14.2699   -2.7327    1.4212 C   0  0  0  0  0  0  0  0  0  0  0  0
   14.4936   -2.5031    2.7537 N   0  0  0  0  0  0  0  0  0  0  0  0
   13.7180   -2.1440    3.3050 H   0  0  0  0  0  0  0  0  0  0  0  0
   15.4384   -2.2234    3.0134 H   0  0  0  0  0  0  0  0  0  0  0  0
    9.4504   -1.7046    1.8920 P   0  0  0  0  0  0  0  0  0  0  0  0
    8.7035   -2.6348    1.0464 O   0  0  0  0  0  0  0  0  0  0  0  0
    8.7951   -0.3502    2.1377 O   0  0  0  0  0  0  0  0  0  0  0  0
    9.2899   -0.4164    3.0020 H   0  0  0  0  0  0  0  0  0  0  0  0
    9.1149   -1.3068    3.3046 O   0  0  0  0  0  0  0  0  0  0  0  0
    8.4437   -0.6847    2.9391 H   0  0  0  0  0  0  0  0  0  0  0  0
  1  2  1  0
  2  3  1  0
  3  4  2  0
  3  5  1  0
  5  6  1  0
  3  7  1  0
  7  8  1  0
  7  9  1  0
  9 10  1  0
  9 11  1  0
 11 12  1  0
 12 13  2  0
 12 14  1  0
 14 15  1  6
 15 16  2  0
 16 17  1  0
 16 18  1  0
 18 19  1  0
 18 20  2  0
 20 21  1  0
 20 22  1  0
 22 23  1  0
 22 24  2  0
 24 25  1  0
 14 26  1  0
 26 27  2  0
 27 28  1  0
 27 29  1  0
 29 30  1  0
 29 31  2  0
 31 32  1  0
 31 33  1  0
 33 34  1  0
 34 35  2  0
 35 36  1  0
 35 37  1  0
 37 38  2  0
 38 39  1  0
 38 40  1  0
 40 41  1  0
 40 42  2  0
 42 43  1  0
 33 44  2  0
 44 45  1  0
 14 46  1  0
 46 47  1  0
 46 48  2  0
 48 49  1  0
 49 50  1  0
 49 51  1  0
  7 52  1  0
 52 53  2  0
 52 54  1  0
 54 55  1  0
 52 56  1  0
 56 57  1  0
 48 11  1  0
 24 15  1  0
 44 26  1  0
 42 34  1  0
M  CHG  1  46   1
M  END
>  <score>  (237) 
5.57042

$$$$

     RDKit          3D

 54 59  0  0  0  0  0  0  0  0999 V2000
   15.5317    5.3322   -1.4122 H   0  0  0  0  0  0  0  0  0  0  0  0
   15.5980    4.2659   -1.6086 C   0  0  0  0  0  0  0  0  0  0  0  0
   15.8454    3.8520   -2.8604 N   0  0  0  0  0  0  0  0  0  0  0  0
   15.9236    2.5283   -3.0933 C   0  0  0  0  0  0  0  0  0  0  0  0
   16.1156    2.1989   -4.1097 H   0  0  0  0  0  0  0  0  0  0  0  0
   15.7539    1.5575   -2.0927 C   0  0  0  0  0  0  0  0  0  0  0  0
   15.8317    0.1188   -2.4045 C   0  0  0  0  0  0  0  0  0  0  0  0
   16.3535   -0.3265   -3.6271 C   0  0  0  0  0  0  0  0  0  0  0  0
   16.7067    0.3971   -4.3562 H   0  0  0  0  0  0  0  0  0  0  0  0
   16.4246   -1.6944   -3.9117 C   0  0  0  0  0  0  0  0  0  0  0  0
   16.8298   -2.0243   -4.8630 H   0  0  0  0  0  0  0  0  0  0  0  0
   15.9754   -2.6328   -2.9736 C   0  0  0  0  0  0  0  0  0  0  0  0
   16.0294   -3.6925   -3.2046 H   0  0  0  0  0  0  0  0  0  0  0  0
   15.4538   -2.2163   -1.7380 C   0  0  0  0  0  0  0  0  0  0  0  0
   14.8988   -3.1978   -0.7156 C   0  0  2  0  0  0  0  0  0  0  0  0
   15.2336   -4.6517   -1.0136 C   0  0  0  0  0  0  0  0  0  0  0  0
   16.4506   -5.1961   -0.5770 C   0  0  0  0  0  0  0  0  0  0  0  0
   17.1538   -4.5658   -0.0386 H   0  0  0  0  0  0  0  0  0  0  0  0
   16.7576   -6.5393   -0.8104 C   0  0  0  0  0  0  0  0  0  0  0  0
   17.6962   -6.9453   -0.4459 H   0  0  0  0  0  0  0  0  0  0  0  0
   15.8523   -7.3530   -1.4989 C   0  0  0  0  0  0  0  0  0  0  0  0
   16.0820   -8.4005   -1.6666 H   0  0  0  0  0  0  0  0  0  0  0  0
   14.6460   -6.8178   -1.9624 C   0  0  0  0  0  0  0  0  0  0  0  0
   13.9419   -7.4464   -2.4992 H   0  0  0  0  0  0  0  0  0  0  0  0
   14.3391   -5.4733   -1.7233 C   0  0  0  0  0  0  0  0  0  0  0  0
   13.3977   -5.0707   -2.0859 H   0  0  0  0  0  0  0  0  0  0  0  0
   13.3974   -2.9317   -0.5726 C   0  0  0  0  0  0  0  0  0  0  0  0
   12.5194   -3.1779   -1.3962 O   0  0  0  0  0  0  0  0  0  0  0  0
   13.1509   -2.3913    0.6528 N   0  0  0  0  0  0  0  0  0  0  0  0
   11.8760   -2.3209    1.1334 C   0  0  0  0  0  0  0  0  0  0  0  0
   11.6378   -2.2615    2.4101 N   0  0  0  0  0  0  0  0  0  0  0  0
   10.2935   -2.5280    2.5027 C   0  0  0  0  0  0  0  0  0  0  0  0
    9.5093   -2.8078    3.6201 C   0  0  0  0  0  0  0  0  0  0  0  0
    9.9722   -2.7081    4.5976 H   0  0  0  0  0  0  0  0  0  0  0  0
    8.2021   -3.2944    3.4282 C   0  0  0  0  0  0  0  0  0  0  0  0
    7.6259   -3.6084    4.2913 H   0  0  0  0  0  0  0  0  0  0  0  0
    7.6628   -3.4042    2.1331 C   0  0  0  0  0  0  0  0  0  0  0  0
    6.6442   -3.7563    1.9815 H   0  0  0  0  0  0  0  0  0  0  0  0
    8.4677   -3.0869    1.0290 C   0  0  0  0  0  0  0  0  0  0  0  0
    8.1171   -3.2113    0.0131 H   0  0  0  0  0  0  0  0  0  0  0  0
    9.7826   -2.6776    1.2307 C   0  0  0  0  0  0  0  0  0  0  0  0
   10.7765   -2.4794    0.3324 O   0  0  0  0  0  0  0  0  0  0  0  0
   14.2981   -2.5071    1.3979 C   0  0  0  0  0  0  0  0  0  0  0  0
   14.4050   -2.3617    2.7491 N   0  0  0  0  0  0  0  0  0  0  0  0
   13.5904   -2.0454    3.2747 H   0  0  0  0  0  0  0  0  0  0  0  0
   15.3377   -2.2346    3.1462 H   0  0  0  0  0  0  0  0  0  0  0  0
   15.3057   -2.8640    0.6666 N   0  0  0  0  0  4  0  0  0  0  0  0
   16.2349   -3.0728    1.0366 H   0  0  0  0  0  0  0  0  0  0  0  0
   15.3769   -0.8359   -1.4817 C   0  0  0  0  0  0  0  0  0  0  0  0
   14.9482   -0.4917   -0.5455 H   0  0  0  0  0  0  0  0  0  0  0  0
   15.5094    1.9993   -0.7896 C   0  0  0  0  0  0  0  0  0  0  0  0
   15.4013    1.2833    0.0202 H   0  0  0  0  0  0  0  0  0  0  0  0
   15.4267    3.3698   -0.5521 C   0  0  0  0  0  0  0  0  0  0  0  0
   15.2360    3.7487    0.4443 H   0  0  0  0  0  0  0  0  0  0  0  0
  1  2  1  0
  2  3  2  0
  3  4  1  0
  4  5  1  0
  4  6  2  0
  6  7  1  0
  7  8  2  0
  8  9  1  0
  8 10  1  0
 10 11  1  0
 10 12  2  0
 12 13  1  0
 12 14  1  0
 15 14  1  6
 15 16  1  0
 16 17  2  0
 17 18  1  0
 17 19  1  0
 19 20  1  0
 19 21  2  0
 21 22  1  0
 21 23  1  0
 23 24  1  0
 23 25  2  0
 25 26  1  0
 15 27  1  0
 27 28  2  0
 27 29  1  0
 29 30  1  0
 30 31  2  0
 31 32  1  0
 32 33  2  0
 33 34  1  0
 33 35  1  0
 35 36  1  0
 35 37  2  0
 37 38  1  0
 37 39  1  0
 39 40  1  0
 39 41  2  0
 41 42  1  0
 29 43  1  0
 43 44  1  0
 44 45  1  0
 44 46  1  0
 43 47  2  0
 47 48  1  0
 14 49  2  0
 49 50  1  0
  6 51  1  0
 51 52  1  0
 51 53  2  0
 53 54  1  0
 53  2  1  0
 49  7  1  0
 47 15  1  0
 25 16  1  0
 42 30  1  0
 41 32  1  0
M  CHG  1  47   1
M  END
>  <score>  (238) 
5.56993

$$$$

     RDKit          3D

 54 57  0  0  0  0  0  0  0  0999 V2000
    9.5287   -6.9263    0.4555 H   0  0  0  0  0  0  0  0  0  0  0  0
    9.6152   -6.1989   -0.1843 O   0  0  0  0  0  0  0  0  0  0  0  0
    9.9254   -4.9477    0.4668 C   0  0  0  0  0  0  0  0  0  0  0  0
    9.1236   -4.6730    1.1627 H   0  0  0  0  0  0  0  0  0  0  0  0
    9.9965   -4.1770   -0.3052 H   0  0  0  0  0  0  0  0  0  0  0  0
   11.2513   -4.9741    1.2466 C   0  0  0  0  0  0  0  0  0  0  0  0
   12.0743   -5.1871    0.5611 H   0  0  0  0  0  0  0  0  0  0  0  0
   11.2164   -5.7914    1.9773 H   0  0  0  0  0  0  0  0  0  0  0  0
   11.5208   -3.7041    1.9681 N   0  0  0  0  0  0  0  0  0  0  0  0
   12.2566   -3.8413    2.6638 H   0  0  0  0  0  0  0  0  0  0  0  0
   11.7280   -2.4376    1.2760 C   0  0  0  0  0  0  0  0  0  0  0  0
   11.7122   -1.5791    1.9632 H   0  0  0  0  0  0  0  0  0  0  0  0
   10.9627   -2.2522    0.5050 H   0  0  0  0  0  0  0  0  0  0  0  0
   13.0339   -2.6226    0.7237 N   0  0  0  0  0  0  0  0  0  0  0  0
   13.2646   -3.0669   -0.5503 C   0  0  0  0  0  0  0  0  0  0  0  0
   12.3553   -3.2340   -1.3605 O   0  0  0  0  0  0  0  0  0  0  0  0
   14.7893   -3.2433   -0.7361 C   0  0  1  0  0  0  0  0  0  0  0  0
   15.1787   -4.6876   -1.0422 C   0  0  0  0  0  0  0  0  0  0  0  0
   16.4054   -5.2103   -0.5931 C   0  0  0  0  0  0  0  0  0  0  0  0
   17.0881   -4.5645   -0.0495 H   0  0  0  0  0  0  0  0  0  0  0  0
   16.7403   -6.5534   -0.8019 C   0  0  0  0  0  0  0  0  0  0  0  0
   17.6801   -6.9424   -0.4153 H   0  0  0  0  0  0  0  0  0  0  0  0
   15.8541   -7.3942   -1.4837 C   0  0  0  0  0  0  0  0  0  0  0  0
   16.1035   -8.4418   -1.6292 H   0  0  0  0  0  0  0  0  0  0  0  0
   14.6438   -6.8831   -1.9689 C   0  0  0  0  0  0  0  0  0  0  0  0
   13.9551   -7.5405   -2.4929 H   0  0  0  0  0  0  0  0  0  0  0  0
   14.3109   -5.5393   -1.7493 C   0  0  0  0  0  0  0  0  0  0  0  0
   13.3569   -5.1639   -2.1077 H   0  0  0  0  0  0  0  0  0  0  0  0
   15.3452   -2.2273   -1.7392 C   0  0  0  0  0  0  0  0  0  0  0  0
   15.9075   -2.6289   -2.9654 C   0  0  0  0  0  0  0  0  0  0  0  0
   15.9824   -3.6853   -3.2018 H   0  0  0  0  0  0  0  0  0  0  0  0
   16.3943   -1.6865   -3.8837 C   0  0  0  0  0  0  0  0  0  0  0  0
   16.8533   -2.0070   -4.8161 H   0  0  0  0  0  0  0  0  0  0  0  0
   16.3165   -0.3230   -3.5956 C   0  0  0  0  0  0  0  0  0  0  0  0
   16.6988    0.4123   -4.2977 H   0  0  0  0  0  0  0  0  0  0  0  0
   15.7648    0.1137   -2.3882 C   0  0  0  0  0  0  0  0  0  0  0  0
   15.7065    1.5521   -2.0968 C   0  0  0  0  0  0  0  0  0  0  0  0
   15.8985    2.5208   -3.0983 C   0  0  0  0  0  0  0  0  0  0  0  0
   16.0970    2.1929   -4.1138 H   0  0  0  0  0  0  0  0  0  0  0  0
   15.8406    3.8450   -2.8666 N   0  0  0  0  0  0  0  0  0  0  0  0
   15.5844    4.2572   -1.6155 C   0  0  0  0  0  0  0  0  0  0  0  0
   15.5319    5.3232   -1.4140 H   0  0  0  0  0  0  0  0  0  0  0  0
   15.3972    3.3620   -0.5591 C   0  0  0  0  0  0  0  0  0  0  0  0
   15.2070    3.7431    0.4377 H   0  0  0  0  0  0  0  0  0  0  0  0
   15.4717    1.9919   -0.7967 C   0  0  0  0  0  0  0  0  0  0  0  0
   15.3647    1.2659    0.0029 H   0  0  0  0  0  0  0  0  0  0  0  0
   15.2810   -0.8437   -1.4760 C   0  0  0  0  0  0  0  0  0  0  0  0
   14.8434   -0.4976   -0.5449 H   0  0  0  0  0  0  0  0  0  0  0  0
   15.2116   -2.9124    0.6436 N   0  0  0  0  0  4  0  0  0  0  0  0
   16.1757   -2.9937    0.9691 H   0  0  0  0  0  0  0  0  0  0  0  0
   14.2134   -2.6403    1.4144 C   0  0  0  0  0  0  0  0  0  0  0  0
   14.3807   -2.3936    2.7470 N   0  0  0  0  0  0  0  0  0  0  0  0
   13.5848   -2.0681    3.2949 H   0  0  0  0  0  0  0  0  0  0  0  0
   15.3293   -2.2891    3.1012 H   0  0  0  0  0  0  0  0  0  0  0  0
  1  2  1  0
  2  3  1  0
  3  4  1  0
  3  5  1  0
  3  6  1  0
  6  7  1  0
  6  8  1  0
  6  9  1  0
  9 10  1  0
  9 11  1  0
 11 12  1  0
 11 13  1  0
 11 14  1  0
 14 15  1  0
 15 16  2  0
 15 17  1  0
 17 18  1  6
 18 19  2  0
 19 20  1  0
 19 21  1  0
 21 22  1  0
 21 23  2  0
 23 24  1  0
 23 25  1  0
 25 26  1  0
 25 27  2  0
 27 28  1  0
 17 29  1  0
 29 30  2  0
 30 31  1  0
 30 32  1  0
 32 33  1  0
 32 34  2  0
 34 35  1  0
 34 36  1  0
 36 37  1  0
 37 38  2  0
 38 39  1  0
 38 40  1  0
 40 41  2  0
 41 42  1  0
 41 43  1  0
 43 44  1  0
 43 45  2  0
 45 46  1  0
 36 47  2  0
 47 48  1  0
 17 49  1  0
 49 50  1  0
 49 51  2  0
 51 52  1  0
 52 53  1  0
 52 54  1  0
 51 14  1  0
 27 18  1  0
 47 29  1  0
 45 37  1  0
M  CHG  1  49   1
M  END
>  <score>  (239) 
5.56942

$$$$

     RDKit          3D

 58 62  0  0  0  0  0  0  0  0999 V2000
   15.5437    5.3421   -1.4012 H   0  0  0  0  0  0  0  0  0  0  0  0
   15.6305    4.2798   -1.6107 C   0  0  0  0  0  0  0  0  0  0  0  0
   15.8759    3.8833   -2.8692 N   0  0  0  0  0  0  0  0  0  0  0  0
   15.9859    2.5633   -3.1139 C   0  0  0  0  0  0  0  0  0  0  0  0
   16.1711    2.2466   -4.1355 H   0  0  0  0  0  0  0  0  0  0  0  0
   15.8552    1.5813   -2.1183 C   0  0  0  0  0  0  0  0  0  0  0  0
   15.9702    0.1457   -2.4314 C   0  0  0  0  0  0  0  0  0  0  0  0
   16.4271   -0.3034   -3.6782 C   0  0  0  0  0  0  0  0  0  0  0  0
   16.7235    0.4164   -4.4354 H   0  0  0  0  0  0  0  0  0  0  0  0
   16.4956   -1.6740   -3.9546 C   0  0  0  0  0  0  0  0  0  0  0  0
   16.8385   -2.0044   -4.9292 H   0  0  0  0  0  0  0  0  0  0  0  0
   16.0975   -2.6097   -2.9896 C   0  0  0  0  0  0  0  0  0  0  0  0
   16.1243   -3.6695   -3.2250 H   0  0  0  0  0  0  0  0  0  0  0  0
   15.6327   -2.1848   -1.7328 C   0  0  0  0  0  0  0  0  0  0  0  0
   15.0395   -3.1424   -0.7038 C   0  0  2  0  0  0  0  0  0  0  0  0
   15.3303   -4.6057   -0.9946 C   0  0  0  0  0  0  0  0  0  0  0  0
   16.5302   -5.1899   -0.5574 C   0  0  0  0  0  0  0  0  0  0  0  0
   17.2534   -4.5878   -0.0143 H   0  0  0  0  0  0  0  0  0  0  0  0
   16.7968   -6.5386   -0.8058 C   0  0  0  0  0  0  0  0  0  0  0  0
   17.7255   -6.9752   -0.4499 H   0  0  0  0  0  0  0  0  0  0  0  0
   15.8691   -7.3180   -1.5034 C   0  0  0  0  0  0  0  0  0  0  0  0
   16.0735   -8.3665   -1.6947 H   0  0  0  0  0  0  0  0  0  0  0  0
   14.6722   -6.7467   -1.9501 C   0  0  0  0  0  0  0  0  0  0  0  0
   13.9471   -7.3473   -2.4898 H   0  0  0  0  0  0  0  0  0  0  0  0
   14.4065   -5.3970   -1.6978 C   0  0  0  0  0  0  0  0  0  0  0  0
   13.4742   -4.9596   -2.0459 H   0  0  0  0  0  0  0  0  0  0  0  0
   13.5355   -2.8324   -0.5904 C   0  0  0  0  0  0  0  0  0  0  0  0
   12.6924   -2.9003   -1.4838 O   0  0  0  0  0  0  0  0  0  0  0  0
   13.2559   -2.3820    0.6807 N   0  0  0  0  0  0  0  0  0  0  0  0
   11.9452   -2.0266    1.2016 C   0  0  0  0  0  0  0  0  0  0  0  0
   11.6135   -1.0929    0.7232 H   0  0  0  0  0  0  0  0  0  0  0  0
   12.0075   -1.8356    2.2796 H   0  0  0  0  0  0  0  0  0  0  0  0
   10.9322   -3.1468    0.9195 C   0  0  0  0  0  0  0  0  0  0  0  0
    9.9626   -2.8197    1.2993 H   0  0  0  0  0  0  0  0  0  0  0  0
   10.8265   -3.2614   -0.1622 H   0  0  0  0  0  0  0  0  0  0  0  0
   11.2917   -4.4909    1.5386 C   0  0  0  0  0  0  0  0  0  0  0  0
   12.2109   -5.3510    0.9158 C   0  0  0  0  0  0  0  0  0  0  0  0
   12.7002   -5.0363    0.0038 H   0  0  0  0  0  0  0  0  0  0  0  0
   12.5121   -6.5998    1.4767 C   0  0  0  0  0  0  0  0  0  0  0  0
   13.2564   -7.2321    1.0100 H   0  0  0  0  0  0  0  0  0  0  0  0
   11.8327   -7.0383    2.6132 C   0  0  0  0  0  0  0  0  0  0  0  0
   12.0420   -8.0294    3.0123 H   0  0  0  0  0  0  0  0  0  0  0  0
   10.9188   -6.1861    3.2453 C   0  0  0  0  0  0  0  0  0  0  0  0
   10.4089   -6.5065    4.1476 H   0  0  0  0  0  0  0  0  0  0  0  0
   10.6867   -4.9016    2.7376 C   0  0  0  0  0  0  0  0  0  0  0  0
   10.0138   -4.2447    3.2839 H   0  0  0  0  0  0  0  0  0  0  0  0
   14.4234   -2.4397    1.4067 C   0  0  0  0  0  0  0  0  0  0  0  0
   14.5288   -2.1507    2.7361 N   0  0  0  0  0  0  0  0  0  0  0  0
   13.7176   -1.8191    3.2527 H   0  0  0  0  0  0  0  0  0  0  0  0
   15.4368   -2.2188    3.1945 H   0  0  0  0  0  0  0  0  0  0  0  0
   15.4272   -2.8228    0.6898 N   0  0  0  0  0  4  0  0  0  0  0  0
   16.3314   -3.0737    1.0927 H   0  0  0  0  0  0  0  0  0  0  0  0
   15.5838   -0.8063   -1.4779 C   0  0  0  0  0  0  0  0  0  0  0  0
   15.1978   -0.4633   -0.5235 H   0  0  0  0  0  0  0  0  0  0  0  0
   15.5943    2.0058   -0.8119 C   0  0  0  0  0  0  0  0  0  0  0  0
   15.4902    1.2851   -0.0045 H   0  0  0  0  0  0  0  0  0  0  0  0
   15.4808    3.3703   -0.5620 C   0  0  0  0  0  0  0  0  0  0  0  0
   15.2800    3.7287    0.4402 H   0  0  0  0  0  0  0  0  0  0  0  0
  1  2  1  0
  2  3  2  0
  3  4  1  0
  4  5  1  0
  4  6  2  0
  6  7  1  0
  7  8  2  0
  8  9  1  0
  8 10  1  0
 10 11  1  0
 10 12  2  0
 12 13  1  0
 12 14  1  0
 15 14  1  6
 15 16  1  0
 16 17  2  0
 17 18  1  0
 17 19  1  0
 19 20  1  0
 19 21  2  0
 21 22  1  0
 21 23  1  0
 23 24  1  0
 23 25  2  0
 25 26  1  0
 15 27  1  0
 27 28  2  0
 27 29  1  0
 29 30  1  0
 30 31  1  0
 30 32  1  0
 30 33  1  0
 33 34  1  0
 33 35  1  0
 33 36  1  0
 36 37  2  0
 37 38  1  0
 37 39  1  0
 39 40  1  0
 39 41  2  0
 41 42  1  0
 41 43  1  0
 43 44  1  0
 43 45  2  0
 45 46  1  0
 29 47  1  0
 47 48  1  0
 48 49  1  0
 48 50  1  0
 47 51  2  0
 51 52  1  0
 14 53  2  0
 53 54  1  0
  6 55  1  0
 55 56  1  0
 55 57  2  0
 57 58  1  0
 57  2  1  0
 53  7  1  0
 51 15  1  0
 25 16  1  0
 45 36  1  0
M  CHG  1  51   1
M  END
>  <score>  (240) 
5.56931

$$$$

     RDKit          3D

 50 54  0  0  0  0  0  0  0  0999 V2000
    8.7320   -0.7744    0.5550 H   0  0  0  0  0  0  0  0  0  0  0  0
    9.5543   -1.3263    1.0084 C   0  0  0  0  0  0  0  0  0  0  0  0
    9.5601   -2.2720    2.0113 C   0  0  0  0  0  0  0  0  0  0  0  0
    8.7398   -2.6838    2.5960 H   0  0  0  0  0  0  0  0  0  0  0  0
   10.9198   -2.7691    2.1163 C   0  0  0  0  0  0  0  0  0  0  0  0
   11.2207   -3.6867    2.8635 O   0  0  0  0  0  0  0  0  0  0  0  0
   11.7293   -2.1589    1.1619 N   0  0  0  0  0  0  0  0  0  0  0  0
   13.0340   -2.6307    0.6764 N   0  0  0  0  0  0  0  0  0  0  0  0
   13.3332   -3.0399   -0.6241 C   0  0  0  0  0  0  0  0  0  0  0  0
   12.5047   -3.1409   -1.5293 O   0  0  0  0  0  0  0  0  0  0  0  0
   14.8428   -3.2542   -0.7774 C   0  0  1  0  0  0  0  0  0  0  0  0
   15.1893   -4.7153   -1.0776 C   0  0  0  0  0  0  0  0  0  0  0  0
   16.4023   -5.2386   -0.6075 C   0  0  0  0  0  0  0  0  0  0  0  0
   17.0776   -4.5862   -0.0619 H   0  0  0  0  0  0  0  0  0  0  0  0
   16.7391   -6.5808   -0.8045 C   0  0  0  0  0  0  0  0  0  0  0  0
   17.6764   -6.9632   -0.4125 H   0  0  0  0  0  0  0  0  0  0  0  0
   15.8586   -7.4320   -1.4776 C   0  0  0  0  0  0  0  0  0  0  0  0
   16.1119   -8.4793   -1.6137 H   0  0  0  0  0  0  0  0  0  0  0  0
   14.6467   -6.9319   -1.9649 C   0  0  0  0  0  0  0  0  0  0  0  0
   13.9649   -7.5974   -2.4881 H   0  0  0  0  0  0  0  0  0  0  0  0
   14.3140   -5.5807   -1.7708 C   0  0  0  0  0  0  0  0  0  0  0  0
   13.3608   -5.2127   -2.1400 H   0  0  0  0  0  0  0  0  0  0  0  0
   15.3937   -2.2384   -1.7781 C   0  0  0  0  0  0  0  0  0  0  0  0
   15.9512   -2.6409   -3.0019 C   0  0  0  0  0  0  0  0  0  0  0  0
   16.0056   -3.6987   -3.2481 H   0  0  0  0  0  0  0  0  0  0  0  0
   16.4281   -1.6864   -3.9088 C   0  0  0  0  0  0  0  0  0  0  0  0
   16.8642   -2.0043   -4.8498 H   0  0  0  0  0  0  0  0  0  0  0  0
   16.3336   -0.3190   -3.6139 C   0  0  0  0  0  0  0  0  0  0  0  0
   16.7188    0.4189   -4.3090 H   0  0  0  0  0  0  0  0  0  0  0  0
   15.7743    0.1202   -2.4080 C   0  0  0  0  0  0  0  0  0  0  0  0
   15.6899    1.5689   -2.0976 C   0  0  0  0  0  0  0  0  0  0  0  0
   15.8733    2.5468   -3.0903 C   0  0  0  0  0  0  0  0  0  0  0  0
   16.0581    2.2133   -4.1048 H   0  0  0  0  0  0  0  0  0  0  0  0
   15.8211    3.8739   -2.8566 N   0  0  0  0  0  0  0  0  0  0  0  0
   15.5876    4.2927   -1.6020 C   0  0  0  0  0  0  0  0  0  0  0  0
   15.5599    5.3603   -1.3910 H   0  0  0  0  0  0  0  0  0  0  0  0
   15.3793    3.3924   -0.5534 C   0  0  0  0  0  0  0  0  0  0  0  0
   15.1744    3.7782    0.4399 H   0  0  0  0  0  0  0  0  0  0  0  0
   15.4372    2.0165   -0.7999 C   0  0  0  0  0  0  0  0  0  0  0  0
   15.3182    1.2898   -0.0038 H   0  0  0  0  0  0  0  0  0  0  0  0
   15.3106   -0.8534   -1.5043 C   0  0  0  0  0  0  0  0  0  0  0  0
   14.8634   -0.5192   -0.5737 H   0  0  0  0  0  0  0  0  0  0  0  0
   15.2603   -2.9199    0.6018 N   0  0  0  0  0  4  0  0  0  0  0  0
   16.2313   -2.9422    0.9208 H   0  0  0  0  0  0  0  0  0  0  0  0
   14.2540   -2.6036    1.3576 C   0  0  0  0  0  0  0  0  0  0  0  0
   14.4284   -2.3056    2.6838 N   0  0  0  0  0  0  0  0  0  0  0  0
   15.3607   -2.3559    3.0958 H   0  0  0  0  0  0  0  0  0  0  0  0
   13.6122   -2.1216    3.2678 H   0  0  0  0  0  0  0  0  0  0  0  0
   10.9112   -1.2343    0.5151 C   0  0  0  0  0  0  0  0  0  0  0  0
   11.2074   -0.5294   -0.4346 O   0  0  0  0  0  0  0  0  0  0  0  0
  1  2  1  0
  2  3  2  0
  3  4  1  0
  3  5  1  0
  5  6  2  0
  5  7  1  0
  7  8  1  0
  8  9  1  0
  9 10  2  0
  9 11  1  0
 11 12  1  6
 12 13  2  0
 13 14  1  0
 13 15  1  0
 15 16  1  0
 15 17  2  0
 17 18  1  0
 17 19  1  0
 19 20  1  0
 19 21  2  0
 21 22  1  0
 11 23  1  0
 23 24  2  0
 24 25  1  0
 24 26  1  0
 26 27  1  0
 26 28  2  0
 28 29  1  0
 28 30  1  0
 30 31  1  0
 31 32  2  0
 32 33  1  0
 32 34  1  0
 34 35  2  0
 35 36  1  0
 35 37  1  0
 37 38  1  0
 37 39  2  0
 39 40  1  0
 30 41  2  0
 41 42  1  0
 11 43  1  0
 43 44  1  0
 43 45  2  0
 45 46  1  0
 46 47  1  0
 46 48  1  0
  7 49  1  0
 49 50  2  0
 49  2  1  0
 45  8  1  0
 21 12  1  0
 41 23  1  0
 39 31  1  0
M  CHG  1  43   1
M  END
>  <score>  (241) 
5.56829

$$$$

     RDKit          3D

 56 60  0  0  0  0  0  0  0  0999 V2000
   15.5316    5.3242   -1.4139 H   0  0  0  0  0  0  0  0  0  0  0  0
   15.5841    4.2594   -1.6147 C   0  0  0  0  0  0  0  0  0  0  0  0
   15.8388    3.8484   -2.8663 N   0  0  0  0  0  0  0  0  0  0  0  0
   15.8987    2.5247   -3.1003 C   0  0  0  0  0  0  0  0  0  0  0  0
   16.0991    2.1918   -4.1145 H   0  0  0  0  0  0  0  0  0  0  0  0
   15.7110    1.5577   -2.0973 C   0  0  0  0  0  0  0  0  0  0  0  0
   15.7781    0.1210   -2.3950 C   0  0  0  0  0  0  0  0  0  0  0  0
   16.3278   -0.3146   -3.6037 C   0  0  0  0  0  0  0  0  0  0  0  0
   16.6999    0.4208   -4.3098 H   0  0  0  0  0  0  0  0  0  0  0  0
   16.4057   -1.6789   -3.8946 C   0  0  0  0  0  0  0  0  0  0  0  0
   16.8522   -2.0037   -4.8289 H   0  0  0  0  0  0  0  0  0  0  0  0
   15.9282   -2.6200   -2.9743 C   0  0  0  0  0  0  0  0  0  0  0  0
   15.9893   -3.6772   -3.2064 H   0  0  0  0  0  0  0  0  0  0  0  0
   15.3817   -2.2160   -1.7464 C   0  0  0  0  0  0  0  0  0  0  0  0
   14.8165   -3.2244   -0.7524 C   0  0  2  0  0  0  0  0  0  0  0  0
   15.1874   -4.6771   -1.0521 C   0  0  0  0  0  0  0  0  0  0  0  0
   16.4076   -5.2037   -0.5962 C   0  0  0  0  0  0  0  0  0  0  0  0
   17.0893   -4.5581   -0.0505 H   0  0  0  0  0  0  0  0  0  0  0  0
   16.7359   -6.5482   -0.7996 C   0  0  0  0  0  0  0  0  0  0  0  0
   17.6745   -6.9363   -0.4143 H   0  0  0  0  0  0  0  0  0  0  0  0
   15.8498   -7.3862   -1.4829 C   0  0  0  0  0  0  0  0  0  0  0  0
   16.0994   -8.4329   -1.6287 H   0  0  0  0  0  0  0  0  0  0  0  0
   14.6407   -6.8740   -1.9663 C   0  0  0  0  0  0  0  0  0  0  0  0
   13.9531   -7.5310   -2.4908 H   0  0  0  0  0  0  0  0  0  0  0  0
   14.3099   -5.5282   -1.7504 C   0  0  0  0  0  0  0  0  0  0  0  0
   13.3563   -5.1524   -2.1097 H   0  0  0  0  0  0  0  0  0  0  0  0
   13.2969   -3.0051   -0.6078 C   0  0  0  0  0  0  0  0  0  0  0  0
   12.4429   -3.1445   -1.4870 O   0  0  0  0  0  0  0  0  0  0  0  0
   13.0244   -2.6348    0.6939 N   0  0  0  0  0  0  0  0  0  0  0  0
   11.7498   -2.4540    1.2330 C   0  0  0  0  0  0  0  0  0  0  0  0
   10.8384   -1.5760    0.6445 C   0  0  0  0  0  0  0  0  0  0  0  0
   11.1400   -1.0268   -0.2436 H   0  0  0  0  0  0  0  0  0  0  0  0
    9.5619   -1.4191    1.2042 C   0  0  0  0  0  0  0  0  0  0  0  0
    8.8642   -0.7050    0.7764 H   0  0  0  0  0  0  0  0  0  0  0  0
    9.1807   -2.1908    2.3123 C   0  0  0  0  0  0  0  0  0  0  0  0
    8.1962   -2.0583    2.7500 H   0  0  0  0  0  0  0  0  0  0  0  0
   10.0746   -3.1117    2.8877 C   0  0  0  0  0  0  0  0  0  0  0  0
    9.6782   -3.9629    4.0225 C   0  0  0  0  0  0  0  0  0  0  0  0
    8.5243   -4.0450    4.4240 O   0  0  0  0  0  0  0  0  0  0  0  0
   10.6103   -4.7463    4.6560 N   0  0  0  0  0  0  0  0  0  0  0  0
   11.5487   -4.3675    4.6506 H   0  0  0  0  0  0  0  0  0  0  0  0
   10.2860   -5.1797    5.5114 H   0  0  0  0  0  0  0  0  0  0  0  0
   11.3761   -3.1932    2.3518 C   0  0  0  0  0  0  0  0  0  0  0  0
   12.1341   -3.8427    2.7792 H   0  0  0  0  0  0  0  0  0  0  0  0
   14.2147   -2.6530    1.3941 C   0  0  0  0  0  0  0  0  0  0  0  0
   14.4026   -2.4282    2.7319 N   0  0  0  0  0  0  0  0  0  0  0  0
   15.3586   -2.2820    3.0602 H   0  0  0  0  0  0  0  0  0  0  0  0
   13.6284   -2.0422    3.2736 H   0  0  0  0  0  0  0  0  0  0  0  0
   15.2275   -2.9062    0.6310 N   0  0  0  0  0  4  0  0  0  0  0  0
   16.1881   -3.0030    0.9707 H   0  0  0  0  0  0  0  0  0  0  0  0
   15.3031   -0.8351   -1.4804 C   0  0  0  0  0  0  0  0  0  0  0  0
   14.8629   -0.4882   -0.5503 H   0  0  0  0  0  0  0  0  0  0  0  0
   15.4729    1.9947   -0.7968 C   0  0  0  0  0  0  0  0  0  0  0  0
   15.3662    1.2673    0.0018 H   0  0  0  0  0  0  0  0  0  0  0  0
   15.3971    3.3640   -0.5593 C   0  0  0  0  0  0  0  0  0  0  0  0
   15.2073    3.7427    0.4365 H   0  0  0  0  0  0  0  0  0  0  0  0
  1  2  1  0
  2  3  2  0
  3  4  1  0
  4  5  1  0
  4  6  2  0
  6  7  1  0
  7  8  2  0
  8  9  1  0
  8 10  1  0
 10 11  1  0
 10 12  2  0
 12 13  1  0
 12 14  1  0
 15 14  1  6
 15 16  1  0
 16 17  2  0
 17 18  1  0
 17 19  1  0
 19 20  1  0
 19 21  2  0
 21 22  1  0
 21 23  1  0
 23 24  1  0
 23 25  2  0
 25 26  1  0
 15 27  1  0
 27 28  2  0
 27 29  1  0
 29 30  1  0
 30 31  2  0
 31 32  1  0
 31 33  1  0
 33 34  1  0
 33 35  2  0
 35 36  1  0
 35 37  1  0
 37 38  1  0
 38 39  2  0
 38 40  1  0
 40 41  1  0
 40 42  1  0
 37 43  2  0
 43 44  1  0
 29 45  1  0
 45 46  1  0
 46 47  1  0
 46 48  1  0
 45 49  2  0
 49 50  1  0
 14 51  2  0
 51 52  1  0
  6 53  1  0
 53 54  1  0
 53 55  2  0
 55 56  1  0
 55  2  1  0
 51  7  1  0
 49 15  1  0
 25 16  1  0
 43 30  1  0
M  CHG  1  49   1
M  END
>  <score>  (242) 
5.56733

$$$$

     RDKit          3D

 54 58  0  0  0  0  0  0  0  0999 V2000
   15.5313    5.3220   -1.4147 H   0  0  0  0  0  0  0  0  0  0  0  0
   15.5837    4.2572   -1.6147 C   0  0  0  0  0  0  0  0  0  0  0  0
   15.8394    3.8471   -2.8662 N   0  0  0  0  0  0  0  0  0  0  0  0
   15.8968    2.5236   -3.0999 C   0  0  0  0  0  0  0  0  0  0  0  0
   16.0961    2.1954   -4.1154 H   0  0  0  0  0  0  0  0  0  0  0  0
   15.7084    1.5552   -2.0970 C   0  0  0  0  0  0  0  0  0  0  0  0
   15.7822    0.1178   -2.3941 C   0  0  0  0  0  0  0  0  0  0  0  0
   16.3286   -0.3148   -3.6062 C   0  0  0  0  0  0  0  0  0  0  0  0
   16.6990    0.4199   -4.3149 H   0  0  0  0  0  0  0  0  0  0  0  0
   16.4071   -1.6785   -3.8982 C   0  0  0  0  0  0  0  0  0  0  0  0
   16.8516   -1.9988   -4.8360 H   0  0  0  0  0  0  0  0  0  0  0  0
   15.9371   -2.6213   -2.9746 C   0  0  0  0  0  0  0  0  0  0  0  0
   16.0018   -3.6766   -3.2147 H   0  0  0  0  0  0  0  0  0  0  0  0
   15.3990   -2.2228   -1.7395 C   0  0  0  0  0  0  0  0  0  0  0  0
   14.8388   -3.2365   -0.7423 C   0  0  2  0  0  0  0  0  0  0  0  0
   15.1997   -4.6884   -1.0485 C   0  0  0  0  0  0  0  0  0  0  0  0
   16.4198   -5.2188   -0.5976 C   0  0  0  0  0  0  0  0  0  0  0  0
   17.1070   -4.5755   -0.0570 H   0  0  0  0  0  0  0  0  0  0  0  0
   16.7438   -6.5624   -0.8036 C   0  0  0  0  0  0  0  0  0  0  0  0
   17.6802   -6.9529   -0.4149 H   0  0  0  0  0  0  0  0  0  0  0  0
   15.8553   -7.3978   -1.4862 C   0  0  0  0  0  0  0  0  0  0  0  0
   16.0990   -8.4466   -1.6286 H   0  0  0  0  0  0  0  0  0  0  0  0
   14.6479   -6.8797   -1.9697 C   0  0  0  0  0  0  0  0  0  0  0  0
   13.9548   -7.5347   -2.4892 H   0  0  0  0  0  0  0  0  0  0  0  0
   14.3209   -5.5337   -1.7517 C   0  0  0  0  0  0  0  0  0  0  0  0
   13.3686   -5.1546   -2.1141 H   0  0  0  0  0  0  0  0  0  0  0  0
   13.3233   -3.0051   -0.5978 C   0  0  0  0  0  0  0  0  0  0  0  0
   12.4927   -3.1103   -1.5005 O   0  0  0  0  0  0  0  0  0  0  0  0
   13.0177   -2.6149    0.7017 N   0  0  0  0  0  0  0  0  0  0  0  0
   11.7526   -2.1253    1.1527 C   0  0  0  0  0  0  0  0  0  0  0  0
   11.0281   -0.9658    0.6435 C   0  0  0  0  0  0  0  0  0  0  0  0
   11.5659    0.0485   -0.3341 C   0  0  0  0  0  0  0  0  0  0  0  0
   10.7989    0.7749   -0.6237 H   0  0  0  0  0  0  0  0  0  0  0  0
   11.9417   -0.4183   -1.2491 H   0  0  0  0  0  0  0  0  0  0  0  0
   12.3858    0.5808    0.1467 H   0  0  0  0  0  0  0  0  0  0  0  0
    9.8382   -0.8690    1.1730 N   0  0  0  0  0  0  0  0  0  0  0  0
    9.7225   -1.9506    2.0937 O   0  0  0  0  0  0  0  0  0  0  0  0
   10.9013   -2.6471    2.0952 C   0  0  0  0  0  0  0  0  0  0  0  0
   11.1150   -3.9023    2.8853 C   0  0  0  0  0  0  0  0  0  0  0  0
   11.6578   -3.7097    3.8193 H   0  0  0  0  0  0  0  0  0  0  0  0
   11.6932   -4.5991    2.2739 H   0  0  0  0  0  0  0  0  0  0  0  0
   10.1488   -4.3536    3.1369 H   0  0  0  0  0  0  0  0  0  0  0  0
   14.2299   -2.6104    1.3903 C   0  0  0  0  0  0  0  0  0  0  0  0
   14.4506   -2.3114    2.7065 N   0  0  0  0  0  0  0  0  0  0  0  0
   15.4064   -2.3239    3.0651 H   0  0  0  0  0  0  0  0  0  0  0  0
   13.6669   -2.0837    3.3177 H   0  0  0  0  0  0  0  0  0  0  0  0
   15.2397   -2.9273    0.6409 N   0  0  0  0  0  4  0  0  0  0  0  0
   16.2067   -2.9924    0.9702 H   0  0  0  0  0  0  0  0  0  0  0  0
   15.3137   -0.8412   -1.4769 C   0  0  0  0  0  0  0  0  0  0  0  0
   14.8669   -0.4987   -0.5481 H   0  0  0  0  0  0  0  0  0  0  0  0
   15.4687    1.9932   -0.7967 C   0  0  0  0  0  0  0  0  0  0  0  0
   15.3642    1.2714    0.0076 H   0  0  0  0  0  0  0  0  0  0  0  0
   15.3944    3.3625   -0.5587 C   0  0  0  0  0  0  0  0  0  0  0  0
   15.2079    3.7410    0.4387 H   0  0  0  0  0  0  0  0  0  0  0  0
  1  2  1  0
  2  3  2  0
  3  4  1  0
  4  5  1  0
  4  6  2  0
  6  7  1  0
  7  8  2  0
  8  9  1  0
  8 10  1  0
 10 11  1  0
 10 12  2  0
 12 13  1  0
 12 14  1  0
 15 14  1  6
 15 16  1  0
 16 17  2  0
 17 18  1  0
 17 19  1  0
 19 20  1  0
 19 21  2  0
 21 22  1  0
 21 23  1  0
 23 24  1  0
 23 25  2  0
 25 26  1  0
 15 27  1  0
 27 28  2  0
 27 29  1  0
 29 30  1  0
 30 31  1  0
 31 32  1  0
 32 33  1  0
 32 34  1  0
 32 35  1  0
 31 36  2  0
 36 37  1  0
 37 38  1  0
 38 39  1  0
 39 40  1  0
 39 41  1  0
 39 42  1  0
 29 43  1  0
 43 44  1  0
 44 45  1  0
 44 46  1  0
 43 47  2  0
 47 48  1  0
 14 49  2  0
 49 50  1  0
  6 51  1  0
 51 52  1  0
 51 53  2  0
 53 54  1  0
 53  2  1  0
 49  7  1  0
 47 15  1  0
 25 16  1  0
 38 30  2  0
M  CHG  1  47   1
M  END
>  <score>  (243) 
5.56657

$$$$

     RDKit          3D

 58 62  0  0  0  0  0  0  0  0999 V2000
    8.9934   -2.4675   -1.6420 H   0  0  0  0  0  0  0  0  0  0  0  0
    9.5466   -2.6395   -0.8691 O   0  0  0  0  0  0  0  0  0  0  0  0
    9.4625   -3.9767   -0.7292 C   0  0  0  0  0  0  0  0  0  0  0  0
    8.7718   -4.6643   -1.4629 O   0  0  0  0  0  0  0  0  0  0  0  0
   10.2167   -4.6302    0.3588 C   0  0  0  0  0  0  0  0  0  0  0  0
   11.1454   -4.1022    1.2236 C   0  0  0  0  0  0  0  0  0  0  0  0
   11.6726   -2.6919    1.3029 C   0  0  0  0  0  0  0  0  0  0  0  0
   11.7111   -2.3542    2.3453 H   0  0  0  0  0  0  0  0  0  0  0  0
   11.0046   -2.0031    0.7667 H   0  0  0  0  0  0  0  0  0  0  0  0
   13.0061   -2.6971    0.7116 N   0  0  0  0  0  0  0  0  0  0  0  0
   13.2862   -3.0375   -0.5936 C   0  0  0  0  0  0  0  0  0  0  0  0
   12.4182   -3.1070   -1.4586 O   0  0  0  0  0  0  0  0  0  0  0  0
   14.8028   -3.2501   -0.7819 C   0  0  1  0  0  0  0  0  0  0  0  0
   15.1661   -4.7163   -1.0707 C   0  0  0  0  0  0  0  0  0  0  0  0
   16.3866   -5.2386   -0.6070 C   0  0  0  0  0  0  0  0  0  0  0  0
   17.0690   -4.5898   -0.0667 H   0  0  0  0  0  0  0  0  0  0  0  0
   16.7289   -6.5819   -0.8011 C   0  0  0  0  0  0  0  0  0  0  0  0
   17.6734   -6.9562   -0.4180 H   0  0  0  0  0  0  0  0  0  0  0  0
   15.8547   -7.4398   -1.4716 C   0  0  0  0  0  0  0  0  0  0  0  0
   16.1213   -8.4854   -1.6114 H   0  0  0  0  0  0  0  0  0  0  0  0
   14.6430   -6.9419   -1.9603 C   0  0  0  0  0  0  0  0  0  0  0  0
   13.9711   -7.6137   -2.4876 H   0  0  0  0  0  0  0  0  0  0  0  0
   14.3012   -5.5911   -1.7671 C   0  0  0  0  0  0  0  0  0  0  0  0
   13.3519   -5.2356   -2.1573 H   0  0  0  0  0  0  0  0  0  0  0  0
   15.3763   -2.2438   -1.7844 C   0  0  0  0  0  0  0  0  0  0  0  0
   15.9441   -2.6443   -3.0066 C   0  0  0  0  0  0  0  0  0  0  0  0
   16.0058   -3.6998   -3.2610 H   0  0  0  0  0  0  0  0  0  0  0  0
   16.4304   -1.6906   -3.9104 C   0  0  0  0  0  0  0  0  0  0  0  0
   16.8664   -2.0084   -4.8528 H   0  0  0  0  0  0  0  0  0  0  0  0
   16.3456   -0.3232   -3.6141 C   0  0  0  0  0  0  0  0  0  0  0  0
   16.7299    0.4009   -4.3260 H   0  0  0  0  0  0  0  0  0  0  0  0
   15.7746    0.1197   -2.4101 C   0  0  0  0  0  0  0  0  0  0  0  0
   15.6846    1.5726   -2.0946 C   0  0  0  0  0  0  0  0  0  0  0  0
   15.8639    2.5541   -3.0867 C   0  0  0  0  0  0  0  0  0  0  0  0
   16.0420    2.2311   -4.1068 H   0  0  0  0  0  0  0  0  0  0  0  0
   15.8208    3.8813   -2.8480 N   0  0  0  0  0  0  0  0  0  0  0  0
   15.5857    4.3019   -1.5956 C   0  0  0  0  0  0  0  0  0  0  0  0
   15.5695    5.3706   -1.3885 H   0  0  0  0  0  0  0  0  0  0  0  0
   15.3703    3.4024   -0.5506 C   0  0  0  0  0  0  0  0  0  0  0  0
   15.1683    3.7852    0.4439 H   0  0  0  0  0  0  0  0  0  0  0  0
   15.4285    2.0278   -0.7963 C   0  0  0  0  0  0  0  0  0  0  0  0
   15.2944    1.3176    0.0104 H   0  0  0  0  0  0  0  0  0  0  0  0
   15.3020   -0.8586   -1.5129 C   0  0  0  0  0  0  0  0  0  0  0  0
   14.8656   -0.5320   -0.5756 H   0  0  0  0  0  0  0  0  0  0  0  0
   15.2102   -2.9037    0.5977 N   0  0  0  0  0  4  0  0  0  0  0  0
   16.1816   -2.9037    0.9089 H   0  0  0  0  0  0  0  0  0  0  0  0
   14.2090   -2.6535    1.3757 C   0  0  0  0  0  0  0  0  0  0  0  0
   14.3912   -2.3676    2.6974 N   0  0  0  0  0  0  0  0  0  0  0  0
   13.6109   -2.0100    3.2441 H   0  0  0  0  0  0  0  0  0  0  0  0
   15.3316   -2.4027    3.0920 H   0  0  0  0  0  0  0  0  0  0  0  0
   11.5486   -5.1954    2.0827 C   0  0  0  0  0  0  0  0  0  0  0  0
   12.5515   -5.1018    3.1726 C   0  0  0  0  0  0  0  0  0  0  0  0
   12.4788   -5.9719    3.8281 H   0  0  0  0  0  0  0  0  0  0  0  0
   13.5388   -5.0711    2.7135 H   0  0  0  0  0  0  0  0  0  0  0  0
   12.4201   -4.2008    3.7739 H   0  0  0  0  0  0  0  0  0  0  0  0
   10.9391   -6.3050    1.7608 N   0  0  0  0  0  0  0  0  0  0  0  0
   10.1348   -5.9731    0.7199 N   0  0  0  0  0  0  0  0  0  0  0  0
    9.5630   -6.6664    0.2400 H   0  0  0  0  0  0  0  0  0  0  0  0
  1  2  1  0
  2  3  1  0
  3  4  2  0
  3  5  1  0
  5  6  2  0
  6  7  1  0
  7  8  1  0
  7  9  1  0
  7 10  1  0
 10 11  1  0
 11 12  2  0
 11 13  1  0
 13 14  1  6
 14 15  2  0
 15 16  1  0
 15 17  1  0
 17 18  1  0
 17 19  2  0
 19 20  1  0
 19 21  1  0
 21 22  1  0
 21 23  2  0
 23 24  1  0
 13 25  1  0
 25 26  2  0
 26 27  1  0
 26 28  1  0
 28 29  1  0
 28 30  2  0
 30 31  1  0
 30 32  1  0
 32 33  1  0
 33 34  2  0
 34 35  1  0
 34 36  1  0
 36 37  2  0
 37 38  1  0
 37 39  1  0
 39 40  1  0
 39 41  2  0
 41 42  1  0
 32 43  2  0
 43 44  1  0
 13 45  1  0
 45 46  1  0
 45 47  2  0
 47 48  1  0
 48 49  1  0
 48 50  1  0
  6 51  1  0
 51 52  1  0
 52 53  1  0
 52 54  1  0
 52 55  1  0
 51 56  2  0
 56 57  1  0
 57 58  1  0
 57  5  1  0
 47 10  1  0
 23 14  1  0
 43 25  1  0
 41 33  1  0
M  CHG  1  45   1
M  END
>  <score>  (244) 
5.5657

$$$$

     RDKit          3D

 53 57  0  0  0  0  0  0  0  0999 V2000
   15.5495    5.3448   -1.4024 H   0  0  0  0  0  0  0  0  0  0  0  0
   15.5869    4.2784   -1.6056 C   0  0  0  0  0  0  0  0  0  0  0  0
   15.8317    3.8647   -2.8576 N   0  0  0  0  0  0  0  0  0  0  0  0
   15.8822    2.5396   -3.0936 C   0  0  0  0  0  0  0  0  0  0  0  0
   16.0692    2.2157   -4.1122 H   0  0  0  0  0  0  0  0  0  0  0  0
   15.6966    1.5654   -2.0959 C   0  0  0  0  0  0  0  0  0  0  0  0
   15.7766    0.1205   -2.4043 C   0  0  0  0  0  0  0  0  0  0  0  0
   16.3334   -0.3196   -3.6124 C   0  0  0  0  0  0  0  0  0  0  0  0
   16.7176    0.4098   -4.3191 H   0  0  0  0  0  0  0  0  0  0  0  0
   16.4164   -1.6848   -3.9069 C   0  0  0  0  0  0  0  0  0  0  0  0
   16.8634   -2.0032   -4.8432 H   0  0  0  0  0  0  0  0  0  0  0  0
   15.9351   -2.6324   -2.9944 C   0  0  0  0  0  0  0  0  0  0  0  0
   16.0001   -3.6890   -3.2367 H   0  0  0  0  0  0  0  0  0  0  0  0
   15.3749   -2.2298   -1.7703 C   0  0  0  0  0  0  0  0  0  0  0  0
   14.8059   -3.2341   -0.7658 C   0  0  2  0  0  0  0  0  0  0  0  0
   15.1771   -4.6958   -1.0575 C   0  0  0  0  0  0  0  0  0  0  0  0
   16.3977   -5.2219   -0.5974 C   0  0  0  0  0  0  0  0  0  0  0  0
   17.0852   -4.5769   -0.0590 H   0  0  0  0  0  0  0  0  0  0  0  0
   16.7346   -6.5663   -0.7980 C   0  0  0  0  0  0  0  0  0  0  0  0
   17.6770   -6.9486   -0.4158 H   0  0  0  0  0  0  0  0  0  0  0  0
   15.8547   -7.4135   -1.4763 C   0  0  0  0  0  0  0  0  0  0  0  0
   16.1104   -8.4604   -1.6196 H   0  0  0  0  0  0  0  0  0  0  0  0
   14.6441   -6.9094   -1.9619 C   0  0  0  0  0  0  0  0  0  0  0  0
   13.9610   -7.5717   -2.4872 H   0  0  0  0  0  0  0  0  0  0  0  0
   14.3085   -5.5605   -1.7570 C   0  0  0  0  0  0  0  0  0  0  0  0
   13.3574   -5.1944   -2.1318 H   0  0  0  0  0  0  0  0  0  0  0  0
   13.2835   -3.0317   -0.5930 C   0  0  0  0  0  0  0  0  0  0  0  0
   12.4240   -3.1936   -1.4587 O   0  0  0  0  0  0  0  0  0  0  0  0
   13.0099   -2.6393    0.6995 N   0  0  0  0  0  0  0  0  0  0  0  0
   11.4861   -2.7237    1.4225 S   0  0  0  0  0  0  0  0  0  0  0  0
   11.5140   -4.4650    1.6020 C   0  0  0  0  0  0  0  0  0  0  0  0
   12.0854   -5.0201    2.7425 C   0  0  0  0  0  0  0  0  0  0  0  0
   12.4644   -4.3769    3.5350 H   0  0  0  0  0  0  0  0  0  0  0  0
   12.2389   -6.4015    2.8153 C   0  0  0  0  0  0  0  0  0  0  0  0
   12.8449   -6.8090    3.5954 H   0  0  0  0  0  0  0  0  0  0  0  0
   11.7293   -7.2497    1.8381 C   0  0  0  0  0  0  0  0  0  0  0  0
   11.8523   -8.3273    1.9298 H   0  0  0  0  0  0  0  0  0  0  0  0
   11.1017   -6.6875    0.7278 C   0  0  0  0  0  0  0  0  0  0  0  0
   10.7006   -7.3354   -0.0408 H   0  0  0  0  0  0  0  0  0  0  0  0
   11.0194   -5.2980    0.5902 C   0  0  0  0  0  0  0  0  0  0  0  0
   10.5576   -4.8636   -0.2929 H   0  0  0  0  0  0  0  0  0  0  0  0
   14.2116   -2.6277    1.3763 C   0  0  0  0  0  0  0  0  0  0  0  0
   14.3883   -2.3912    2.7101 N   0  0  0  0  0  0  0  0  0  0  0  0
   15.3381   -2.3252    3.0804 H   0  0  0  0  0  0  0  0  0  0  0  0
   13.5958   -2.0839    3.2715 H   0  0  0  0  0  0  0  0  0  0  0  0
   15.2214   -2.8863    0.6100 N   0  0  0  0  0  4  0  0  0  0  0  0
   16.1894   -2.9554    0.9399 H   0  0  0  0  0  0  0  0  0  0  0  0
   15.3024   -0.8472   -1.4988 C   0  0  0  0  0  0  0  0  0  0  0  0
   14.8564   -0.5172   -0.5658 H   0  0  0  0  0  0  0  0  0  0  0  0
   15.4457    2.0109   -0.7961 C   0  0  0  0  0  0  0  0  0  0  0  0
   15.3277    1.2929    0.0086 H   0  0  0  0  0  0  0  0  0  0  0  0
   15.3829    3.3826   -0.5546 C   0  0  0  0  0  0  0  0  0  0  0  0
   15.1884    3.7627    0.4413 H   0  0  0  0  0  0  0  0  0  0  0  0
  1  2  1  0
  2  3  2  0
  3  4  1  0
  4  5  1  0
  4  6  2  0
  6  7  1  0
  7  8  2  0
  8  9  1  0
  8 10  1  0
 10 11  1  0
 10 12  2  0
 12 13  1  0
 12 14  1  0
 15 14  1  6
 15 16  1  0
 16 17  2  0
 17 18  1  0
 17 19  1  0
 19 20  1  0
 19 21  2  0
 21 22  1  0
 21 23  1  0
 23 24  1  0
 23 25  2  0
 25 26  1  0
 15 27  1  0
 27 28  2  0
 27 29  1  0
 29 30  1  0
 30 31  1  0
 31 32  2  0
 32 33  1  0
 32 34  1  0
 34 35  1  0
 34 36  2  0
 36 37  1  0
 36 38  1  0
 38 39  1  0
 38 40  2  0
 40 41  1  0
 29 42  1  0
 42 43  1  0
 43 44  1  0
 43 45  1  0
 42 46  2  0
 46 47  1  0
 14 48  2  0
 48 49  1  0
  6 50  1  0
 50 51  1  0
 50 52  2  0
 52 53  1  0
 52  2  1  0
 48  7  1  0
 46 15  1  0
 25 16  1  0
 40 31  1  0
M  CHG  1  46   1
M  END
>  <score>  (245) 
5.56524

$$$$

     RDKit          3D

 48 51  0  0  0  0  0  0  0  0999 V2000
   15.5328    5.3262   -1.4145 H   0  0  0  0  0  0  0  0  0  0  0  0
   15.5838    4.2601   -1.6134 C   0  0  0  0  0  0  0  0  0  0  0  0
   15.8395    3.8490   -2.8646 N   0  0  0  0  0  0  0  0  0  0  0  0
   15.8982    2.5251   -3.0987 C   0  0  0  0  0  0  0  0  0  0  0  0
   16.0948    2.1977   -4.1160 H   0  0  0  0  0  0  0  0  0  0  0  0
   15.7102    1.5564   -2.0968 C   0  0  0  0  0  0  0  0  0  0  0  0
   15.7725    0.1178   -2.3970 C   0  0  0  0  0  0  0  0  0  0  0  0
   16.3285   -0.3204   -3.6038 C   0  0  0  0  0  0  0  0  0  0  0  0
   16.7068    0.4106   -4.3135 H   0  0  0  0  0  0  0  0  0  0  0  0
   16.4036   -1.6845   -3.8916 C   0  0  0  0  0  0  0  0  0  0  0  0
   16.8554   -2.0076   -4.8249 H   0  0  0  0  0  0  0  0  0  0  0  0
   15.9154   -2.6243   -2.9743 C   0  0  0  0  0  0  0  0  0  0  0  0
   15.9837   -3.6812   -3.2083 H   0  0  0  0  0  0  0  0  0  0  0  0
   15.3583   -2.2202   -1.7518 C   0  0  0  0  0  0  0  0  0  0  0  0
   14.8002   -3.2259   -0.7488 C   0  0  2  0  0  0  0  0  0  0  0  0
   15.1696   -4.6776   -1.0420 C   0  0  0  0  0  0  0  0  0  0  0  0
   16.3916   -5.1979   -0.5898 C   0  0  0  0  0  0  0  0  0  0  0  0
   17.0762   -4.5517   -0.0478 H   0  0  0  0  0  0  0  0  0  0  0  0
   16.7257   -6.5399   -0.7968 C   0  0  0  0  0  0  0  0  0  0  0  0
   17.6686   -6.9221   -0.4170 H   0  0  0  0  0  0  0  0  0  0  0  0
   15.8436   -7.3819   -1.4789 C   0  0  0  0  0  0  0  0  0  0  0  0
   16.1036   -8.4263   -1.6307 H   0  0  0  0  0  0  0  0  0  0  0  0
   14.6337   -6.8742   -1.9630 C   0  0  0  0  0  0  0  0  0  0  0  0
   13.9534   -7.5338   -2.4941 H   0  0  0  0  0  0  0  0  0  0  0  0
   14.2957   -5.5298   -1.7460 C   0  0  0  0  0  0  0  0  0  0  0  0
   13.3421   -5.1610   -2.1139 H   0  0  0  0  0  0  0  0  0  0  0  0
   13.2883   -3.0262   -0.5707 C   0  0  0  0  0  0  0  0  0  0  0  0
   12.4025   -2.9748   -1.4170 O   0  0  0  0  0  0  0  0  0  0  0  0
   13.0511   -2.7603    0.7323 N   0  0  0  0  0  0  0  0  0  0  0  0
   11.6154   -2.0563    1.1267 S   0  0  0  0  0  0  0  0  0  0  0  0
   10.6294   -2.3627    0.0864 O   0  0  0  0  0  0  0  0  0  0  0  0
   11.1783   -2.4967    2.4472 O   0  0  0  0  0  0  0  0  0  0  0  0
   11.9736   -0.3221    1.0987 C   0  0  0  0  0  0  0  0  0  0  0  0
   11.0410    0.2275    1.0484 H   0  0  0  0  0  0  0  0  0  0  0  0
   12.5821   -0.0884    0.2263 H   0  0  0  0  0  0  0  0  0  0  0  0
   12.4813   -0.0813    2.0283 H   0  0  0  0  0  0  0  0  0  0  0  0
   14.2082   -2.5286    1.3739 C   0  0  0  0  0  0  0  0  0  0  0  0
   14.3012   -2.0862    2.6529 N   0  0  0  0  0  0  0  0  0  0  0  0
   13.4601   -2.1982    3.2160 H   0  0  0  0  0  0  0  0  0  0  0  0
   15.1933   -2.2796    3.1087 H   0  0  0  0  0  0  0  0  0  0  0  0
   15.2053   -2.8681    0.6302 N   0  0  0  0  0  4  0  0  0  0  0  0
   16.1695   -2.9245    0.9544 H   0  0  0  0  0  0  0  0  0  0  0  0
   15.2870   -0.8387   -1.4862 C   0  0  0  0  0  0  0  0  0  0  0  0
   14.8530   -0.4939   -0.5522 H   0  0  0  0  0  0  0  0  0  0  0  0
   15.4725    1.9962   -0.7954 C   0  0  0  0  0  0  0  0  0  0  0  0
   15.3621    1.2771    0.0096 H   0  0  0  0  0  0  0  0  0  0  0  0
   15.3968    3.3649   -0.5585 C   0  0  0  0  0  0  0  0  0  0  0  0
   15.2074    3.7412    0.4394 H   0  0  0  0  0  0  0  0  0  0  0  0
  1  2  1  0
  2  3  2  0
  3  4  1  0
  4  5  1  0
  4  6  2  0
  6  7  1  0
  7  8  2  0
  8  9  1  0
  8 10  1  0
 10 11  1  0
 10 12  2  0
 12 13  1  0
 12 14  1  0
 15 14  1  6
 15 16  1  0
 16 17  2  0
 17 18  1  0
 17 19  1  0
 19 20  1  0
 19 21  2  0
 21 22  1  0
 21 23  1  0
 23 24  1  0
 23 25  2  0
 25 26  1  0
 15 27  1  0
 27 28  2  0
 27 29  1  0
 29 30  1  0
 30 31  2  0
 30 32  2  0
 30 33  1  0
 33 34  1  0
 33 35  1  0
 33 36  1  0
 29 37  1  0
 37 38  1  0
 38 39  1  0
 38 40  1  0
 37 41  2  0
 41 42  1  0
 14 43  2  0
 43 44  1  0
  6 45  1  0
 45 46  1  0
 45 47  2  0
 47 48  1  0
 47  2  1  0
 43  7  1  0
 41 15  1  0
 25 16  1  0
M  CHG  1  41   1
M  END
>  <score>  (246) 
5.56498

$$$$

     RDKit          3D

 52 55  0  0  0  0  0  0  0  0999 V2000
   15.5426    5.3369   -1.4044 H   0  0  0  0  0  0  0  0  0  0  0  0
   15.5855    4.2716   -1.6102 C   0  0  0  0  0  0  0  0  0  0  0  0
   15.8335    3.8601   -2.8634 N   0  0  0  0  0  0  0  0  0  0  0  0
   15.8888    2.5347   -3.0975 C   0  0  0  0  0  0  0  0  0  0  0  0
   16.0833    2.1988   -4.1117 H   0  0  0  0  0  0  0  0  0  0  0  0
   15.7044    1.5644   -2.0973 C   0  0  0  0  0  0  0  0  0  0  0  0
   15.7743    0.1226   -2.3968 C   0  0  0  0  0  0  0  0  0  0  0  0
   16.3295   -0.3168   -3.6024 C   0  0  0  0  0  0  0  0  0  0  0  0
   16.7076    0.4200   -4.3046 H   0  0  0  0  0  0  0  0  0  0  0  0
   16.4083   -1.6828   -3.8954 C   0  0  0  0  0  0  0  0  0  0  0  0
   16.8620   -2.0066   -4.8291 H   0  0  0  0  0  0  0  0  0  0  0  0
   15.9193   -2.6263   -2.9790 C   0  0  0  0  0  0  0  0  0  0  0  0
   15.9860   -3.6854   -3.2130 H   0  0  0  0  0  0  0  0  0  0  0  0
   15.3540   -2.2213   -1.7560 C   0  0  0  0  0  0  0  0  0  0  0  0
   14.7802   -3.2292   -0.7575 C   0  0  2  0  0  0  0  0  0  0  0  0
   15.1608   -4.6827   -1.0565 C   0  0  0  0  0  0  0  0  0  0  0  0
   16.3847   -5.2038   -0.5989 C   0  0  0  0  0  0  0  0  0  0  0  0
   17.0650   -4.5558   -0.0542 H   0  0  0  0  0  0  0  0  0  0  0  0
   16.7256   -6.5473   -0.7981 C   0  0  0  0  0  0  0  0  0  0  0  0
   17.6681   -6.9318   -0.4157 H   0  0  0  0  0  0  0  0  0  0  0  0
   15.8479   -7.3945   -1.4793 C   0  0  0  0  0  0  0  0  0  0  0  0
   16.1050   -8.4412   -1.6210 H   0  0  0  0  0  0  0  0  0  0  0  0
   14.6369   -6.8918   -1.9659 C   0  0  0  0  0  0  0  0  0  0  0  0
   13.9583   -7.5581   -2.4914 H   0  0  0  0  0  0  0  0  0  0  0  0
   14.2948   -5.5458   -1.7558 C   0  0  0  0  0  0  0  0  0  0  0  0
   13.3411   -5.1779   -2.1222 H   0  0  0  0  0  0  0  0  0  0  0  0
   13.2528   -3.0258   -0.5600 C   0  0  0  0  0  0  0  0  0  0  0  0
   12.3228   -3.1009   -1.3589 O   0  0  0  0  0  0  0  0  0  0  0  0
   13.0277   -2.8043    0.7627 N   0  0  0  0  0  0  0  0  0  0  0  0
   11.8171   -2.4861    1.2852 C   0  0  0  0  0  0  0  0  0  0  0  0
   11.0842   -1.7689    0.6207 O   0  0  0  0  0  0  0  0  0  0  0  0
   11.3934   -3.1504    2.4329 N   0  0  0  0  0  0  0  0  0  0  0  0
   11.9525   -4.4532    2.7874 C   0  0  0  0  0  0  0  0  0  0  0  0
   12.5198   -4.8906    1.9643 H   0  0  0  0  0  0  0  0  0  0  0  0
   12.6123   -4.3677    3.6521 H   0  0  0  0  0  0  0  0  0  0  0  0
   11.1458   -5.1492    3.0315 H   0  0  0  0  0  0  0  0  0  0  0  0
   10.2654   -2.6972    3.2444 C   0  0  0  0  0  0  0  0  0  0  0  0
    9.3601   -2.5894    2.6472 H   0  0  0  0  0  0  0  0  0  0  0  0
   10.0595   -3.4174    4.0408 H   0  0  0  0  0  0  0  0  0  0  0  0
   10.4794   -1.7499    3.7312 H   0  0  0  0  0  0  0  0  0  0  0  0
   14.2077   -2.7196    1.4203 C   0  0  0  0  0  0  0  0  0  0  0  0
   14.3493   -2.4256    2.7433 N   0  0  0  0  0  0  0  0  0  0  0  0
   13.5522   -2.0514    3.2516 H   0  0  0  0  0  0  0  0  0  0  0  0
   15.2913   -2.2809    3.1012 H   0  0  0  0  0  0  0  0  0  0  0  0
   15.2045   -2.9178    0.6313 N   0  0  0  0  0  4  0  0  0  0  0  0
   16.1767   -2.9486    0.9426 H   0  0  0  0  0  0  0  0  0  0  0  0
   15.2906   -0.8383   -1.4901 C   0  0  0  0  0  0  0  0  0  0  0  0
   14.8517   -0.4936   -0.5599 H   0  0  0  0  0  0  0  0  0  0  0  0
   15.4603    2.0043   -0.7987 C   0  0  0  0  0  0  0  0  0  0  0  0
   15.3485    1.2724   -0.0053 H   0  0  0  0  0  0  0  0  0  0  0  0
   15.3888    3.3748   -0.5587 C   0  0  0  0  0  0  0  0  0  0  0  0
   15.1933    3.7557    0.4363 H   0  0  0  0  0  0  0  0  0  0  0  0
  1  2  1  0
  2  3  2  0
  3  4  1  0
  4  5  1  0
  4  6  2  0
  6  7  1  0
  7  8  2  0
  8  9  1  0
  8 10  1  0
 10 11  1  0
 10 12  2  0
 12 13  1  0
 12 14  1  0
 15 14  1  6
 15 16  1  0
 16 17  2  0
 17 18  1  0
 17 19  1  0
 19 20  1  0
 19 21  2  0
 21 22  1  0
 21 23  1  0
 23 24  1  0
 23 25  2  0
 25 26  1  0
 15 27  1  0
 27 28  2  0
 27 29  1  0
 29 30  1  0
 30 31  2  0
 30 32  1  0
 32 33  1  0
 33 34  1  0
 33 35  1  0
 33 36  1  0
 32 37  1  0
 37 38  1  0
 37 39  1  0
 37 40  1  0
 29 41  1  0
 41 42  1  0
 42 43  1  0
 42 44  1  0
 41 45  2  0
 45 46  1  0
 14 47  2  0
 47 48  1  0
  6 49  1  0
 49 50  1  0
 49 51  2  0
 51 52  1  0
 51  2  1  0
 47  7  1  0
 45 15  1  0
 25 16  1  0
M  CHG  1  45   1
M  END
>  <score>  (247) 
5.56497

$$$$

     RDKit          3D

 51 55  0  0  0  0  0  0  0  0999 V2000
   15.5473    5.3430   -1.3992 H   0  0  0  0  0  0  0  0  0  0  0  0
   15.5869    4.2775   -1.6080 C   0  0  0  0  0  0  0  0  0  0  0  0
   15.8269    3.8642   -2.8619 N   0  0  0  0  0  0  0  0  0  0  0  0
   15.8843    2.5382   -3.0965 C   0  0  0  0  0  0  0  0  0  0  0  0
   16.0792    2.1974   -4.1085 H   0  0  0  0  0  0  0  0  0  0  0  0
   15.7019    1.5675   -2.0974 C   0  0  0  0  0  0  0  0  0  0  0  0
   15.7749    0.1234   -2.3996 C   0  0  0  0  0  0  0  0  0  0  0  0
   16.3291   -0.3179   -3.6043 C   0  0  0  0  0  0  0  0  0  0  0  0
   16.7060    0.4258   -4.2986 H   0  0  0  0  0  0  0  0  0  0  0  0
   16.4130   -1.6845   -3.8958 C   0  0  0  0  0  0  0  0  0  0  0  0
   16.8622   -2.0051   -4.8298 H   0  0  0  0  0  0  0  0  0  0  0  0
   15.9260   -2.6301   -2.9830 C   0  0  0  0  0  0  0  0  0  0  0  0
   15.9881   -3.6895   -3.2158 H   0  0  0  0  0  0  0  0  0  0  0  0
   15.3569   -2.2221   -1.7632 C   0  0  0  0  0  0  0  0  0  0  0  0
   14.7680   -3.2253   -0.7656 C   0  0  2  0  0  0  0  0  0  0  0  0
   15.1548   -4.6853   -1.0571 C   0  0  0  0  0  0  0  0  0  0  0  0
   16.3813   -5.2061   -0.5970 C   0  0  0  0  0  0  0  0  0  0  0  0
   17.0643   -4.5588   -0.0545 H   0  0  0  0  0  0  0  0  0  0  0  0
   16.7264   -6.5499   -0.7998 C   0  0  0  0  0  0  0  0  0  0  0  0
   17.6656   -6.9395   -0.4168 H   0  0  0  0  0  0  0  0  0  0  0  0
   15.8537   -7.4002   -1.4814 C   0  0  0  0  0  0  0  0  0  0  0  0
   16.1035   -8.4493   -1.6164 H   0  0  0  0  0  0  0  0  0  0  0  0
   14.6416   -6.9001   -1.9652 C   0  0  0  0  0  0  0  0  0  0  0  0
   13.9627   -7.5661   -2.4890 H   0  0  0  0  0  0  0  0  0  0  0  0
   14.2951   -5.5546   -1.7556 C   0  0  0  0  0  0  0  0  0  0  0  0
   13.3436   -5.1836   -2.1241 H   0  0  0  0  0  0  0  0  0  0  0  0
   13.2384   -2.9990   -0.5932 C   0  0  0  0  0  0  0  0  0  0  0  0
   12.3442   -3.1192   -1.4261 O   0  0  0  0  0  0  0  0  0  0  0  0
   12.9934   -2.7007    0.7200 N   0  0  0  0  0  0  0  0  0  0  0  0
   11.7511   -2.5313    1.2526 C   0  0  0  0  0  0  0  0  0  0  0  0
   10.8981   -1.7908    0.5484 N   0  0  0  0  0  0  0  0  0  0  0  0
    9.6647   -1.5982    1.0528 C   0  0  0  0  0  0  0  0  0  0  0  0
    8.9755   -0.9488    0.5163 H   0  0  0  0  0  0  0  0  0  0  0  0
    9.2210   -2.1961    2.2446 C   0  0  0  0  0  0  0  0  0  0  0  0
    7.9585   -1.9889    2.6842 F   0  0  0  0  0  0  0  0  0  0  0  0
   10.1026   -3.0074    2.9608 C   0  0  0  0  0  0  0  0  0  0  0  0
    9.7704   -3.4961    3.8781 H   0  0  0  0  0  0  0  0  0  0  0  0
   11.4008   -3.1494    2.4527 C   0  0  0  0  0  0  0  0  0  0  0  0
   12.1544   -3.7489    2.9456 H   0  0  0  0  0  0  0  0  0  0  0  0
   14.1712   -2.6664    1.3973 C   0  0  0  0  0  0  0  0  0  0  0  0
   14.3507   -2.4036    2.7231 N   0  0  0  0  0  0  0  0  0  0  0  0
   13.5884   -1.9997    3.2653 H   0  0  0  0  0  0  0  0  0  0  0  0
   15.3087   -2.3165    3.0601 H   0  0  0  0  0  0  0  0  0  0  0  0
   15.1758   -2.9096    0.6252 N   0  0  0  0  0  4  0  0  0  0  0  0
   16.1415   -2.9528    0.9607 H   0  0  0  0  0  0  0  0  0  0  0  0
   15.2949   -0.8384   -1.4929 C   0  0  0  0  0  0  0  0  0  0  0  0
   14.8548   -0.4936   -0.5621 H   0  0  0  0  0  0  0  0  0  0  0  0
   15.4536    2.0072   -0.7998 C   0  0  0  0  0  0  0  0  0  0  0  0
   15.3447    1.2660   -0.0140 H   0  0  0  0  0  0  0  0  0  0  0  0
   15.3867    3.3799   -0.5579 C   0  0  0  0  0  0  0  0  0  0  0  0
   15.1872    3.7644    0.4338 H   0  0  0  0  0  0  0  0  0  0  0  0
  1  2  1  0
  2  3  2  0
  3  4  1  0
  4  5  1  0
  4  6  2  0
  6  7  1  0
  7  8  2  0
  8  9  1  0
  8 10  1  0
 10 11  1  0
 10 12  2  0
 12 13  1  0
 12 14  1  0
 15 14  1  6
 15 16  1  0
 16 17  2  0
 17 18  1  0
 17 19  1  0
 19 20  1  0
 19 21  2  0
 21 22  1  0
 21 23  1  0
 23 24  1  0
 23 25  2  0
 25 26  1  0
 15 27  1  0
 27 28  2  0
 27 29  1  0
 29 30  1  0
 30 31  2  0
 31 32  1  0
 32 33  1  0
 32 34  2  0
 34 35  1  0
 34 36  1  0
 36 37  1  0
 36 38  2  0
 38 39  1  0
 29 40  1  0
 40 41  1  0
 41 42  1  0
 41 43  1  0
 40 44  2  0
 44 45  1  0
 14 46  2  0
 46 47  1  0
  6 48  1  0
 48 49  1  0
 48 50  2  0
 50 51  1  0
 50  2  1  0
 46  7  1  0
 44 15  1  0
 25 16  1  0
 38 30  1  0
M  CHG  1  44   1
M  END
>  <score>  (248) 
5.5634

$$$$

     RDKit          3D

 57 60  0  0  0  0  0  0  0  0999 V2000
   15.5693    5.3722   -1.3877 H   0  0  0  0  0  0  0  0  0  0  0  0
   15.5838    4.3032   -1.5957 C   0  0  0  0  0  0  0  0  0  0  0  0
   15.8193    3.8809   -2.8480 N   0  0  0  0  0  0  0  0  0  0  0  0
   15.8642    2.5529   -3.0878 C   0  0  0  0  0  0  0  0  0  0  0  0
   16.0462    2.2247   -4.1055 H   0  0  0  0  0  0  0  0  0  0  0  0
   15.6860    1.5708   -2.0962 C   0  0  0  0  0  0  0  0  0  0  0  0
   15.7712    0.1186   -2.4109 C   0  0  0  0  0  0  0  0  0  0  0  0
   16.3472   -0.3214   -3.6115 C   0  0  0  0  0  0  0  0  0  0  0  0
   16.7249    0.4083   -4.3208 H   0  0  0  0  0  0  0  0  0  0  0  0
   16.4325   -1.6894   -3.9091 C   0  0  0  0  0  0  0  0  0  0  0  0
   16.8656   -2.0064   -4.8534 H   0  0  0  0  0  0  0  0  0  0  0  0
   15.9445   -2.6451   -3.0061 C   0  0  0  0  0  0  0  0  0  0  0  0
   16.0041   -3.7018   -3.2566 H   0  0  0  0  0  0  0  0  0  0  0  0
   15.3758   -2.2442   -1.7845 C   0  0  0  0  0  0  0  0  0  0  0  0
   14.8109   -3.2525   -0.7829 C   0  0  2  0  0  0  0  0  0  0  0  0
   15.1732   -4.7160   -1.0727 C   0  0  0  0  0  0  0  0  0  0  0  0
   16.3920   -5.2375   -0.6095 C   0  0  0  0  0  0  0  0  0  0  0  0
   17.0672   -4.5860   -0.0633 H   0  0  0  0  0  0  0  0  0  0  0  0
   16.7299   -6.5815   -0.8032 C   0  0  0  0  0  0  0  0  0  0  0  0
   17.6722   -6.9562   -0.4165 H   0  0  0  0  0  0  0  0  0  0  0  0
   15.8538   -7.4398   -1.4725 C   0  0  0  0  0  0  0  0  0  0  0  0
   16.1206   -8.4856   -1.6115 H   0  0  0  0  0  0  0  0  0  0  0  0
   14.6431   -6.9385   -1.9615 C   0  0  0  0  0  0  0  0  0  0  0  0
   13.9720   -7.6112   -2.4878 H   0  0  0  0  0  0  0  0  0  0  0  0
   14.3040   -5.5877   -1.7670 C   0  0  0  0  0  0  0  0  0  0  0  0
   13.3539   -5.2309   -2.1546 H   0  0  0  0  0  0  0  0  0  0  0  0
   13.2964   -3.0389   -0.5923 C   0  0  0  0  0  0  0  0  0  0  0  0
   12.4284   -3.1065   -1.4597 O   0  0  0  0  0  0  0  0  0  0  0  0
   13.0173   -2.6688    0.7055 N   0  0  0  0  0  0  0  0  0  0  0  0
   11.6863   -2.5746    1.3110 C   0  0  0  0  0  0  0  0  0  0  0  0
   11.6860   -1.8102    2.0934 H   0  0  0  0  0  0  0  0  0  0  0  0
   10.9407   -2.2686    0.5663 H   0  0  0  0  0  0  0  0  0  0  0  0
   11.2948   -3.9250    1.9056 C   0  0  0  0  0  0  0  0  0  0  0  0
   12.0265   -4.2132    2.6645 H   0  0  0  0  0  0  0  0  0  0  0  0
   11.3176   -4.6860    1.1232 H   0  0  0  0  0  0  0  0  0  0  0  0
    9.8969   -3.8715    2.5315 C   0  0  0  0  0  0  0  0  0  0  0  0
    9.1652   -3.5804    1.7744 H   0  0  0  0  0  0  0  0  0  0  0  0
    9.8740   -3.1154    3.3199 H   0  0  0  0  0  0  0  0  0  0  0  0
    9.5069   -5.2303    3.1182 C   0  0  0  0  0  0  0  0  0  0  0  0
    9.5257   -5.9915    2.3343 H   0  0  0  0  0  0  0  0  0  0  0  0
   10.2323   -5.5257    3.8803 H   0  0  0  0  0  0  0  0  0  0  0  0
    8.1107   -5.1826    3.7417 C   0  0  0  0  0  0  0  0  0  0  0  0
    7.3615   -4.9129    2.9923 H   0  0  0  0  0  0  0  0  0  0  0  0
    8.0744   -4.4447    4.5478 H   0  0  0  0  0  0  0  0  0  0  0  0
    7.8434   -6.1594    4.1578 H   0  0  0  0  0  0  0  0  0  0  0  0
   14.2200   -2.6337    1.3675 C   0  0  0  0  0  0  0  0  0  0  0  0
   14.3949   -2.3518    2.6911 N   0  0  0  0  0  0  0  0  0  0  0  0
   15.3362   -2.3486    3.0870 H   0  0  0  0  0  0  0  0  0  0  0  0
   13.5825   -2.1474    3.2682 H   0  0  0  0  0  0  0  0  0  0  0  0
   15.2164   -2.8970    0.5932 N   0  0  0  0  0  4  0  0  0  0  0  0
   16.1849   -2.9141    0.9089 H   0  0  0  0  0  0  0  0  0  0  0  0
   15.2962   -0.8588   -1.5156 C   0  0  0  0  0  0  0  0  0  0  0  0
   14.8687   -0.5293   -0.5758 H   0  0  0  0  0  0  0  0  0  0  0  0
   15.4355    2.0248   -0.7973 C   0  0  0  0  0  0  0  0  0  0  0  0
   15.2983    1.3072    0.0028 H   0  0  0  0  0  0  0  0  0  0  0  0
   15.3724    3.4014   -0.5510 C   0  0  0  0  0  0  0  0  0  0  0  0
   15.1680    3.7877    0.4414 H   0  0  0  0  0  0  0  0  0  0  0  0
  1  2  1  0
  2  3  2  0
  3  4  1  0
  4  5  1  0
  4  6  2  0
  6  7  1  0
  7  8  2  0
  8  9  1  0
  8 10  1  0
 10 11  1  0
 10 12  2  0
 12 13  1  0
 12 14  1  0
 15 14  1  6
 15 16  1  0
 16 17  2  0
 17 18  1  0
 17 19  1  0
 19 20  1  0
 19 21  2  0
 21 22  1  0
 21 23  1  0
 23 24  1  0
 23 25  2  0
 25 26  1  0
 15 27  1  0
 27 28  2  0
 27 29  1  0
 29 30  1  0
 30 31  1  0
 30 32  1  0
 30 33  1  0
 33 34  1  0
 33 35  1  0
 33 36  1  0
 36 37  1  0
 36 38  1  0
 36 39  1  0
 39 40  1  0
 39 41  1  0
 39 42  1  0
 42 43  1  0
 42 44  1  0
 42 45  1  0
 29 46  1  0
 46 47  1  0
 47 48  1  0
 47 49  1  0
 46 50  2  0
 50 51  1  0
 14 52  2  0
 52 53  1  0
  6 54  1  0
 54 55  1  0
 54 56  2  0
 56 57  1  0
 56  2  1  0
 52  7  1  0
 50 15  1  0
 25 16  1  0
M  CHG  1  50   1
M  END
>  <score>  (249) 
5.56267

$$$$

     RDKit          3D

 61 65  0  0  0  0  0  0  0  0999 V2000
   15.5520    5.3502   -1.3949 H   0  0  0  0  0  0  0  0  0  0  0  0
   15.5867    4.2837   -1.6056 C   0  0  0  0  0  0  0  0  0  0  0  0
   15.8226    3.8675   -2.8602 N   0  0  0  0  0  0  0  0  0  0  0  0
   15.8797    2.5410   -3.0943 C   0  0  0  0  0  0  0  0  0  0  0  0
   16.0739    2.1985   -4.1050 H   0  0  0  0  0  0  0  0  0  0  0  0
   15.6968    1.5675   -2.0988 C   0  0  0  0  0  0  0  0  0  0  0  0
   15.7746    0.1222   -2.4067 C   0  0  0  0  0  0  0  0  0  0  0  0
   16.3313   -0.3155   -3.6124 C   0  0  0  0  0  0  0  0  0  0  0  0
   16.7080    0.4337   -4.2996 H   0  0  0  0  0  0  0  0  0  0  0  0
   16.4244   -1.6827   -3.9085 C   0  0  0  0  0  0  0  0  0  0  0  0
   16.8646   -2.0009   -4.8477 H   0  0  0  0  0  0  0  0  0  0  0  0
   15.9493   -2.6357   -2.9985 C   0  0  0  0  0  0  0  0  0  0  0  0
   16.0031   -3.6950   -3.2360 H   0  0  0  0  0  0  0  0  0  0  0  0
   15.3933   -2.2307   -1.7760 C   0  0  0  0  0  0  0  0  0  0  0  0
   14.8374   -3.2410   -0.7790 C   0  0  2  0  0  0  0  0  0  0  0  0
   15.1902   -4.7013   -1.0778 C   0  0  0  0  0  0  0  0  0  0  0  0
   16.4045   -5.2275   -0.6113 C   0  0  0  0  0  0  0  0  0  0  0  0
   17.0769   -4.5774   -0.0592 H   0  0  0  0  0  0  0  0  0  0  0  0
   16.7397   -6.5732   -0.8050 C   0  0  0  0  0  0  0  0  0  0  0  0
   17.6748   -6.9620   -0.4106 H   0  0  0  0  0  0  0  0  0  0  0  0
   15.8583   -7.4213   -1.4821 C   0  0  0  0  0  0  0  0  0  0  0  0
   16.1053   -8.4707   -1.6159 H   0  0  0  0  0  0  0  0  0  0  0  0
   14.6467   -6.9179   -1.9679 C   0  0  0  0  0  0  0  0  0  0  0  0
   13.9609   -7.5830   -2.4873 H   0  0  0  0  0  0  0  0  0  0  0  0
   14.3152   -5.5660   -1.7687 C   0  0  0  0  0  0  0  0  0  0  0  0
   13.3611   -5.1935   -2.1275 H   0  0  0  0  0  0  0  0  0  0  0  0
   13.3266   -3.0150   -0.6263 C   0  0  0  0  0  0  0  0  0  0  0  0
   12.4873   -3.1352   -1.5226 O   0  0  0  0  0  0  0  0  0  0  0  0
   13.0521   -2.6291    0.6733 N   0  0  0  0  0  0  0  0  0  0  0  0
   11.7855   -2.1626    1.1602 O   0  0  0  0  0  0  0  0  0  0  0  0
   11.0743   -3.1700    1.9008 C   0  0  0  0  0  0  0  0  0  0  0  0
   11.7865   -3.8361    2.4072 H   0  0  0  0  0  0  0  0  0  0  0  0
   10.2317   -3.9770    0.9096 C   0  0  0  0  0  0  0  0  0  0  0  0
   10.8896   -4.3733    0.1251 H   0  0  0  0  0  0  0  0  0  0  0  0
    9.7539   -4.8167    1.4271 H   0  0  0  0  0  0  0  0  0  0  0  0
    9.1442   -3.0871    0.2970 C   0  0  0  0  0  0  0  0  0  0  0  0
    8.5156   -3.6848   -0.3722 H   0  0  0  0  0  0  0  0  0  0  0  0
    9.6223   -2.2983   -0.2992 H   0  0  0  0  0  0  0  0  0  0  0  0
    8.3190   -2.4901    1.3703 N   0  0  0  0  0  0  0  0  0  0  0  0
    7.4023   -3.4227    2.0443 C   0  0  0  0  0  0  0  0  0  0  0  0
    7.9375   -4.2182    2.5778 H   0  0  0  0  0  0  0  0  0  0  0  0
    6.7477   -3.8711    1.2936 H   0  0  0  0  0  0  0  0  0  0  0  0
    6.7919   -2.8814    2.7719 H   0  0  0  0  0  0  0  0  0  0  0  0
    9.1022   -1.6582    2.2934 C   0  0  0  0  0  0  0  0  0  0  0  0
    9.5817   -0.8408    1.7448 H   0  0  0  0  0  0  0  0  0  0  0  0
    8.4676   -1.2195    3.0702 H   0  0  0  0  0  0  0  0  0  0  0  0
   10.1578   -2.5271    2.9492 C   0  0  0  0  0  0  0  0  0  0  0  0
   10.7352   -1.8948    3.6094 H   0  0  0  0  0  0  0  0  0  0  0  0
    9.6748   -3.3065    3.5497 H   0  0  0  0  0  0  0  0  0  0  0  0
   14.2618   -2.5903    1.3544 C   0  0  0  0  0  0  0  0  0  0  0  0
   14.4362   -2.2908    2.6811 N   0  0  0  0  0  0  0  0  0  0  0  0
   13.6209   -2.1049    3.2656 H   0  0  0  0  0  0  0  0  0  0  0  0
   15.3679   -2.3389    3.0925 H   0  0  0  0  0  0  0  0  0  0  0  0
   15.2644   -2.9067    0.5978 N   0  0  0  0  0  4  0  0  0  0  0  0
   16.2354   -2.9691    0.9168 H   0  0  0  0  0  0  0  0  0  0  0  0
   15.3106   -0.8475   -1.5023 C   0  0  0  0  0  0  0  0  0  0  0  0
   14.8680   -0.5088   -0.5708 H   0  0  0  0  0  0  0  0  0  0  0  0
   15.4498    2.0091   -0.8005 C   0  0  0  0  0  0  0  0  0  0  0  0
   15.3393    1.2680   -0.0157 H   0  0  0  0  0  0  0  0  0  0  0  0
   15.3857    3.3841   -0.5566 C   0  0  0  0  0  0  0  0  0  0  0  0
   15.1819    3.7710    0.4342 H   0  0  0  0  0  0  0  0  0  0  0  0
  1  2  1  0
  2  3  2  0
  3  4  1  0
  4  5  1  0
  4  6  2  0
  6  7  1  0
  7  8  2  0
  8  9  1  0
  8 10  1  0
 10 11  1  0
 10 12  2  0
 12 13  1  0
 12 14  1  0
 15 14  1  6
 15 16  1  0
 16 17  2  0
 17 18  1  0
 17 19  1  0
 19 20  1  0
 19 21  2  0
 21 22  1  0
 21 23  1  0
 23 24  1  0
 23 25  2  0
 25 26  1  0
 15 27  1  0
 27 28  2  0
 27 29  1  0
 29 30  1  0
 30 31  1  0
 31 32  1  0
 31 33  1  0
 33 34  1  0
 33 35  1  0
 33 36  1  0
 36 37  1  0
 36 38  1  0
 36 39  1  0
 39 40  1  0
 40 41  1  0
 40 42  1  0
 40 43  1  0
 39 44  1  0
 44 45  1  0
 44 46  1  0
 44 47  1  0
 47 48  1  0
 47 49  1  0
 29 50  1  0
 50 51  1  0
 51 52  1  0
 51 53  1  0
 50 54  2  0
 54 55  1  0
 14 56  2  0
 56 57  1  0
  6 58  1  0
 58 59  1  0
 58 60  2  0
 60 61  1  0
 60  2  1  0
 56  7  1  0
 54 15  1  0
 25 16  1  0
 47 31  1  0
M  CHG  1  54   1
M  END
>  <score>  (250) 
5.56224

$$$$

     RDKit          3D

 50 53  0  0  0  0  0  0  0  0999 V2000
    9.2974   -1.3851    0.9740 H   0  0  0  0  0  0  0  0  0  0  0  0
    8.8914   -2.2009    1.3205 O   0  0  0  0  0  0  0  0  0  0  0  0
    9.7415   -2.8136    2.3088 C   0  0  0  0  0  0  0  0  0  0  0  0
    9.9401   -2.1035    3.1186 H   0  0  0  0  0  0  0  0  0  0  0  0
    9.2222   -3.6728    2.7448 H   0  0  0  0  0  0  0  0  0  0  0  0
   11.0712   -3.2922    1.7175 C   0  0  0  0  0  0  0  0  0  0  0  0
   10.8773   -4.0306    0.9277 H   0  0  0  0  0  0  0  0  0  0  0  0
   11.6573   -3.7811    2.5080 H   0  0  0  0  0  0  0  0  0  0  0  0
   11.8161   -2.1889    1.1898 O   0  0  0  0  0  0  0  0  0  0  0  0
   13.0699   -2.6319    0.6819 N   0  0  0  0  0  0  0  0  0  0  0  0
   13.3257   -3.0130   -0.6193 C   0  0  0  0  0  0  0  0  0  0  0  0
   12.4836   -3.1224   -1.5111 O   0  0  0  0  0  0  0  0  0  0  0  0
   14.8390   -3.2421   -0.7813 C   0  0  1  0  0  0  0  0  0  0  0  0
   15.1887   -4.7046   -1.0790 C   0  0  0  0  0  0  0  0  0  0  0  0
   16.4025   -5.2303   -0.6080 C   0  0  0  0  0  0  0  0  0  0  0  0
   17.0772   -4.5792   -0.0604 H   0  0  0  0  0  0  0  0  0  0  0  0
   16.7400   -6.5746   -0.8045 C   0  0  0  0  0  0  0  0  0  0  0  0
   17.6756   -6.9620   -0.4108 H   0  0  0  0  0  0  0  0  0  0  0  0
   15.8590   -7.4241   -1.4798 C   0  0  0  0  0  0  0  0  0  0  0  0
   16.1071   -8.4731   -1.6152 H   0  0  0  0  0  0  0  0  0  0  0  0
   14.6469   -6.9228   -1.9656 C   0  0  0  0  0  0  0  0  0  0  0  0
   13.9621   -7.5863   -2.4881 H   0  0  0  0  0  0  0  0  0  0  0  0
   14.3152   -5.5709   -1.7694 C   0  0  0  0  0  0  0  0  0  0  0  0
   13.3615   -5.1981   -2.1307 H   0  0  0  0  0  0  0  0  0  0  0  0
   15.3909   -2.2301   -1.7804 C   0  0  0  0  0  0  0  0  0  0  0  0
   15.9491   -2.6358   -3.0014 C   0  0  0  0  0  0  0  0  0  0  0  0
   16.0020   -3.6955   -3.2418 H   0  0  0  0  0  0  0  0  0  0  0  0
   16.4256   -1.6829   -3.9091 C   0  0  0  0  0  0  0  0  0  0  0  0
   16.8637   -2.0036   -4.8477 H   0  0  0  0  0  0  0  0  0  0  0  0
   16.3291   -0.3153   -3.6137 C   0  0  0  0  0  0  0  0  0  0  0  0
   16.7124    0.4289   -4.3020 H   0  0  0  0  0  0  0  0  0  0  0  0
   15.7760    0.1229   -2.4079 C   0  0  0  0  0  0  0  0  0  0  0  0
   15.6948    1.5678   -2.0985 C   0  0  0  0  0  0  0  0  0  0  0  0
   15.8788    2.5422   -3.0928 C   0  0  0  0  0  0  0  0  0  0  0  0
   16.0690    2.2021   -4.1039 H   0  0  0  0  0  0  0  0  0  0  0  0
   15.8213    3.8690   -2.8605 N   0  0  0  0  0  0  0  0  0  0  0  0
   15.5880    4.2864   -1.6055 C   0  0  0  0  0  0  0  0  0  0  0  0
   15.5542    5.3532   -1.3934 H   0  0  0  0  0  0  0  0  0  0  0  0
   15.3844    3.3866   -0.5554 C   0  0  0  0  0  0  0  0  0  0  0  0
   15.1793    3.7739    0.4368 H   0  0  0  0  0  0  0  0  0  0  0  0
   15.4450    2.0108   -0.8010 C   0  0  0  0  0  0  0  0  0  0  0  0
   15.3348    1.2750   -0.0109 H   0  0  0  0  0  0  0  0  0  0  0  0
   15.3136   -0.8464   -1.5027 C   0  0  0  0  0  0  0  0  0  0  0  0
   14.8685   -0.5089   -0.5725 H   0  0  0  0  0  0  0  0  0  0  0  0
   15.2743   -2.9099    0.5950 N   0  0  0  0  0  4  0  0  0  0  0  0
   16.2490   -2.9673    0.9106 H   0  0  0  0  0  0  0  0  0  0  0  0
   14.2773   -2.5959    1.3593 C   0  0  0  0  0  0  0  0  0  0  0  0
   14.4363   -2.3016    2.6872 N   0  0  0  0  0  0  0  0  0  0  0  0
   15.3691   -2.3385    3.1051 H   0  0  0  0  0  0  0  0  0  0  0  0
   13.6178   -2.1107    3.2628 H   0  0  0  0  0  0  0  0  0  0  0  0
  1  2  1  0
  2  3  1  0
  3  4  1  0
  3  5  1  0
  3  6  1  0
  6  7  1  0
  6  8  1  0
  6  9  1  0
  9 10  1  0
 10 11  1  0
 11 12  2  0
 11 13  1  0
 13 14  1  6
 14 15  2  0
 15 16  1  0
 15 17  1  0
 17 18  1  0
 17 19  2  0
 19 20  1  0
 19 21  1  0
 21 22  1  0
 21 23  2  0
 23 24  1  0
 13 25  1  0
 25 26  2  0
 26 27  1  0
 26 28  1  0
 28 29  1  0
 28 30  2  0
 30 31  1  0
 30 32  1  0
 32 33  1  0
 33 34  2  0
 34 35  1  0
 34 36  1  0
 36 37  2  0
 37 38  1  0
 37 39  1  0
 39 40  1  0
 39 41  2  0
 41 42  1  0
 32 43  2  0
 43 44  1  0
 13 45  1  0
 45 46  1  0
 45 47  2  0
 47 48  1  0
 48 49  1  0
 48 50  1  0
 47 10  1  0
 23 14  1  0
 43 25  1  0
 41 33  1  0
M  CHG  1  45   1
M  END
>  <score>  (251) 
5.56221

$$$$

     RDKit          3D

 50 54  0  0  0  0  0  0  0  0999 V2000
   15.5727    5.3733   -1.3883 H   0  0  0  0  0  0  0  0  0  0  0  0
   15.5847    4.3047   -1.5930 C   0  0  0  0  0  0  0  0  0  0  0  0
   15.8215    3.8836   -2.8437 N   0  0  0  0  0  0  0  0  0  0  0  0
   15.8601    2.5567   -3.0858 C   0  0  0  0  0  0  0  0  0  0  0  0
   16.0365    2.2379   -4.1085 H   0  0  0  0  0  0  0  0  0  0  0  0
   15.6823    1.5740   -2.0931 C   0  0  0  0  0  0  0  0  0  0  0  0
   15.7741    0.1188   -2.4105 C   0  0  0  0  0  0  0  0  0  0  0  0
   16.3514   -0.3241   -3.6135 C   0  0  0  0  0  0  0  0  0  0  0  0
   16.7329    0.3950   -4.3320 H   0  0  0  0  0  0  0  0  0  0  0  0
   16.4310   -1.6911   -3.9123 C   0  0  0  0  0  0  0  0  0  0  0  0
   16.8676   -2.0093   -4.8555 H   0  0  0  0  0  0  0  0  0  0  0  0
   15.9449   -2.6460   -3.0100 C   0  0  0  0  0  0  0  0  0  0  0  0
   16.0080   -3.7006   -3.2666 H   0  0  0  0  0  0  0  0  0  0  0  0
   15.3830   -2.2465   -1.7874 C   0  0  0  0  0  0  0  0  0  0  0  0
   14.8093   -3.2522   -0.7851 C   0  0  2  0  0  0  0  0  0  0  0  0
   15.1674   -4.7216   -1.0723 C   0  0  0  0  0  0  0  0  0  0  0  0
   16.3857   -5.2424   -0.6088 C   0  0  0  0  0  0  0  0  0  0  0  0
   17.0685   -4.5936   -0.0684 H   0  0  0  0  0  0  0  0  0  0  0  0
   16.7266   -6.5857   -0.7995 C   0  0  0  0  0  0  0  0  0  0  0  0
   17.6746   -6.9550   -0.4190 H   0  0  0  0  0  0  0  0  0  0  0  0
   15.8538   -7.4448   -1.4701 C   0  0  0  0  0  0  0  0  0  0  0  0
   16.1252   -8.4891   -1.6109 H   0  0  0  0  0  0  0  0  0  0  0  0
   14.6426   -6.9456   -1.9604 C   0  0  0  0  0  0  0  0  0  0  0  0
   13.9731   -7.6195   -2.4885 H   0  0  0  0  0  0  0  0  0  0  0  0
   14.3000   -5.5948   -1.7676 C   0  0  0  0  0  0  0  0  0  0  0  0
   13.3519   -5.2440   -2.1662 H   0  0  0  0  0  0  0  0  0  0  0  0
   13.2939   -3.0281   -0.6057 C   0  0  0  0  0  0  0  0  0  0  0  0
   12.4278   -3.0955   -1.4763 O   0  0  0  0  0  0  0  0  0  0  0  0
   13.0286   -2.6704    0.6966 N   0  0  0  0  0  0  0  0  0  0  0  0
   11.7426   -2.6775    1.3027 N   0  0  0  0  0  0  0  0  0  0  0  0
   10.6117   -2.0651    0.7728 C   0  0  0  0  0  0  0  0  0  0  0  0
   10.5950   -1.4722   -0.1432 H   0  0  0  0  0  0  0  0  0  0  0  0
    9.5467   -2.3642    1.5993 C   0  0  0  0  0  0  0  0  0  0  0  0
    8.5140   -2.0471    1.4658 H   0  0  0  0  0  0  0  0  0  0  0  0
   10.0585   -3.2038    2.6823 C   0  0  0  0  0  0  0  0  0  0  0  0
    9.4785   -3.6163    3.5079 H   0  0  0  0  0  0  0  0  0  0  0  0
   11.4094   -3.3777    2.4604 C   0  0  0  0  0  0  0  0  0  0  0  0
   12.1049   -3.9506    3.0751 H   0  0  0  0  0  0  0  0  0  0  0  0
   14.2267   -2.6341    1.3676 C   0  0  0  0  0  0  0  0  0  0  0  0
   14.3948   -2.3552    2.6968 N   0  0  0  0  0  0  0  0  0  0  0  0
   13.6045   -2.0071    3.2389 H   0  0  0  0  0  0  0  0  0  0  0  0
   15.3277   -2.3970    3.1099 H   0  0  0  0  0  0  0  0  0  0  0  0
   15.2243   -2.9016    0.5896 N   0  0  0  0  0  4  0  0  0  0  0  0
   16.1980   -2.9023    0.8965 H   0  0  0  0  0  0  0  0  0  0  0  0
   15.2999   -0.8623   -1.5163 C   0  0  0  0  0  0  0  0  0  0  0  0
   14.8661   -0.5373   -0.5767 H   0  0  0  0  0  0  0  0  0  0  0  0
   15.4261    2.0312   -0.7942 C   0  0  0  0  0  0  0  0  0  0  0  0
   15.2846    1.3265    0.0157 H   0  0  0  0  0  0  0  0  0  0  0  0
   15.3667    3.4060   -0.5495 C   0  0  0  0  0  0  0  0  0  0  0  0
   15.1667    3.7880    0.4445 H   0  0  0  0  0  0  0  0  0  0  0  0
  1  2  1  0
  2  3  2  0
  3  4  1  0
  4  5  1  0
  4  6  2  0
  6  7  1  0
  7  8  2  0
  8  9  1  0
  8 10  1  0
 10 11  1  0
 10 12  2  0
 12 13  1  0
 12 14  1  0
 15 14  1  6
 15 16  1  0
 16 17  2  0
 17 18  1  0
 17 19  1  0
 19 20  1  0
 19 21  2  0
 21 22  1  0
 21 23  1  0
 23 24  1  0
 23 25  2  0
 25 26  1  0
 15 27  1  0
 27 28  2  0
 27 29  1  0
 29 30  1  0
 30 31  1  0
 31 32  1  0
 31 33  2  0
 33 34  1  0
 33 35  1  0
 35 36  1  0
 35 37  2  0
 37 38  1  0
 29 39  1  0
 39 40  1  0
 40 41  1  0
 40 42  1  0
 39 43  2  0
 43 44  1  0
 14 45  2  0
 45 46  1  0
  6 47  1  0
 47 48  1  0
 47 49  2  0
 49 50  1  0
 49  2  1  0
 45  7  1  0
 43 15  1  0
 25 16  1  0
 37 30  1  0
M  CHG  1  43   1
M  END
>  <score>  (252) 
5.5602

$$$$

     RDKit          3D

 50 54  0  0  0  0  0  0  0  0999 V2000
   10.2093   -3.1427    4.0827 H   0  0  0  0  0  0  0  0  0  0  0  0
   10.3822   -2.8508    3.0476 C   0  0  0  0  0  0  0  0  0  0  0  0
   11.5976   -2.9369    2.5161 N   0  0  0  0  0  0  0  0  0  0  0  0
   11.7498   -2.5730    1.2543 C   0  0  0  0  0  0  0  0  0  0  0  0
   12.9797   -2.6783    0.7171 N   0  0  0  0  0  0  0  0  0  0  0  0
   13.2182   -3.0166   -0.5782 C   0  0  0  0  0  0  0  0  0  0  0  0
   12.3055   -3.1150   -1.3959 O   0  0  0  0  0  0  0  0  0  0  0  0
   14.7457   -3.2362   -0.7640 C   0  0  1  0  0  0  0  0  0  0  0  0
   15.1428   -4.6948   -1.0521 C   0  0  0  0  0  0  0  0  0  0  0  0
   16.3732   -5.2094   -0.5939 C   0  0  0  0  0  0  0  0  0  0  0  0
   17.0602   -4.5622   -0.0552 H   0  0  0  0  0  0  0  0  0  0  0  0
   16.7250   -6.5516   -0.8009 C   0  0  0  0  0  0  0  0  0  0  0  0
   17.6642   -6.9400   -0.4187 H   0  0  0  0  0  0  0  0  0  0  0  0
   15.8553   -7.4067   -1.4799 C   0  0  0  0  0  0  0  0  0  0  0  0
   16.1075   -8.4560   -1.6138 H   0  0  0  0  0  0  0  0  0  0  0  0
   14.6430   -6.9104   -1.9644 C   0  0  0  0  0  0  0  0  0  0  0  0
   13.9670   -7.5776   -2.4896 H   0  0  0  0  0  0  0  0  0  0  0  0
   14.2904   -5.5665   -1.7561 C   0  0  0  0  0  0  0  0  0  0  0  0
   13.3417   -5.1981   -2.1322 H   0  0  0  0  0  0  0  0  0  0  0  0
   15.3387   -2.2290   -1.7633 C   0  0  0  0  0  0  0  0  0  0  0  0
   15.9186   -2.6352   -2.9804 C   0  0  0  0  0  0  0  0  0  0  0  0
   15.9868   -3.6928   -3.2202 H   0  0  0  0  0  0  0  0  0  0  0  0
   16.4130   -1.6892   -3.8904 C   0  0  0  0  0  0  0  0  0  0  0  0
   16.8608   -2.0079   -4.8256 H   0  0  0  0  0  0  0  0  0  0  0  0
   16.3290   -0.3223   -3.6032 C   0  0  0  0  0  0  0  0  0  0  0  0
   16.7103    0.4182   -4.2994 H   0  0  0  0  0  0  0  0  0  0  0  0
   15.7720    0.1201   -2.3991 C   0  0  0  0  0  0  0  0  0  0  0  0
   15.6981    1.5671   -2.0961 C   0  0  0  0  0  0  0  0  0  0  0  0
   15.8798    2.5407   -3.0934 C   0  0  0  0  0  0  0  0  0  0  0  0
   16.0703    2.2036   -4.1070 H   0  0  0  0  0  0  0  0  0  0  0  0
   15.8238    3.8674   -2.8593 N   0  0  0  0  0  0  0  0  0  0  0  0
   15.5873    4.2834   -1.6054 C   0  0  0  0  0  0  0  0  0  0  0  0
   15.5528    5.3498   -1.3961 H   0  0  0  0  0  0  0  0  0  0  0  0
   15.3834    3.3853   -0.5561 C   0  0  0  0  0  0  0  0  0  0  0  0
   15.1821    3.7706    0.4360 H   0  0  0  0  0  0  0  0  0  0  0  0
   15.4469    2.0114   -0.7990 C   0  0  0  0  0  0  0  0  0  0  0  0
   15.3344    1.2758   -0.0093 H   0  0  0  0  0  0  0  0  0  0  0  0
   15.2872   -0.8432   -1.4931 C   0  0  0  0  0  0  0  0  0  0  0  0
   14.8534   -0.4960   -0.5606 H   0  0  0  0  0  0  0  0  0  0  0  0
   15.1410   -2.9204    0.6320 N   0  0  0  0  0  4  0  0  0  0  0  0
   16.1047   -2.9337    0.9694 H   0  0  0  0  0  0  0  0  0  0  0  0
   14.1432   -2.6630    1.4030 C   0  0  0  0  0  0  0  0  0  0  0  0
   14.3248   -2.3938    2.7258 N   0  0  0  0  0  0  0  0  0  0  0  0
   13.5660   -1.9878    3.2742 H   0  0  0  0  0  0  0  0  0  0  0  0
   15.2843   -2.3481    3.0660 H   0  0  0  0  0  0  0  0  0  0  0  0
   10.7714   -2.1658    0.4545 N   0  0  0  0  0  0  0  0  0  0  0  0
    9.5506   -2.0563    0.9761 C   0  0  0  0  0  0  0  0  0  0  0  0
    8.7138   -1.6920    0.3793 H   0  0  0  0  0  0  0  0  0  0  0  0
    9.3185   -2.4060    2.2901 C   0  0  0  0  0  0  0  0  0  0  0  0
    8.3353   -2.3412    2.7253 H   0  0  0  0  0  0  0  0  0  0  0  0
  1  2  1  0
  2  3  2  0
  3  4  1  0
  4  5  1  0
  5  6  1  0
  6  7  2  0
  6  8  1  0
  8  9  1  6
  9 10  2  0
 10 11  1  0
 10 12  1  0
 12 13  1  0
 12 14  2  0
 14 15  1  0
 14 16  1  0
 16 17  1  0
 16 18  2  0
 18 19  1  0
  8 20  1  0
 20 21  2  0
 21 22  1  0
 21 23  1  0
 23 24  1  0
 23 25  2  0
 25 26  1  0
 25 27  1  0
 27 28  1  0
 28 29  2  0
 29 30  1  0
 29 31  1  0
 31 32  2  0
 32 33  1  0
 32 34  1  0
 34 35  1  0
 34 36  2  0
 36 37  1  0
 27 38  2  0
 38 39  1  0
  8 40  1  0
 40 41  1  0
 40 42  2  0
 42 43  1  0
 43 44  1  0
 43 45  1  0
  4 46  2  0
 46 47  1  0
 47 48  1  0
 47 49  2  0
 49 50  1  0
 49  2  1  0
 42  5  1  0
 18  9  1  0
 38 20  1  0
 36 28  1  0
M  CHG  1  40   1
M  END
>  <score>  (253) 
5.55975

$$$$

     RDKit          3D

 56 60  0  0  0  0  0  0  0  0999 V2000
   15.5447    5.3322   -1.4004 H   0  0  0  0  0  0  0  0  0  0  0  0
   15.6407    4.2694   -1.6040 C   0  0  0  0  0  0  0  0  0  0  0  0
   15.8850    3.8703   -2.8615 N   0  0  0  0  0  0  0  0  0  0  0  0
   15.9962    2.5501   -3.1002 C   0  0  0  0  0  0  0  0  0  0  0  0
   16.1826    2.2319   -4.1208 H   0  0  0  0  0  0  0  0  0  0  0  0
   15.8689    1.5698   -2.1008 C   0  0  0  0  0  0  0  0  0  0  0  0
   15.9833    0.1355   -2.4168 C   0  0  0  0  0  0  0  0  0  0  0  0
   16.4157   -0.2923   -3.6798 C   0  0  0  0  0  0  0  0  0  0  0  0
   16.6875    0.4423   -4.4307 H   0  0  0  0  0  0  0  0  0  0  0  0
   16.4998   -1.6559   -3.9791 C   0  0  0  0  0  0  0  0  0  0  0  0
   16.8333   -1.9719   -4.9624 H   0  0  0  0  0  0  0  0  0  0  0  0
   16.1330   -2.6074   -3.0216 C   0  0  0  0  0  0  0  0  0  0  0  0
   16.1689   -3.6645   -3.2678 H   0  0  0  0  0  0  0  0  0  0  0  0
   15.6940   -2.2091   -1.7501 C   0  0  0  0  0  0  0  0  0  0  0  0
   15.1617   -3.2162   -0.7427 C   0  0  2  0  0  0  0  0  0  0  0  0
   15.4767   -4.6729   -1.0637 C   0  0  0  0  0  0  0  0  0  0  0  0
   16.6662   -5.2816   -0.6284 C   0  0  0  0  0  0  0  0  0  0  0  0
   17.4026   -4.6994   -0.0827 H   0  0  0  0  0  0  0  0  0  0  0  0
   16.9000   -6.6405   -0.8685 C   0  0  0  0  0  0  0  0  0  0  0  0
   17.8139   -7.1034   -0.5089 H   0  0  0  0  0  0  0  0  0  0  0  0
   15.9522   -7.4097   -1.5503 C   0  0  0  0  0  0  0  0  0  0  0  0
   16.1212   -8.4684   -1.7217 H   0  0  0  0  0  0  0  0  0  0  0  0
   14.7766   -6.8097   -2.0108 C   0  0  0  0  0  0  0  0  0  0  0  0
   14.0336   -7.3966   -2.5404 H   0  0  0  0  0  0  0  0  0  0  0  0
   14.5456   -5.4525   -1.7732 C   0  0  0  0  0  0  0  0  0  0  0  0
   13.6205   -5.0014   -2.1243 H   0  0  0  0  0  0  0  0  0  0  0  0
   13.6483   -3.0196   -0.6029 C   0  0  0  0  0  0  0  0  0  0  0  0
   12.8102   -3.0551   -1.5037 O   0  0  0  0  0  0  0  0  0  0  0  0
   13.3432   -2.8523    0.7219 N   0  0  0  0  0  0  0  0  0  0  0  0
   12.0759   -2.7218    1.2477 C   0  0  0  0  0  0  0  0  0  0  0  0
   11.1654   -1.9178    0.5765 C   0  0  0  0  0  0  0  0  0  0  0  0
   11.4620   -1.4197   -0.3400 H   0  0  0  0  0  0  0  0  0  0  0  0
    9.9087   -1.7032    1.1218 C   0  0  0  0  0  0  0  0  0  0  0  0
    9.2335   -1.0132    0.6259 H   0  0  0  0  0  0  0  0  0  0  0  0
    9.5497   -2.3254    2.3253 C   0  0  0  0  0  0  0  0  0  0  0  0
    8.2837   -1.9465    2.9251 C   0  0  0  0  0  0  0  0  0  0  0  0
    7.3538   -2.7115    3.1122 O   0  0  0  0  0  0  0  0  0  0  0  0
    8.0601   -0.6190    3.1723 N   0  0  0  0  0  0  0  0  0  0  0  0
    8.8873   -0.0269    3.1900 H   0  0  0  0  0  0  0  0  0  0  0  0
    7.3090   -0.4194    3.8210 H   0  0  0  0  0  0  0  0  0  0  0  0
   10.4534   -3.1877    2.9737 C   0  0  0  0  0  0  0  0  0  0  0  0
   10.2138   -3.6720    3.9174 H   0  0  0  0  0  0  0  0  0  0  0  0
   11.7313   -3.3664    2.4361 C   0  0  0  0  0  0  0  0  0  0  0  0
   12.4660   -3.9883    2.9433 H   0  0  0  0  0  0  0  0  0  0  0  0
   14.5136   -2.7836    1.4271 C   0  0  0  0  0  0  0  0  0  0  0  0
   14.6143   -2.5754    2.7720 N   0  0  0  0  0  0  0  0  0  0  0  0
   13.7862   -2.2173    3.2477 H   0  0  0  0  0  0  0  0  0  0  0  0
   15.5276   -2.3215    3.1354 H   0  0  0  0  0  0  0  0  0  0  0  0
   15.5391   -2.9145    0.6517 N   0  0  0  0  0  4  0  0  0  0  0  0
   16.4973   -2.9570    0.9859 H   0  0  0  0  0  0  0  0  0  0  0  0
   15.6310   -0.8341   -1.4652 C   0  0  0  0  0  0  0  0  0  0  0  0
   15.2715   -0.5082   -0.4937 H   0  0  0  0  0  0  0  0  0  0  0  0
   15.6193    1.9967   -0.7938 C   0  0  0  0  0  0  0  0  0  0  0  0
   15.5240    1.2771    0.0162 H   0  0  0  0  0  0  0  0  0  0  0  0
   15.5024    3.3629   -0.5494 C   0  0  0  0  0  0  0  0  0  0  0  0
   15.3029    3.7269    0.4515 H   0  0  0  0  0  0  0  0  0  0  0  0
  1  2  1  0
  2  3  2  0
  3  4  1  0
  4  5  1  0
  4  6  2  0
  6  7  1  0
  7  8  2  0
  8  9  1  0
  8 10  1  0
 10 11  1  0
 10 12  2  0
 12 13  1  0
 12 14  1  0
 15 14  1  6
 15 16  1  0
 16 17  2  0
 17 18  1  0
 17 19  1  0
 19 20  1  0
 19 21  2  0
 21 22  1  0
 21 23  1  0
 23 24  1  0
 23 25  2  0
 25 26  1  0
 15 27  1  0
 27 28  2  0
 27 29  1  0
 29 30  1  0
 30 31  2  0
 31 32  1  0
 31 33  1  0
 33 34  1  0
 33 35  2  0
 35 36  1  0
 36 37  2  0
 36 38  1  0
 38 39  1  0
 38 40  1  0
 35 41  1  0
 41 42  1  0
 41 43  2  0
 43 44  1  0
 29 45  1  0
 45 46  1  0
 46 47  1  0
 46 48  1  0
 45 49  2  0
 49 50  1  0
 14 51  2  0
 51 52  1  0
  6 53  1  0
 53 54  1  0
 53 55  2  0
 55 56  1  0
 55  2  1  0
 51  7  1  0
 49 15  1  0
 25 16  1  0
 43 30  1  0
M  CHG  1  49   1
M  END
>  <score>  (254) 
5.55834

$$$$

     RDKit          3D

 53 57  0  0  0  0  0  0  0  0999 V2000
   15.5672    5.3705   -1.3873 H   0  0  0  0  0  0  0  0  0  0  0  0
   15.5839    4.3017   -1.5973 C   0  0  0  0  0  0  0  0  0  0  0  0
   15.8198    3.8800   -2.8505 N   0  0  0  0  0  0  0  0  0  0  0  0
   15.8659    2.5514   -3.0883 C   0  0  0  0  0  0  0  0  0  0  0  0
   16.0496    2.2187   -4.1037 H   0  0  0  0  0  0  0  0  0  0  0  0
   15.6874    1.5700   -2.0972 C   0  0  0  0  0  0  0  0  0  0  0  0
   15.7711    0.1185   -2.4096 C   0  0  0  0  0  0  0  0  0  0  0  0
   16.3447   -0.3213   -3.6102 C   0  0  0  0  0  0  0  0  0  0  0  0
   16.7210    0.4128   -4.3155 H   0  0  0  0  0  0  0  0  0  0  0  0
   16.4316   -1.6902   -3.9053 C   0  0  0  0  0  0  0  0  0  0  0  0
   16.8637   -2.0061   -4.8504 H   0  0  0  0  0  0  0  0  0  0  0  0
   15.9430   -2.6451   -3.0007 C   0  0  0  0  0  0  0  0  0  0  0  0
   16.0015   -3.7014   -3.2525 H   0  0  0  0  0  0  0  0  0  0  0  0
   15.3727   -2.2417   -1.7788 C   0  0  0  0  0  0  0  0  0  0  0  0
   14.7988   -3.2455   -0.7781 C   0  0  2  0  0  0  0  0  0  0  0  0
   15.1657   -4.7104   -1.0682 C   0  0  0  0  0  0  0  0  0  0  0  0
   16.3888   -5.2326   -0.6087 C   0  0  0  0  0  0  0  0  0  0  0  0
   17.0657   -4.5832   -0.0623 H   0  0  0  0  0  0  0  0  0  0  0  0
   16.7298   -6.5771   -0.8045 C   0  0  0  0  0  0  0  0  0  0  0  0
   17.6706   -6.9555   -0.4163 H   0  0  0  0  0  0  0  0  0  0  0  0
   15.8541   -7.4364   -1.4735 C   0  0  0  0  0  0  0  0  0  0  0  0
   16.1185   -8.4832   -1.6118 H   0  0  0  0  0  0  0  0  0  0  0  0
   14.6433   -6.9344   -1.9620 C   0  0  0  0  0  0  0  0  0  0  0  0
   13.9718   -7.6069   -2.4880 H   0  0  0  0  0  0  0  0  0  0  0  0
   14.3021   -5.5838   -1.7655 C   0  0  0  0  0  0  0  0  0  0  0  0
   13.3524   -5.2257   -2.1511 H   0  0  0  0  0  0  0  0  0  0  0  0
   13.2864   -3.0018   -0.5950 C   0  0  0  0  0  0  0  0  0  0  0  0
   12.4278   -3.0868   -1.4712 O   0  0  0  0  0  0  0  0  0  0  0  0
   13.0029   -2.6853    0.7187 N   0  0  0  0  0  0  0  0  0  0  0  0
   11.7489   -2.3246    1.2409 C   0  0  0  0  0  0  0  0  0  0  0  0
   11.1780   -3.1314    2.2290 C   0  0  0  0  0  0  0  0  0  0  0  0
   11.7267   -4.0033    2.5690 H   0  0  0  0  0  0  0  0  0  0  0  0
    9.9207   -2.8345    2.7647 C   0  0  0  0  0  0  0  0  0  0  0  0
    9.4932   -3.4690    3.5344 H   0  0  0  0  0  0  0  0  0  0  0  0
    9.2163   -1.7172    2.3141 C   0  0  0  0  0  0  0  0  0  0  0  0
    8.2607   -1.4635    2.7607 H   0  0  0  0  0  0  0  0  0  0  0  0
    9.7786   -0.8970    1.3288 C   0  0  0  0  0  0  0  0  0  0  0  0
    9.2540    0.0060    1.0295 H   0  0  0  0  0  0  0  0  0  0  0  0
   11.0464   -1.1863    0.7932 C   0  0  0  0  0  0  0  0  0  0  0  0
   11.6314   -0.2887   -0.1568 C   0  0  0  0  0  0  0  0  0  0  0  0
   12.0830    0.4484   -0.9397 N   0  0  0  0  0  0  0  0  0  0  0  0
   14.2066   -2.6452    1.3789 C   0  0  0  0  0  0  0  0  0  0  0  0
   14.3956   -2.3381    2.6958 N   0  0  0  0  0  0  0  0  0  0  0  0
   15.3374   -2.3552    3.0900 H   0  0  0  0  0  0  0  0  0  0  0  0
   13.5890   -2.0955    3.2701 H   0  0  0  0  0  0  0  0  0  0  0  0
   15.2050   -2.9115    0.6037 N   0  0  0  0  0  4  0  0  0  0  0  0
   16.1759   -2.9164    0.9113 H   0  0  0  0  0  0  0  0  0  0  0  0
   15.2962   -0.8564   -1.5122 C   0  0  0  0  0  0  0  0  0  0  0  0
   14.8669   -0.5217   -0.5754 H   0  0  0  0  0  0  0  0  0  0  0  0
   15.4377    2.0222   -0.7989 C   0  0  0  0  0  0  0  0  0  0  0  0
   15.3018    1.3007   -0.0028 H   0  0  0  0  0  0  0  0  0  0  0  0
   15.3743    3.3989   -0.5524 C   0  0  0  0  0  0  0  0  0  0  0  0
   15.1676    3.7850    0.4398 H   0  0  0  0  0  0  0  0  0  0  0  0
  1  2  1  0
  2  3  2  0
  3  4  1  0
  4  5  1  0
  4  6  2  0
  6  7  1  0
  7  8  2  0
  8  9  1  0
  8 10  1  0
 10 11  1  0
 10 12  2  0
 12 13  1  0
 12 14  1  0
 15 14  1  6
 15 16  1  0
 16 17  2  0
 17 18  1  0
 17 19  1  0
 19 20  1  0
 19 21  2  0
 21 22  1  0
 21 23  1  0
 23 24  1  0
 23 25  2  0
 25 26  1  0
 15 27  1  0
 27 28  2  0
 27 29  1  0
 29 30  1  0
 30 31  2  0
 31 32  1  0
 31 33  1  0
 33 34  1  0
 33 35  2  0
 35 36  1  0
 35 37  1  0
 37 38  1  0
 37 39  2  0
 39 40  1  0
 40 41  3  0
 29 42  1  0
 42 43  1  0
 43 44  1  0
 43 45  1  0
 42 46  2  0
 46 47  1  0
 14 48  2  0
 48 49  1  0
  6 50  1  0
 50 51  1  0
 50 52  2  0
 52 53  1  0
 52  2  1  0
 48  7  1  0
 46 15  1  0
 25 16  1  0
 39 30  1  0
M  CHG  1  46   1
M  END
>  <score>  (255) 
5.55698

$$$$

     RDKit          3D

 52 56  0  0  0  0  0  0  0  0999 V2000
   15.5694    5.3721   -1.3872 H   0  0  0  0  0  0  0  0  0  0  0  0
   15.5826    4.3031   -1.5953 C   0  0  0  0  0  0  0  0  0  0  0  0
   15.8190    3.8802   -2.8471 N   0  0  0  0  0  0  0  0  0  0  0  0
   15.8637    2.5524   -3.0882 C   0  0  0  0  0  0  0  0  0  0  0  0
   16.0484    2.2207   -4.1053 H   0  0  0  0  0  0  0  0  0  0  0  0
   15.6866    1.5711   -2.0959 C   0  0  0  0  0  0  0  0  0  0  0  0
   15.7699    0.1183   -2.4107 C   0  0  0  0  0  0  0  0  0  0  0  0
   16.3492   -0.3216   -3.6096 C   0  0  0  0  0  0  0  0  0  0  0  0
   16.7230    0.4105   -4.3195 H   0  0  0  0  0  0  0  0  0  0  0  0
   16.4310   -1.6903   -3.9061 C   0  0  0  0  0  0  0  0  0  0  0  0
   16.8638   -2.0083   -4.8506 H   0  0  0  0  0  0  0  0  0  0  0  0
   15.9411   -2.6448   -3.0015 C   0  0  0  0  0  0  0  0  0  0  0  0
   16.0030   -3.7001   -3.2559 H   0  0  0  0  0  0  0  0  0  0  0  0
   15.3723   -2.2438   -1.7784 C   0  0  0  0  0  0  0  0  0  0  0  0
   14.7965   -3.2466   -0.7759 C   0  0  2  0  0  0  0  0  0  0  0  0
   15.1659   -4.7112   -1.0673 C   0  0  0  0  0  0  0  0  0  0  0  0
   16.3895   -5.2337   -0.6108 C   0  0  0  0  0  0  0  0  0  0  0  0
   17.0653   -4.5843   -0.0620 H   0  0  0  0  0  0  0  0  0  0  0  0
   16.7283   -6.5797   -0.8035 C   0  0  0  0  0  0  0  0  0  0  0  0
   17.6711   -6.9552   -0.4167 H   0  0  0  0  0  0  0  0  0  0  0  0
   15.8532   -7.4388   -1.4730 C   0  0  0  0  0  0  0  0  0  0  0  0
   16.1203   -8.4851   -1.6114 H   0  0  0  0  0  0  0  0  0  0  0  0
   14.6431   -6.9358   -1.9619 C   0  0  0  0  0  0  0  0  0  0  0  0
   13.9728   -7.6100   -2.4877 H   0  0  0  0  0  0  0  0  0  0  0  0
   14.3020   -5.5848   -1.7647 C   0  0  0  0  0  0  0  0  0  0  0  0
   13.3523   -5.2298   -2.1540 H   0  0  0  0  0  0  0  0  0  0  0  0
   13.2834   -3.0078   -0.5946 C   0  0  0  0  0  0  0  0  0  0  0  0
   12.4295   -3.0885   -1.4744 O   0  0  0  0  0  0  0  0  0  0  0  0
   12.9972   -2.6794    0.7148 N   0  0  0  0  0  0  0  0  0  0  0  0
   11.7233   -2.4901    1.2631 C   0  0  0  0  0  0  0  0  0  0  0  0
   10.8232   -1.5849    0.6897 C   0  0  0  0  0  0  0  0  0  0  0  0
   11.1450   -1.0038   -0.1689 H   0  0  0  0  0  0  0  0  0  0  0  0
    9.5452   -1.4096    1.2412 C   0  0  0  0  0  0  0  0  0  0  0  0
    8.8485   -0.7006    0.8063 H   0  0  0  0  0  0  0  0  0  0  0  0
    9.1518   -2.1460    2.3628 C   0  0  0  0  0  0  0  0  0  0  0  0
    7.9034   -1.9791    2.8638 F   0  0  0  0  0  0  0  0  0  0  0  0
   10.0543   -3.0539    2.9394 C   0  0  0  0  0  0  0  0  0  0  0  0
    9.6823   -3.7969    4.0077 F   0  0  0  0  0  0  0  0  0  0  0  0
   11.3335   -3.2135    2.3909 C   0  0  0  0  0  0  0  0  0  0  0  0
   12.0228   -3.9223    2.8387 H   0  0  0  0  0  0  0  0  0  0  0  0
   14.1989   -2.6566    1.3824 C   0  0  0  0  0  0  0  0  0  0  0  0
   14.3941   -2.3529    2.6982 N   0  0  0  0  0  0  0  0  0  0  0  0
   15.3353   -2.3800    3.0935 H   0  0  0  0  0  0  0  0  0  0  0  0
   13.6014   -2.0384    3.2545 H   0  0  0  0  0  0  0  0  0  0  0  0
   15.1982   -2.9102    0.6038 N   0  0  0  0  0  4  0  0  0  0  0  0
   16.1690   -2.9158    0.9096 H   0  0  0  0  0  0  0  0  0  0  0  0
   15.2932   -0.8582   -1.5150 C   0  0  0  0  0  0  0  0  0  0  0  0
   14.8721   -0.5220   -0.5752 H   0  0  0  0  0  0  0  0  0  0  0  0
   15.4386    2.0247   -0.7970 C   0  0  0  0  0  0  0  0  0  0  0  0
   15.3005    1.3053    0.0012 H   0  0  0  0  0  0  0  0  0  0  0  0
   15.3728    3.4008   -0.5520 C   0  0  0  0  0  0  0  0  0  0  0  0
   15.1684    3.7867    0.4394 H   0  0  0  0  0  0  0  0  0  0  0  0
  1  2  1  0
  2  3  2  0
  3  4  1  0
  4  5  1  0
  4  6  2  0
  6  7  1  0
  7  8  2  0
  8  9  1  0
  8 10  1  0
 10 11  1  0
 10 12  2  0
 12 13  1  0
 12 14  1  0
 15 14  1  6
 15 16  1  0
 16 17  2  0
 17 18  1  0
 17 19  1  0
 19 20  1  0
 19 21  2  0
 21 22  1  0
 21 23  1  0
 23 24  1  0
 23 25  2  0
 25 26  1  0
 15 27  1  0
 27 28  2  0
 27 29  1  0
 29 30  1  0
 30 31  2  0
 31 32  1  0
 31 33  1  0
 33 34  1  0
 33 35  2  0
 35 36  1  0
 35 37  1  0
 37 38  1  0
 37 39  2  0
 39 40  1  0
 29 41  1  0
 41 42  1  0
 42 43  1  0
 42 44  1  0
 41 45  2  0
 45 46  1  0
 14 47  2  0
 47 48  1  0
  6 49  1  0
 49 50  1  0
 49 51  2  0
 51 52  1  0
 51  2  1  0
 47  7  1  0
 45 15  1  0
 25 16  1  0
 39 30  1  0
M  CHG  1  45   1
M  END
>  <score>  (256) 
5.55609

$$$$

     RDKit          3D

 55 58  0  0  0  0  0  0  0  0999 V2000
   15.5406    5.3329   -1.4177 H   0  0  0  0  0  0  0  0  0  0  0  0
   15.6025    4.2659   -1.6100 C   0  0  0  0  0  0  0  0  0  0  0  0
   15.8491    3.8446   -2.8600 N   0  0  0  0  0  0  0  0  0  0  0  0
   15.9157    2.5187   -3.0851 C   0  0  0  0  0  0  0  0  0  0  0  0
   16.1095    2.1837   -4.0992 H   0  0  0  0  0  0  0  0  0  0  0  0
   15.7372    1.5542   -2.0783 C   0  0  0  0  0  0  0  0  0  0  0  0
   15.8021    0.1110   -2.3740 C   0  0  0  0  0  0  0  0  0  0  0  0
   16.3303   -0.3488   -3.5877 C   0  0  0  0  0  0  0  0  0  0  0  0
   16.6953    0.3689   -4.3161 H   0  0  0  0  0  0  0  0  0  0  0  0
   16.3931   -1.7187   -3.8605 C   0  0  0  0  0  0  0  0  0  0  0  0
   16.8023   -2.0585   -4.8063 H   0  0  0  0  0  0  0  0  0  0  0  0
   15.9244   -2.6433   -2.9204 C   0  0  0  0  0  0  0  0  0  0  0  0
   15.9694   -3.7045   -3.1448 H   0  0  0  0  0  0  0  0  0  0  0  0
   15.3919   -2.2147   -1.6928 C   0  0  0  0  0  0  0  0  0  0  0  0
   14.8264   -3.2002   -0.6740 C   0  0  2  0  0  0  0  0  0  0  0  0
   15.1881   -4.6502   -0.9863 C   0  0  0  0  0  0  0  0  0  0  0  0
   16.4144   -5.1840   -0.5600 C   0  0  0  0  0  0  0  0  0  0  0  0
   17.1123   -4.5519   -0.0187 H   0  0  0  0  0  0  0  0  0  0  0  0
   16.7409   -6.5208   -0.8082 C   0  0  0  0  0  0  0  0  0  0  0  0
   17.6854   -6.9177   -0.4498 H   0  0  0  0  0  0  0  0  0  0  0  0
   15.8473   -7.3430   -1.5013 C   0  0  0  0  0  0  0  0  0  0  0  0
   16.0922   -8.3864   -1.6791 H   0  0  0  0  0  0  0  0  0  0  0  0
   14.6351   -6.8181   -1.9607 C   0  0  0  0  0  0  0  0  0  0  0  0
   13.9409   -7.4518   -2.5048 H   0  0  0  0  0  0  0  0  0  0  0  0
   14.3088   -5.4792   -1.7077 C   0  0  0  0  0  0  0  0  0  0  0  0
   13.3621   -5.0858   -2.0674 H   0  0  0  0  0  0  0  0  0  0  0  0
   13.3090   -2.9845   -0.5031 C   0  0  0  0  0  0  0  0  0  0  0  0
   12.4264   -3.1752   -1.3347 O   0  0  0  0  0  0  0  0  0  0  0  0
   13.0364   -2.6341    0.7857 N   0  0  0  0  0  0  0  0  0  0  0  0
   11.7577   -2.5406    1.2406 C   0  0  0  0  0  0  0  0  0  0  0  0
   10.8821   -2.2605    0.4418 O   0  0  0  0  0  0  0  0  0  0  0  0
   11.4458   -2.8678    2.5325 N   0  0  0  0  0  0  0  0  0  0  0  0
   12.2327   -3.1457    3.1030 H   0  0  0  0  0  0  0  0  0  0  0  0
   10.1150   -3.3168    2.9302 C   0  0  0  0  0  0  0  0  0  0  0  0
    9.5910   -3.7847    2.0923 H   0  0  0  0  0  0  0  0  0  0  0  0
    9.2802   -2.1425    3.3890 C   0  0  0  0  0  0  0  0  0  0  0  0
    8.2285   -2.4347    3.4160 H   0  0  0  0  0  0  0  0  0  0  0  0
    9.5689   -1.8194    4.3838 H   0  0  0  0  0  0  0  0  0  0  0  0
    9.4081   -1.3012    2.7076 H   0  0  0  0  0  0  0  0  0  0  0  0
   10.2341   -4.3432    4.0376 C   0  0  0  0  0  0  0  0  0  0  0  0
    9.3219   -4.3767    4.6437 H   0  0  0  0  0  0  0  0  0  0  0  0
   11.0753   -4.0880    4.6853 H   0  0  0  0  0  0  0  0  0  0  0  0
   10.4002   -5.3267    3.5938 H   0  0  0  0  0  0  0  0  0  0  0  0
   14.2030   -2.6510    1.4844 C   0  0  0  0  0  0  0  0  0  0  0  0
   14.3371   -2.4411    2.8213 N   0  0  0  0  0  0  0  0  0  0  0  0
   15.2862   -2.2569    3.1519 H   0  0  0  0  0  0  0  0  0  0  0  0
   13.5614   -1.9893    3.3004 H   0  0  0  0  0  0  0  0  0  0  0  0
   15.2209   -2.8764    0.7160 N   0  0  0  0  0  4  0  0  0  0  0  0
   16.1762   -3.0035    1.0593 H   0  0  0  0  0  0  0  0  0  0  0  0
   15.3295   -0.8322   -1.4451 C   0  0  0  0  0  0  0  0  0  0  0  0
   14.8961   -0.4810   -0.5135 H   0  0  0  0  0  0  0  0  0  0  0  0
   15.4989    2.0050   -0.7784 C   0  0  0  0  0  0  0  0  0  0  0  0
   15.3897    1.2911    0.0325 H   0  0  0  0  0  0  0  0  0  0  0  0
   15.4247    3.3769   -0.5479 C   0  0  0  0  0  0  0  0  0  0  0  0
   15.2337    3.7594    0.4474 H   0  0  0  0  0  0  0  0  0  0  0  0
  1  2  1  0
  2  3  2  0
  3  4  1  0
  4  5  1  0
  4  6  2  0
  6  7  1  0
  7  8  2  0
  8  9  1  0
  8 10  1  0
 10 11  1  0
 10 12  2  0
 12 13  1  0
 12 14  1  0
 15 14  1  6
 15 16  1  0
 16 17  2  0
 17 18  1  0
 17 19  1  0
 19 20  1  0
 19 21  2  0
 21 22  1  0
 21 23  1  0
 23 24  1  0
 23 25  2  0
 25 26  1  0
 15 27  1  0
 27 28  2  0
 27 29  1  0
 29 30  1  0
 30 31  2  0
 30 32  1  0
 32 33  1  0
 32 34  1  0
 34 35  1  0
 34 36  1  0
 36 37  1  0
 36 38  1  0
 36 39  1  0
 34 40  1  0
 40 41  1  0
 40 42  1  0
 40 43  1  0
 29 44  1  0
 44 45  1  0
 45 46  1  0
 45 47  1  0
 44 48  2  0
 48 49  1  0
 14 50  2  0
 50 51  1  0
  6 52  1  0
 52 53  1  0
 52 54  2  0
 54 55  1  0
 54  2  1  0
 50  7  1  0
 48 15  1  0
 25 16  1  0
M  CHG  1  48   1
M  END
>  <score>  (257) 
5.55576

$$$$

     RDKit          3D

 62 66  0  0  0  0  0  0  0  0999 V2000
   15.5396    5.3338   -1.4274 H   0  0  0  0  0  0  0  0  0  0  0  0
   15.6160    4.2638   -1.6084 C   0  0  0  0  0  0  0  0  0  0  0  0
   15.8576    3.8286   -2.8548 N   0  0  0  0  0  0  0  0  0  0  0  0
   15.9404    2.5009   -3.0694 C   0  0  0  0  0  0  0  0  0  0  0  0
   16.1308    2.1513   -4.0797 H   0  0  0  0  0  0  0  0  0  0  0  0
   15.7749    1.5444   -2.0566 C   0  0  0  0  0  0  0  0  0  0  0  0
   15.8327    0.1002   -2.3560 C   0  0  0  0  0  0  0  0  0  0  0  0
   16.3389   -0.3729   -3.5779 C   0  0  0  0  0  0  0  0  0  0  0  0
   16.6971    0.3383   -4.3158 H   0  0  0  0  0  0  0  0  0  0  0  0
   16.3773   -1.7477   -3.8521 C   0  0  0  0  0  0  0  0  0  0  0  0
   16.7581   -2.1091   -4.8039 H   0  0  0  0  0  0  0  0  0  0  0  0
   15.9169   -2.6618   -2.8985 C   0  0  0  0  0  0  0  0  0  0  0  0
   15.9479   -3.7276   -3.1117 H   0  0  0  0  0  0  0  0  0  0  0  0
   15.3968   -2.2158   -1.6719 C   0  0  0  0  0  0  0  0  0  0  0  0
   14.8202   -3.1850   -0.6525 C   0  0  2  0  0  0  0  0  0  0  0  0
   15.2028   -4.6239   -0.9653 C   0  0  0  0  0  0  0  0  0  0  0  0
   16.4335   -5.1597   -0.5503 C   0  0  0  0  0  0  0  0  0  0  0  0
   17.1373   -4.5349   -0.0063 H   0  0  0  0  0  0  0  0  0  0  0  0
   16.7552   -6.4962   -0.8190 C   0  0  0  0  0  0  0  0  0  0  0  0
   17.7016   -6.9064   -0.4778 H   0  0  0  0  0  0  0  0  0  0  0  0
   15.8551   -7.3053   -1.5241 C   0  0  0  0  0  0  0  0  0  0  0  0
   16.0901   -8.3472   -1.7220 H   0  0  0  0  0  0  0  0  0  0  0  0
   14.6421   -6.7712   -1.9707 C   0  0  0  0  0  0  0  0  0  0  0  0
   13.9379   -7.3886   -2.5209 H   0  0  0  0  0  0  0  0  0  0  0  0
   14.3239   -5.4381   -1.6984 C   0  0  0  0  0  0  0  0  0  0  0  0
   13.3828   -5.0280   -2.0527 H   0  0  0  0  0  0  0  0  0  0  0  0
   13.2937   -3.0136   -0.5010 C   0  0  0  0  0  0  0  0  0  0  0  0
   12.4235   -3.2389   -1.3368 O   0  0  0  0  0  0  0  0  0  0  0  0
   13.0117   -2.7115    0.7950 N   0  0  0  0  0  0  0  0  0  0  0  0
   11.7580   -2.7581    1.3012 C   0  0  0  0  0  0  0  0  0  0  0  0
   10.8074   -2.5794    0.5600 O   0  0  0  0  0  0  0  0  0  0  0  0
   11.5979   -3.1071    2.6151 N   0  0  0  0  0  0  0  0  0  0  0  0
   12.4290   -3.4413    3.0980 H   0  0  0  0  0  0  0  0  0  0  0  0
   10.3196   -3.0479    3.3178 C   0  0  0  0  0  0  0  0  0  0  0  0
   10.4750   -3.2082    4.3894 H   0  0  0  0  0  0  0  0  0  0  0  0
    9.8597   -2.0556    3.1951 H   0  0  0  0  0  0  0  0  0  0  0  0
    9.3784   -4.1261    2.7886 C   0  0  0  0  0  0  0  0  0  0  0  0
    9.1744   -3.9504    1.7297 H   0  0  0  0  0  0  0  0  0  0  0  0
    9.8502   -5.1103    2.8861 H   0  0  0  0  0  0  0  0  0  0  0  0
    8.0892   -4.1100    3.5668 C   0  0  0  0  0  0  0  0  0  0  0  0
    7.1252   -3.1212    3.3512 C   0  0  0  0  0  0  0  0  0  0  0  0
    7.3374   -2.3461    2.6311 H   0  0  0  0  0  0  0  0  0  0  0  0
    5.9401   -3.0862    4.1040 C   0  0  0  0  0  0  0  0  0  0  0  0
    5.2152   -2.2903    3.9596 H   0  0  0  0  0  0  0  0  0  0  0  0
    5.7401   -4.0251    5.1212 C   0  0  0  0  0  0  0  0  0  0  0  0
    4.8592   -3.9721    5.7572 H   0  0  0  0  0  0  0  0  0  0  0  0
    6.6936   -5.0272    5.3351 C   0  0  0  0  0  0  0  0  0  0  0  0
    6.5128   -5.7709    6.1065 H   0  0  0  0  0  0  0  0  0  0  0  0
    7.8600   -5.0709    4.5544 C   0  0  0  0  0  0  0  0  0  0  0  0
    8.6090   -5.8412    4.7085 H   0  0  0  0  0  0  0  0  0  0  0  0
   14.1706   -2.6705    1.4926 C   0  0  0  0  0  0  0  0  0  0  0  0
   14.2588   -2.4911    2.8374 N   0  0  0  0  0  0  0  0  0  0  0  0
   13.4332   -2.1179    3.3008 H   0  0  0  0  0  0  0  0  0  0  0  0
   15.1726   -2.2293    3.2045 H   0  0  0  0  0  0  0  0  0  0  0  0
   15.1978   -2.8364    0.7342 N   0  0  0  0  0  4  0  0  0  0  0  0
   16.1370   -2.9890    1.1074 H   0  0  0  0  0  0  0  0  0  0  0  0
   15.3518   -0.8346   -1.4280 C   0  0  0  0  0  0  0  0  0  0  0  0
   14.9217   -0.4763   -0.4992 H   0  0  0  0  0  0  0  0  0  0  0  0
   15.5422    2.0061   -0.7576 C   0  0  0  0  0  0  0  0  0  0  0  0
   15.4474    1.2979    0.0602 H   0  0  0  0  0  0  0  0  0  0  0  0
   15.4598    3.3819   -0.5381 C   0  0  0  0  0  0  0  0  0  0  0  0
   15.2857    3.7822    0.4528 H   0  0  0  0  0  0  0  0  0  0  0  0
  1  2  1  0
  2  3  2  0
  3  4  1  0
  4  5  1  0
  4  6  2  0
  6  7  1  0
  7  8  2  0
  8  9  1  0
  8 10  1  0
 10 11  1  0
 10 12  2  0
 12 13  1  0
 12 14  1  0
 15 14  1  6
 15 16  1  0
 16 17  2  0
 17 18  1  0
 17 19  1  0
 19 20  1  0
 19 21  2  0
 21 22  1  0
 21 23  1  0
 23 24  1  0
 23 25  2  0
 25 26  1  0
 15 27  1  0
 27 28  2  0
 27 29  1  0
 29 30  1  0
 30 31  2  0
 30 32  1  0
 32 33  1  0
 32 34  1  0
 34 35  1  0
 34 36  1  0
 34 37  1  0
 37 38  1  0
 37 39  1  0
 37 40  1  0
 40 41  2  0
 41 42  1  0
 41 43  1  0
 43 44  1  0
 43 45  2  0
 45 46  1  0
 45 47  1  0
 47 48  1  0
 47 49  2  0
 49 50  1  0
 29 51  1  0
 51 52  1  0
 52 53  1  0
 52 54  1  0
 51 55  2  0
 55 56  1  0
 14 57  2  0
 57 58  1  0
  6 59  1  0
 59 60  1  0
 59 61  2  0
 61 62  1  0
 61  2  1  0
 57  7  1  0
 55 15  1  0
 25 16  1  0
 49 40  1  0
M  CHG  1  55   1
M  END
>  <score>  (258) 
5.55492

$$$$

     RDKit          3D

 52 55  0  0  0  0  0  0  0  0999 V2000
   15.5520    5.3506   -1.3947 H   0  0  0  0  0  0  0  0  0  0  0  0
   15.5869    4.2846   -1.6059 C   0  0  0  0  0  0  0  0  0  0  0  0
   15.8221    3.8688   -2.8604 N   0  0  0  0  0  0  0  0  0  0  0  0
   15.8798    2.5425   -3.0952 C   0  0  0  0  0  0  0  0  0  0  0  0
   16.0742    2.1983   -4.1054 H   0  0  0  0  0  0  0  0  0  0  0  0
   15.6973    1.5695   -2.0995 C   0  0  0  0  0  0  0  0  0  0  0  0
   15.7773    0.1255   -2.4101 C   0  0  0  0  0  0  0  0  0  0  0  0
   16.3325   -0.3126   -3.6149 C   0  0  0  0  0  0  0  0  0  0  0  0
   16.7089    0.4359   -4.3018 H   0  0  0  0  0  0  0  0  0  0  0  0
   16.4264   -1.6806   -3.9116 C   0  0  0  0  0  0  0  0  0  0  0  0
   16.8650   -2.0010   -4.8504 H   0  0  0  0  0  0  0  0  0  0  0  0
   15.9519   -2.6327   -3.0024 C   0  0  0  0  0  0  0  0  0  0  0  0
   16.0028   -3.6938   -3.2358 H   0  0  0  0  0  0  0  0  0  0  0  0
   15.3973   -2.2225   -1.7834 C   0  0  0  0  0  0  0  0  0  0  0  0
   14.8448   -3.2255   -0.7822 C   0  0  2  0  0  0  0  0  0  0  0  0
   15.1929   -4.6935   -1.0756 C   0  0  0  0  0  0  0  0  0  0  0  0
   16.4053   -5.2228   -0.6076 C   0  0  0  0  0  0  0  0  0  0  0  0
   17.0798   -4.5746   -0.0571 H   0  0  0  0  0  0  0  0  0  0  0  0
   16.7388   -6.5692   -0.8039 C   0  0  0  0  0  0  0  0  0  0  0  0
   17.6736   -6.9618   -0.4109 H   0  0  0  0  0  0  0  0  0  0  0  0
   15.8582   -7.4175   -1.4816 C   0  0  0  0  0  0  0  0  0  0  0  0
   16.1036   -8.4680   -1.6157 H   0  0  0  0  0  0  0  0  0  0  0  0
   14.6471   -6.9123   -1.9653 C   0  0  0  0  0  0  0  0  0  0  0  0
   13.9608   -7.5782   -2.4841 H   0  0  0  0  0  0  0  0  0  0  0  0
   14.3166   -5.5601   -1.7640 C   0  0  0  0  0  0  0  0  0  0  0  0
   13.3603   -5.1899   -2.1223 H   0  0  0  0  0  0  0  0  0  0  0  0
   13.3300   -2.9969   -0.6175 C   0  0  0  0  0  0  0  0  0  0  0  0
   12.4683   -3.1457   -1.4799 O   0  0  0  0  0  0  0  0  0  0  0  0
   13.0481   -2.6219    0.6858 N   0  0  0  0  0  0  0  0  0  0  0  0
   11.7036   -2.6544    1.3288 C   0  0  0  0  0  0  0  0  0  0  0  0
   11.6856   -1.9356    2.1589 H   0  0  0  0  0  0  0  0  0  0  0  0
   10.9350   -2.3369    0.6174 H   0  0  0  0  0  0  0  0  0  0  0  0
   11.2708   -4.0390    1.8656 C   0  0  0  0  0  0  0  0  0  0  0  0
   10.8693   -4.9144    1.1011 O   0  0  0  0  0  0  0  0  0  0  0  0
   11.3276   -4.2911    3.2227 N   0  0  0  0  0  0  0  0  0  0  0  0
   11.7250   -3.5608    3.8199 H   0  0  0  0  0  0  0  0  0  0  0  0
   11.1382   -5.6428    3.7462 C   0  0  0  0  0  0  0  0  0  0  0  0
   11.8504   -6.3416    3.2863 H   0  0  0  0  0  0  0  0  0  0  0  0
   11.2873   -5.6526    4.8277 H   0  0  0  0  0  0  0  0  0  0  0  0
   10.1259   -6.0055    3.5278 H   0  0  0  0  0  0  0  0  0  0  0  0
   14.2671   -2.5866    1.3467 C   0  0  0  0  0  0  0  0  0  0  0  0
   14.4235   -2.3506    2.6786 N   0  0  0  0  0  0  0  0  0  0  0  0
   15.3621   -2.3381    3.0762 H   0  0  0  0  0  0  0  0  0  0  0  0
   13.6152   -2.0910    3.2391 H   0  0  0  0  0  0  0  0  0  0  0  0
   15.2750   -2.8662    0.5864 N   0  0  0  0  0  4  0  0  0  0  0  0
   16.2343   -2.9691    0.9266 H   0  0  0  0  0  0  0  0  0  0  0  0
   15.3135   -0.8419   -1.5064 C   0  0  0  0  0  0  0  0  0  0  0  0
   14.8706   -0.5067   -0.5738 H   0  0  0  0  0  0  0  0  0  0  0  0
   15.4499    2.0095   -0.8010 C   0  0  0  0  0  0  0  0  0  0  0  0
   15.3403    1.2670   -0.0169 H   0  0  0  0  0  0  0  0  0  0  0  0
   15.3857    3.3845   -0.5567 C   0  0  0  0  0  0  0  0  0  0  0  0
   15.1820    3.7721    0.4344 H   0  0  0  0  0  0  0  0  0  0  0  0
  1  2  1  0
  2  3  2  0
  3  4  1  0
  4  5  1  0
  4  6  2  0
  6  7  1  0
  7  8  2  0
  8  9  1  0
  8 10  1  0
 10 11  1  0
 10 12  2  0
 12 13  1  0
 12 14  1  0
 15 14  1  6
 15 16  1  0
 16 17  2  0
 17 18  1  0
 17 19  1  0
 19 20  1  0
 19 21  2  0
 21 22  1  0
 21 23  1  0
 23 24  1  0
 23 25  2  0
 25 26  1  0
 15 27  1  0
 27 28  2  0
 27 29  1  0
 29 30  1  0
 30 31  1  0
 30 32  1  0
 30 33  1  0
 33 34  2  0
 33 35  1  0
 35 36  1  0
 35 37  1  0
 37 38  1  0
 37 39  1  0
 37 40  1  0
 29 41  1  0
 41 42  1  0
 42 43  1  0
 42 44  1  0
 41 45  2  0
 45 46  1  0
 14 47  2  0
 47 48  1  0
  6 49  1  0
 49 50  1  0
 49 51  2  0
 51 52  1  0
 51  2  1  0
 47  7  1  0
 45 15  1  0
 25 16  1  0
M  CHG  1  45   1
M  END
>  <score>  (259) 
5.55425

$$$$

     RDKit          3D

 54 58  0  0  0  0  0  0  0  0999 V2000
   15.5519    5.3499   -1.3952 H   0  0  0  0  0  0  0  0  0  0  0  0
   15.5873    4.2837   -1.6060 C   0  0  0  0  0  0  0  0  0  0  0  0
   15.8240    3.8683   -2.8609 N   0  0  0  0  0  0  0  0  0  0  0  0
   15.8801    2.5416   -3.0941 C   0  0  0  0  0  0  0  0  0  0  0  0
   16.0717    2.2014   -4.1062 H   0  0  0  0  0  0  0  0  0  0  0  0
   15.6973    1.5679   -2.0984 C   0  0  0  0  0  0  0  0  0  0  0  0
   15.7746    0.1224   -2.4037 C   0  0  0  0  0  0  0  0  0  0  0  0
   16.3298   -0.3184   -3.6096 C   0  0  0  0  0  0  0  0  0  0  0  0
   16.7106    0.4254   -4.3011 H   0  0  0  0  0  0  0  0  0  0  0  0
   16.4193   -1.6853   -3.9008 C   0  0  0  0  0  0  0  0  0  0  0  0
   16.8633   -2.0038   -4.8386 H   0  0  0  0  0  0  0  0  0  0  0  0
   15.9362   -2.6346   -2.9895 C   0  0  0  0  0  0  0  0  0  0  0  0
   15.9955   -3.6931   -3.2281 H   0  0  0  0  0  0  0  0  0  0  0  0
   15.3700   -2.2276   -1.7686 C   0  0  0  0  0  0  0  0  0  0  0  0
   14.7930   -3.2342   -0.7692 C   0  0  2  0  0  0  0  0  0  0  0  0
   15.1680   -4.6953   -1.0630 C   0  0  0  0  0  0  0  0  0  0  0  0
   16.3901   -5.2177   -0.6011 C   0  0  0  0  0  0  0  0  0  0  0  0
   17.0719   -4.5703   -0.0569 H   0  0  0  0  0  0  0  0  0  0  0  0
   16.7333   -6.5619   -0.8024 C   0  0  0  0  0  0  0  0  0  0  0  0
   17.6702   -6.9513   -0.4145 H   0  0  0  0  0  0  0  0  0  0  0  0
   15.8571   -7.4132   -1.4804 C   0  0  0  0  0  0  0  0  0  0  0  0
   16.1058   -8.4627   -1.6151 H   0  0  0  0  0  0  0  0  0  0  0  0
   14.6454   -6.9121   -1.9652 C   0  0  0  0  0  0  0  0  0  0  0  0
   13.9636   -7.5773   -2.4878 H   0  0  0  0  0  0  0  0  0  0  0  0
   14.3044   -5.5637   -1.7611 C   0  0  0  0  0  0  0  0  0  0  0  0
   13.3529   -5.1935   -2.1286 H   0  0  0  0  0  0  0  0  0  0  0  0
   13.2760   -3.0086   -0.6041 C   0  0  0  0  0  0  0  0  0  0  0  0
   12.4202   -3.1121   -1.4865 O   0  0  0  0  0  0  0  0  0  0  0  0
   13.0016   -2.6711    0.7070 N   0  0  0  0  0  0  0  0  0  0  0  0
   11.7322   -2.4628    1.2513 C   0  0  0  0  0  0  0  0  0  0  0  0
   11.3186   -3.1689    2.3825 C   0  0  0  0  0  0  0  0  0  0  0  0
   12.0146   -3.8682    2.8268 H   0  0  0  0  0  0  0  0  0  0  0  0
   10.0400   -2.9909    2.9191 C   0  0  0  0  0  0  0  0  0  0  0  0
    9.7302   -3.5591    3.7958 H   0  0  0  0  0  0  0  0  0  0  0  0
    9.1679   -2.0680    2.3337 C   0  0  0  0  0  0  0  0  0  0  0  0
    8.1879   -1.9282    2.7766 H   0  0  0  0  0  0  0  0  0  0  0  0
    9.5584   -1.3213    1.2021 C   0  0  0  0  0  0  0  0  0  0  0  0
    8.7077   -0.3530    0.6362 N   0  0  0  0  0  4  0  0  0  0  0  0
    9.0972    0.2424   -0.3695 O   0  0  0  0  0  0  0  0  0  0  0  0
    7.6172   -0.1405    1.1786 O   0  0  0  0  0  1  0  0  0  0  0  0
   10.8487   -1.5484    0.6693 C   0  0  0  0  0  0  0  0  0  0  0  0
   11.1839   -0.9769   -0.1936 H   0  0  0  0  0  0  0  0  0  0  0  0
   14.1989   -2.6491    1.3850 C   0  0  0  0  0  0  0  0  0  0  0  0
   14.3884   -2.3747    2.7097 N   0  0  0  0  0  0  0  0  0  0  0  0
   15.3411   -2.3395    3.0669 H   0  0  0  0  0  0  0  0  0  0  0  0
   13.6091   -2.0385    3.2757 H   0  0  0  0  0  0  0  0  0  0  0  0
   15.2018   -2.9154    0.6177 N   0  0  0  0  0  4  0  0  0  0  0  0
   16.1686   -2.9485    0.9484 H   0  0  0  0  0  0  0  0  0  0  0  0
   15.3027   -0.8438   -1.4975 C   0  0  0  0  0  0  0  0  0  0  0  0
   14.8614   -0.5031   -0.5660 H   0  0  0  0  0  0  0  0  0  0  0  0
   15.4478    2.0106   -0.8006 C   0  0  0  0  0  0  0  0  0  0  0  0
   15.3376    1.2746   -0.0115 H   0  0  0  0  0  0  0  0  0  0  0  0
   15.3845    3.3845   -0.5567 C   0  0  0  0  0  0  0  0  0  0  0  0
   15.1820    3.7686    0.4357 H   0  0  0  0  0  0  0  0  0  0  0  0
  1  2  1  0
  2  3  2  0
  3  4  1  0
  4  5  1  0
  4  6  2  0
  6  7  1  0
  7  8  2  0
  8  9  1  0
  8 10  1  0
 10 11  1  0
 10 12  2  0
 12 13  1  0
 12 14  1  0
 15 14  1  6
 15 16  1  0
 16 17  2  0
 17 18  1  0
 17 19  1  0
 19 20  1  0
 19 21  2  0
 21 22  1  0
 21 23  1  0
 23 24  1  0
 23 25  2  0
 25 26  1  0
 15 27  1  0
 27 28  2  0
 27 29  1  0
 29 30  1  0
 30 31  2  0
 31 32  1  0
 31 33  1  0
 33 34  1  0
 33 35  2  0
 35 36  1  0
 35 37  1  0
 37 38  1  0
 38 39  2  0
 38 40  1  0
 37 41  2  0
 41 42  1  0
 29 43  1  0
 43 44  1  0
 44 45  1  0
 44 46  1  0
 43 47  2  0
 47 48  1  0
 14 49  2  0
 49 50  1  0
  6 51  1  0
 51 52  1  0
 51 53  2  0
 53 54  1  0
 53  2  1  0
 49  7  1  0
 47 15  1  0
 25 16  1  0
 41 30  1  0
M  CHG  3  38   1  40  -1  47   1
M  END
>  <score>  (260) 
5.55381

$$$$

     RDKit          3D

 46 49  0  0  0  0  0  0  0  0999 V2000
   15.5541    5.3515   -1.3954 H   0  0  0  0  0  0  0  0  0  0  0  0
   15.5862    4.2849   -1.6046 C   0  0  0  0  0  0  0  0  0  0  0  0
   15.8239    3.8679   -2.8581 N   0  0  0  0  0  0  0  0  0  0  0  0
   15.8782    2.5414   -3.0931 C   0  0  0  0  0  0  0  0  0  0  0  0
   16.0691    2.2041   -4.1067 H   0  0  0  0  0  0  0  0  0  0  0  0
   15.6955    1.5675   -2.0966 C   0  0  0  0  0  0  0  0  0  0  0  0
   15.7701    0.1214   -2.4044 C   0  0  0  0  0  0  0  0  0  0  0  0
   16.3319   -0.3183   -3.6072 C   0  0  0  0  0  0  0  0  0  0  0  0
   16.7118    0.4207   -4.3021 H   0  0  0  0  0  0  0  0  0  0  0  0
   16.4189   -1.6838   -3.9056 C   0  0  0  0  0  0  0  0  0  0  0  0
   16.8646   -2.0071   -4.8390 H   0  0  0  0  0  0  0  0  0  0  0  0
   15.9351   -2.6369   -3.0025 C   0  0  0  0  0  0  0  0  0  0  0  0
   15.9967   -3.6973   -3.2342 H   0  0  0  0  0  0  0  0  0  0  0  0
   15.3703   -2.2338   -1.7834 C   0  0  0  0  0  0  0  0  0  0  0  0
   14.8234   -3.2512   -0.7828 C   0  0  2  0  0  0  0  0  0  0  0  0
   15.1876   -4.7076   -1.0754 C   0  0  0  0  0  0  0  0  0  0  0  0
   16.4002   -5.2283   -0.6017 C   0  0  0  0  0  0  0  0  0  0  0  0
   17.0725   -4.5724   -0.0553 H   0  0  0  0  0  0  0  0  0  0  0  0
   16.7350   -6.5716   -0.7999 C   0  0  0  0  0  0  0  0  0  0  0  0
   17.6742   -6.9533   -0.4138 H   0  0  0  0  0  0  0  0  0  0  0  0
   15.8569   -7.4194   -1.4798 C   0  0  0  0  0  0  0  0  0  0  0  0
   16.1094   -8.4660   -1.6153 H   0  0  0  0  0  0  0  0  0  0  0  0
   14.6449   -6.9207   -1.9652 C   0  0  0  0  0  0  0  0  0  0  0  0
   13.9637   -7.5849   -2.4893 H   0  0  0  0  0  0  0  0  0  0  0  0
   14.3100   -5.5728   -1.7643 C   0  0  0  0  0  0  0  0  0  0  0  0
   13.3566   -5.2018   -2.1307 H   0  0  0  0  0  0  0  0  0  0  0  0
   13.3038   -3.0929   -0.6019 C   0  0  0  0  0  0  0  0  0  0  0  0
   12.4019   -3.0869   -1.4383 O   0  0  0  0  0  0  0  0  0  0  0  0
   13.0770   -2.7788    0.6960 N   0  0  0  0  0  0  0  0  0  0  0  0
   11.8662   -2.3464    1.0746 C   0  0  0  0  0  0  0  0  0  0  0  0
   10.8491   -2.8328    0.6213 O   0  0  0  0  0  0  0  0  0  0  0  0
   11.8382   -1.2379    1.8377 N   0  0  0  0  0  0  0  0  0  0  0  0
   10.9344   -0.8617    2.0991 H   0  0  0  0  0  0  0  0  0  0  0  0
   12.6926   -0.7139    1.9947 H   0  0  0  0  0  0  0  0  0  0  0  0
   14.2471   -2.5911    1.3517 C   0  0  0  0  0  0  0  0  0  0  0  0
   14.3737   -2.1984    2.6514 N   0  0  0  0  0  0  0  0  0  0  0  0
   15.2881   -2.3271    3.0813 H   0  0  0  0  0  0  0  0  0  0  0  0
   13.5545   -2.2661    3.2507 H   0  0  0  0  0  0  0  0  0  0  0  0
   15.2479   -2.8757    0.5926 N   0  0  0  0  0  4  0  0  0  0  0  0
   16.2116   -2.9350    0.9320 H   0  0  0  0  0  0  0  0  0  0  0  0
   15.2945   -0.8489   -1.5051 C   0  0  0  0  0  0  0  0  0  0  0  0
   14.8613   -0.5090   -0.5691 H   0  0  0  0  0  0  0  0  0  0  0  0
   15.4475    2.0119   -0.7986 C   0  0  0  0  0  0  0  0  0  0  0  0
   15.3326    1.2783   -0.0079 H   0  0  0  0  0  0  0  0  0  0  0  0
   15.3827    3.3861   -0.5558 C   0  0  0  0  0  0  0  0  0  0  0  0
   15.1817    3.7717    0.4360 H   0  0  0  0  0  0  0  0  0  0  0  0
  1  2  1  0
  2  3  2  0
  3  4  1  0
  4  5  1  0
  4  6  2  0
  6  7  1  0
  7  8  2  0
  8  9  1  0
  8 10  1  0
 10 11  1  0
 10 12  2  0
 12 13  1  0
 12 14  1  0
 15 14  1  6
 15 16  1  0
 16 17  2  0
 17 18  1  0
 17 19  1  0
 19 20  1  0
 19 21  2  0
 21 22  1  0
 21 23  1  0
 23 24  1  0
 23 25  2  0
 25 26  1  0
 15 27  1  0
 27 28  2  0
 27 29  1  0
 29 30  1  0
 30 31  2  0
 30 32  1  0
 32 33  1  0
 32 34  1  0
 29 35  1  0
 35 36  1  0
 36 37  1  0
 36 38  1  0
 35 39  2  0
 39 40  1  0
 14 41  2  0
 41 42  1  0
  6 43  1  0
 43 44  1  0
 43 45  2  0
 45 46  1  0
 45  2  1  0
 41  7  1  0
 39 15  1  0
 25 16  1  0
M  CHG  1  39   1
M  END
>  <score>  (261) 
5.5525

$$$$

     RDKit          3D

 52 56  0  0  0  0  0  0  0  0999 V2000
   15.5705    5.3721   -1.3880 H   0  0  0  0  0  0  0  0  0  0  0  0
   15.5855    4.3035   -1.5952 C   0  0  0  0  0  0  0  0  0  0  0  0
   15.8206    3.8821   -2.8476 N   0  0  0  0  0  0  0  0  0  0  0  0
   15.8632    2.5548   -3.0864 C   0  0  0  0  0  0  0  0  0  0  0  0
   16.0404    2.2327   -4.1065 H   0  0  0  0  0  0  0  0  0  0  0  0
   15.6838    1.5720   -2.0950 C   0  0  0  0  0  0  0  0  0  0  0  0
   15.7744    0.1195   -2.4104 C   0  0  0  0  0  0  0  0  0  0  0  0
   16.3464   -0.3223   -3.6140 C   0  0  0  0  0  0  0  0  0  0  0  0
   16.7303    0.4001   -4.3264 H   0  0  0  0  0  0  0  0  0  0  0  0
   16.4320   -1.6900   -3.9111 C   0  0  0  0  0  0  0  0  0  0  0  0
   16.8665   -2.0087   -4.8543 H   0  0  0  0  0  0  0  0  0  0  0  0
   15.9460   -2.6452   -3.0082 C   0  0  0  0  0  0  0  0  0  0  0  0
   16.0063   -3.7010   -3.2625 H   0  0  0  0  0  0  0  0  0  0  0  0
   15.3801   -2.2441   -1.7858 C   0  0  0  0  0  0  0  0  0  0  0  0
   14.8123   -3.2536   -0.7862 C   0  0  2  0  0  0  0  0  0  0  0  0
   15.1699   -4.7195   -1.0730 C   0  0  0  0  0  0  0  0  0  0  0  0
   16.3879   -5.2408   -0.6071 C   0  0  0  0  0  0  0  0  0  0  0  0
   17.0687   -4.5906   -0.0671 H   0  0  0  0  0  0  0  0  0  0  0  0
   16.7292   -6.5831   -0.8014 C   0  0  0  0  0  0  0  0  0  0  0  0
   17.6738   -6.9563   -0.4178 H   0  0  0  0  0  0  0  0  0  0  0  0
   15.8544   -7.4420   -1.4709 C   0  0  0  0  0  0  0  0  0  0  0  0
   16.1225   -8.4870   -1.6114 H   0  0  0  0  0  0  0  0  0  0  0  0
   14.6428   -6.9431   -1.9606 C   0  0  0  0  0  0  0  0  0  0  0  0
   13.9720   -7.6153   -2.4884 H   0  0  0  0  0  0  0  0  0  0  0  0
   14.3022   -5.5925   -1.7682 C   0  0  0  0  0  0  0  0  0  0  0  0
   13.3533   -5.2371   -2.1600 H   0  0  0  0  0  0  0  0  0  0  0  0
   13.2981   -3.0394   -0.6037 C   0  0  0  0  0  0  0  0  0  0  0  0
   12.4256   -3.1081   -1.4664 O   0  0  0  0  0  0  0  0  0  0  0  0
   13.0202   -2.6648    0.6920 N   0  0  0  0  0  0  0  0  0  0  0  0
   11.6893   -2.6750    1.2922 C   0  0  0  0  0  0  0  0  0  0  0  0
   10.9388   -2.2977    0.5858 H   0  0  0  0  0  0  0  0  0  0  0  0
   11.6648   -2.0247    2.1699 H   0  0  0  0  0  0  0  0  0  0  0  0
   11.3198   -4.0901    1.7102 C   0  0  0  0  0  0  0  0  0  0  0  0
   11.4691   -4.8507    0.9397 H   0  0  0  0  0  0  0  0  0  0  0  0
   11.5253   -4.5099    3.1651 C   0  0  0  0  0  0  0  0  0  0  0  0
   11.8027   -5.5449    3.3928 H   0  0  0  0  0  0  0  0  0  0  0  0
   11.9427   -3.7814    3.8670 H   0  0  0  0  0  0  0  0  0  0  0  0
   10.1129   -4.2507    2.6304 C   0  0  0  0  0  0  0  0  0  0  0  0
    9.5982   -3.3456    2.9696 H   0  0  0  0  0  0  0  0  0  0  0  0
    9.4502   -5.1123    2.4973 H   0  0  0  0  0  0  0  0  0  0  0  0
   14.2171   -2.6393    1.3657 C   0  0  0  0  0  0  0  0  0  0  0  0
   14.3919   -2.3614    2.6931 N   0  0  0  0  0  0  0  0  0  0  0  0
   13.5925   -2.0714    3.2548 H   0  0  0  0  0  0  0  0  0  0  0  0
   15.3310   -2.3780    3.0910 H   0  0  0  0  0  0  0  0  0  0  0  0
   15.2180   -2.9022    0.5926 N   0  0  0  0  0  4  0  0  0  0  0  0
   16.1864   -2.9052    0.9070 H   0  0  0  0  0  0  0  0  0  0  0  0
   15.3022   -0.8591   -1.5143 C   0  0  0  0  0  0  0  0  0  0  0  0
   14.8661   -0.5343   -0.5766 H   0  0  0  0  0  0  0  0  0  0  0  0
   15.4282    2.0275   -0.7963 C   0  0  0  0  0  0  0  0  0  0  0  0
   15.2917    1.3187    0.0111 H   0  0  0  0  0  0  0  0  0  0  0  0
   15.3697    3.4033   -0.5500 C   0  0  0  0  0  0  0  0  0  0  0  0
   15.1673    3.7873    0.4445 H   0  0  0  0  0  0  0  0  0  0  0  0
  1  2  1  0
  2  3  2  0
  3  4  1  0
  4  5  1  0
  4  6  2  0
  6  7  1  0
  7  8  2  0
  8  9  1  0
  8 10  1  0
 10 11  1  0
 10 12  2  0
 12 13  1  0
 12 14  1  0
 15 14  1  6
 15 16  1  0
 16 17  2  0
 17 18  1  0
 17 19  1  0
 19 20  1  0
 19 21  2  0
 21 22  1  0
 21 23  1  0
 23 24  1  0
 23 25  2  0
 25 26  1  0
 15 27  1  0
 27 28  2  0
 27 29  1  0
 29 30  1  0
 30 31  1  0
 30 32  1  0
 30 33  1  0
 33 34  1  0
 33 35  1  0
 35 36  1  0
 35 37  1  0
 35 38  1  0
 38 39  1  0
 38 40  1  0
 29 41  1  0
 41 42  1  0
 42 43  1  0
 42 44  1  0
 41 45  2  0
 45 46  1  0
 14 47  2  0
 47 48  1  0
  6 49  1  0
 49 50  1  0
 49 51  2  0
 51 52  1  0
 51  2  1  0
 47  7  1  0
 45 15  1  0
 25 16  1  0
 38 33  1  0
M  CHG  1  45   1
M  END
>  <score>  (262) 
5.55207

$$$$

     RDKit          3D

 50 53  0  0  0  0  0  0  0  0999 V2000
   15.5399    5.3332   -1.4072 H   0  0  0  0  0  0  0  0  0  0  0  0
   15.5846    4.2683   -1.6110 C   0  0  0  0  0  0  0  0  0  0  0  0
   15.8354    3.8582   -2.8636 N   0  0  0  0  0  0  0  0  0  0  0  0
   15.8908    2.5338   -3.0989 C   0  0  0  0  0  0  0  0  0  0  0  0
   16.0866    2.2002   -4.1137 H   0  0  0  0  0  0  0  0  0  0  0  0
   15.7068    1.5643   -2.0977 C   0  0  0  0  0  0  0  0  0  0  0  0
   15.7804    0.1240   -2.3980 C   0  0  0  0  0  0  0  0  0  0  0  0
   16.3340   -0.3135   -3.6059 C   0  0  0  0  0  0  0  0  0  0  0  0
   16.7074    0.4226   -4.3119 H   0  0  0  0  0  0  0  0  0  0  0  0
   16.4107   -1.6792   -3.8998 C   0  0  0  0  0  0  0  0  0  0  0  0
   16.8617   -2.0038   -4.8341 H   0  0  0  0  0  0  0  0  0  0  0  0
   15.9280   -2.6216   -2.9799 C   0  0  0  0  0  0  0  0  0  0  0  0
   15.9933   -3.6794   -3.2149 H   0  0  0  0  0  0  0  0  0  0  0  0
   15.3757   -2.2187   -1.7527 C   0  0  0  0  0  0  0  0  0  0  0  0
   14.8071   -3.2265   -0.7553 C   0  0  2  0  0  0  0  0  0  0  0  0
   15.1693   -4.6816   -1.0612 C   0  0  0  0  0  0  0  0  0  0  0  0
   16.3900   -5.2054   -0.6042 C   0  0  0  0  0  0  0  0  0  0  0  0
   17.0690   -4.5575   -0.0589 H   0  0  0  0  0  0  0  0  0  0  0  0
   16.7260   -6.5486   -0.8006 C   0  0  0  0  0  0  0  0  0  0  0  0
   17.6668   -6.9317   -0.4152 H   0  0  0  0  0  0  0  0  0  0  0  0
   15.8455   -7.3920   -1.4816 C   0  0  0  0  0  0  0  0  0  0  0  0
   16.1024   -8.4385   -1.6221 H   0  0  0  0  0  0  0  0  0  0  0  0
   14.6355   -6.8864   -1.9686 C   0  0  0  0  0  0  0  0  0  0  0  0
   13.9549   -7.5535   -2.4905 H   0  0  0  0  0  0  0  0  0  0  0  0
   14.2960   -5.5392   -1.7588 C   0  0  0  0  0  0  0  0  0  0  0  0
   13.3412   -5.1718   -2.1240 H   0  0  0  0  0  0  0  0  0  0  0  0
   13.2892   -3.0002   -0.5720 C   0  0  0  0  0  0  0  0  0  0  0  0
   12.3705   -3.0961   -1.3803 O   0  0  0  0  0  0  0  0  0  0  0  0
   13.0529   -2.7173    0.7460 N   0  0  0  0  0  0  0  0  0  0  0  0
   11.7946   -2.5236    1.2489 C   0  0  0  0  0  0  0  0  0  0  0  0
   10.9482   -2.0639    0.4945 O   0  0  0  0  0  0  0  0  0  0  0  0
   11.3512   -3.3368    2.4621 C   0  0  0  0  0  0  0  0  0  0  0  0
   12.2214   -3.8349    2.8867 H   0  0  0  0  0  0  0  0  0  0  0  0
   10.9472   -2.6761    3.2298 H   0  0  0  0  0  0  0  0  0  0  0  0
   10.3041   -4.3914    2.0642 C   0  0  0  0  0  0  0  0  0  0  0  0
   10.6926   -5.0567    1.2868 H   0  0  0  0  0  0  0  0  0  0  0  0
    9.4045   -3.9074    1.6749 H   0  0  0  0  0  0  0  0  0  0  0  0
   10.0236   -5.0025    2.9249 H   0  0  0  0  0  0  0  0  0  0  0  0
   14.2320   -2.7216    1.4217 C   0  0  0  0  0  0  0  0  0  0  0  0
   14.3675   -2.4728    2.7571 N   0  0  0  0  0  0  0  0  0  0  0  0
   15.3079   -2.2870    3.1012 H   0  0  0  0  0  0  0  0  0  0  0  0
   13.5822   -2.0326    3.2319 H   0  0  0  0  0  0  0  0  0  0  0  0
   15.2312   -2.9252    0.6320 N   0  0  0  0  0  4  0  0  0  0  0  0
   16.2047   -2.9740    0.9399 H   0  0  0  0  0  0  0  0  0  0  0  0
   15.3015   -0.8365   -1.4881 C   0  0  0  0  0  0  0  0  0  0  0  0
   14.8601   -0.4918   -0.5591 H   0  0  0  0  0  0  0  0  0  0  0  0
   15.4628    2.0027   -0.7982 C   0  0  0  0  0  0  0  0  0  0  0  0
   15.3518    1.2738   -0.0018 H   0  0  0  0  0  0  0  0  0  0  0  0
   15.3893    3.3725   -0.5586 C   0  0  0  0  0  0  0  0  0  0  0  0
   15.1975    3.7524    0.4369 H   0  0  0  0  0  0  0  0  0  0  0  0
  1  2  1  0
  2  3  2  0
  3  4  1  0
  4  5  1  0
  4  6  2  0
  6  7  1  0
  7  8  2  0
  8  9  1  0
  8 10  1  0
 10 11  1  0
 10 12  2  0
 12 13  1  0
 12 14  1  0
 15 14  1  6
 15 16  1  0
 16 17  2  0
 17 18  1  0
 17 19  1  0
 19 20  1  0
 19 21  2  0
 21 22  1  0
 21 23  1  0
 23 24  1  0
 23 25  2  0
 25 26  1  0
 15 27  1  0
 27 28  2  0
 27 29  1  0
 29 30  1  0
 30 31  2  0
 30 32  1  0
 32 33  1  0
 32 34  1  0
 32 35  1  0
 35 36  1  0
 35 37  1  0
 35 38  1  0
 29 39  1  0
 39 40  1  0
 40 41  1  0
 40 42  1  0
 39 43  2  0
 43 44  1  0
 14 45  2  0
 45 46  1  0
  6 47  1  0
 47 48  1  0
 47 49  2  0
 49 50  1  0
 49  2  1  0
 45  7  1  0
 43 15  1  0
 25 16  1  0
M  CHG  1  43   1
M  END
>  <score>  (263) 
5.5496

$$$$

     RDKit          3D

 53 56  0  0  0  0  0  0  0  0999 V2000
   15.5114    5.3169   -1.4219 H   0  0  0  0  0  0  0  0  0  0  0  0
   15.5988    4.2504   -1.6099 C   0  0  0  0  0  0  0  0  0  0  0  0
   15.8451    3.8355   -2.8613 N   0  0  0  0  0  0  0  0  0  0  0  0
   15.9388    2.5121   -3.0885 C   0  0  0  0  0  0  0  0  0  0  0  0
   16.1344    2.1778   -4.1020 H   0  0  0  0  0  0  0  0  0  0  0  0
   15.7768    1.5414   -2.0883 C   0  0  0  0  0  0  0  0  0  0  0  0
   15.8620    0.1045   -2.4124 C   0  0  0  0  0  0  0  0  0  0  0  0
   16.3620   -0.3338   -3.6475 C   0  0  0  0  0  0  0  0  0  0  0  0
   16.6990    0.3956   -4.3774 H   0  0  0  0  0  0  0  0  0  0  0  0
   16.4455   -1.6987   -3.9397 C   0  0  0  0  0  0  0  0  0  0  0  0
   16.8300   -2.0150   -4.9022 H   0  0  0  0  0  0  0  0  0  0  0  0
   16.0252   -2.6452   -3.0005 C   0  0  0  0  0  0  0  0  0  0  0  0
   16.0831   -3.7037   -3.2365 H   0  0  0  0  0  0  0  0  0  0  0  0
   15.5153   -2.2347   -1.7602 C   0  0  0  0  0  0  0  0  0  0  0  0
   14.9817   -3.2233   -0.7376 C   0  0  2  0  0  0  0  0  0  0  0  0
   15.3127   -4.6712   -1.0321 C   0  0  0  0  0  0  0  0  0  0  0  0
   16.5179   -5.2272   -0.5874 C   0  0  0  0  0  0  0  0  0  0  0  0
   17.2332   -4.6051   -0.0552 H   0  0  0  0  0  0  0  0  0  0  0  0
   16.7988   -6.5749   -0.8193 C   0  0  0  0  0  0  0  0  0  0  0  0
   17.7294   -6.9948   -0.4539 H   0  0  0  0  0  0  0  0  0  0  0  0
   15.8789   -7.3764   -1.5053 C   0  0  0  0  0  0  0  0  0  0  0  0
   16.0892   -8.4270   -1.6766 H   0  0  0  0  0  0  0  0  0  0  0  0
   14.6814   -6.8255   -1.9698 C   0  0  0  0  0  0  0  0  0  0  0  0
   13.9590   -7.4333   -2.5057 H   0  0  0  0  0  0  0  0  0  0  0  0
   14.4040   -5.4780   -1.7397 C   0  0  0  0  0  0  0  0  0  0  0  0
   13.4697   -5.0609   -2.1042 H   0  0  0  0  0  0  0  0  0  0  0  0
   13.4674   -3.0205   -0.6019 C   0  0  0  0  0  0  0  0  0  0  0  0
   12.6323   -3.2461   -1.4766 O   0  0  0  0  0  0  0  0  0  0  0  0
   13.1707   -2.5294    0.6642 N   0  0  0  0  0  0  0  0  0  0  0  0
   11.8591   -2.1453    1.1684 N   0  0  0  0  0  0  0  0  0  0  0  0
   11.4428   -1.2676    0.8547 H   0  0  0  0  0  0  0  0  0  0  0  0
   11.0870   -2.8250    2.0986 C   0  0  0  0  0  0  0  0  0  0  0  0
   11.5592   -3.7825    2.6998 O   0  0  0  0  0  0  0  0  0  0  0  0
    9.8128   -2.3749    2.2062 O   0  0  0  0  0  0  0  0  0  0  0  0
    9.1153   -2.7165    3.4117 C   0  0  0  0  0  0  0  0  0  0  0  0
    8.7977   -3.7631    3.4200 H   0  0  0  0  0  0  0  0  0  0  0  0
    8.2117   -2.1026    3.4590 H   0  0  0  0  0  0  0  0  0  0  0  0
    9.9514   -2.4301    4.6439 C   0  0  0  0  0  0  0  0  0  0  0  0
    9.3027   -2.4452    5.5235 H   0  0  0  0  0  0  0  0  0  0  0  0
   10.7463   -3.1782    4.7652 H   0  0  0  0  0  0  0  0  0  0  0  0
   10.4071   -1.4432    4.5478 H   0  0  0  0  0  0  0  0  0  0  0  0
   14.3813   -2.4762    1.3473 C   0  0  0  0  0  0  0  0  0  0  0  0
   14.5465   -2.1198    2.6545 N   0  0  0  0  0  0  0  0  0  0  0  0
   15.4640   -2.2951    3.0602 H   0  0  0  0  0  0  0  0  0  0  0  0
   13.7243   -2.1863    3.2542 H   0  0  0  0  0  0  0  0  0  0  0  0
   15.3881   -2.8535    0.6334 N   0  0  0  0  0  4  0  0  0  0  0  0
   16.3311   -2.9955    1.0069 H   0  0  0  0  0  0  0  0  0  0  0  0
   15.4286   -0.8574   -1.4904 C   0  0  0  0  0  0  0  0  0  0  0  0
   14.9965   -0.5255   -0.5501 H   0  0  0  0  0  0  0  0  0  0  0  0
   15.5339    1.9841   -0.7831 C   0  0  0  0  0  0  0  0  0  0  0  0
   15.4316    1.2732    0.0329 H   0  0  0  0  0  0  0  0  0  0  0  0
   15.4463    3.3555   -0.5480 C   0  0  0  0  0  0  0  0  0  0  0  0
   15.2565    3.7305    0.4508 H   0  0  0  0  0  0  0  0  0  0  0  0
  1  2  1  0
  2  3  2  0
  3  4  1  0
  4  5  1  0
  4  6  2  0
  6  7  1  0
  7  8  2  0
  8  9  1  0
  8 10  1  0
 10 11  1  0
 10 12  2  0
 12 13  1  0
 12 14  1  0
 15 14  1  6
 15 16  1  0
 16 17  2  0
 17 18  1  0
 17 19  1  0
 19 20  1  0
 19 21  2  0
 21 22  1  0
 21 23  1  0
 23 24  1  0
 23 25  2  0
 25 26  1  0
 15 27  1  0
 27 28  2  0
 27 29  1  0
 29 30  1  0
 30 31  1  0
 30 32  1  0
 32 33  2  0
 32 34  1  0
 34 35  1  0
 35 36  1  0
 35 37  1  0
 35 38  1  0
 38 39  1  0
 38 40  1  0
 38 41  1  0
 29 42  1  0
 42 43  1  0
 43 44  1  0
 43 45  1  0
 42 46  2  0
 46 47  1  0
 14 48  2  0
 48 49  1  0
  6 50  1  0
 50 51  1  0
 50 52  2  0
 52 53  1  0
 52  2  1  0
 48  7  1  0
 46 15  1  0
 25 16  1  0
M  CHG  1  46   1
M  END
>  <score>  (264) 
5.54928

$$$$

     RDKit          3D

 49 52  0  0  0  0  0  0  0  0999 V2000
   10.3351    0.1167    2.0364 H   0  0  0  0  0  0  0  0  0  0  0  0
   10.5044    0.0070    1.0738 O   0  0  0  0  0  0  0  0  0  0  0  0
   11.8033   -0.5822    0.8956 C   0  0  0  0  0  0  0  0  0  0  0  0
   12.2037   -0.3708   -0.1026 H   0  0  0  0  0  0  0  0  0  0  0  0
   12.4891   -0.1635    1.6298 H   0  0  0  0  0  0  0  0  0  0  0  0
   11.7546   -2.0886    1.1274 C   0  0  0  0  0  0  0  0  0  0  0  0
   11.5827   -2.2594    2.1940 H   0  0  0  0  0  0  0  0  0  0  0  0
   10.8988   -2.5108    0.5810 H   0  0  0  0  0  0  0  0  0  0  0  0
   13.0128   -2.7234    0.7033 N   0  0  0  0  0  0  0  0  0  0  0  0
   13.3054   -3.0556   -0.6058 C   0  0  0  0  0  0  0  0  0  0  0  0
   12.4478   -3.0864   -1.4887 O   0  0  0  0  0  0  0  0  0  0  0  0
   14.8236   -3.2528   -0.7755 C   0  0  1  0  0  0  0  0  0  0  0  0
   15.1852   -4.7103   -1.0733 C   0  0  0  0  0  0  0  0  0  0  0  0
   16.4009   -5.2332   -0.6057 C   0  0  0  0  0  0  0  0  0  0  0  0
   17.0800   -4.5834   -0.0619 H   0  0  0  0  0  0  0  0  0  0  0  0
   16.7383   -6.5767   -0.8011 C   0  0  0  0  0  0  0  0  0  0  0  0
   17.6778   -6.9602   -0.4137 H   0  0  0  0  0  0  0  0  0  0  0  0
   15.8592   -7.4254   -1.4794 C   0  0  0  0  0  0  0  0  0  0  0  0
   16.1103   -8.4736   -1.6153 H   0  0  0  0  0  0  0  0  0  0  0  0
   14.6476   -6.9248   -1.9669 C   0  0  0  0  0  0  0  0  0  0  0  0
   13.9629   -7.5890   -2.4882 H   0  0  0  0  0  0  0  0  0  0  0  0
   14.3129   -5.5752   -1.7678 C   0  0  0  0  0  0  0  0  0  0  0  0
   13.3611   -5.2050   -2.1369 H   0  0  0  0  0  0  0  0  0  0  0  0
   15.3845   -2.2369   -1.7752 C   0  0  0  0  0  0  0  0  0  0  0  0
   15.9429   -2.6371   -3.0004 C   0  0  0  0  0  0  0  0  0  0  0  0
   16.0042   -3.6947   -3.2423 H   0  0  0  0  0  0  0  0  0  0  0  0
   16.4209   -1.6851   -3.9097 C   0  0  0  0  0  0  0  0  0  0  0  0
   16.8664   -2.0026   -4.8471 H   0  0  0  0  0  0  0  0  0  0  0  0
   16.3328   -0.3194   -3.6127 C   0  0  0  0  0  0  0  0  0  0  0  0
   16.7165    0.4170   -4.3111 H   0  0  0  0  0  0  0  0  0  0  0  0
   15.7755    0.1205   -2.4046 C   0  0  0  0  0  0  0  0  0  0  0  0
   15.6924    1.5684   -2.0961 C   0  0  0  0  0  0  0  0  0  0  0  0
   15.8761    2.5439   -3.0922 C   0  0  0  0  0  0  0  0  0  0  0  0
   16.0638    2.2132   -4.1083 H   0  0  0  0  0  0  0  0  0  0  0  0
   15.8254    3.8701   -2.8568 N   0  0  0  0  0  0  0  0  0  0  0  0
   15.5875    4.2855   -1.6035 C   0  0  0  0  0  0  0  0  0  0  0  0
   15.5553    5.3517   -1.3960 H   0  0  0  0  0  0  0  0  0  0  0  0
   15.3792    3.3885   -0.5548 C   0  0  0  0  0  0  0  0  0  0  0  0
   15.1803    3.7724    0.4384 H   0  0  0  0  0  0  0  0  0  0  0  0
   15.4392    2.0149   -0.7978 C   0  0  0  0  0  0  0  0  0  0  0  0
   15.3247    1.2876   -0.0015 H   0  0  0  0  0  0  0  0  0  0  0  0
   15.3074   -0.8524   -1.5012 C   0  0  0  0  0  0  0  0  0  0  0  0
   14.8616   -0.5203   -0.5689 H   0  0  0  0  0  0  0  0  0  0  0  0
   15.2380   -2.9218    0.6071 N   0  0  0  0  0  4  0  0  0  0  0  0
   16.2117   -2.9346    0.9264 H   0  0  0  0  0  0  0  0  0  0  0  0
   14.2281   -2.6342    1.3619 C   0  0  0  0  0  0  0  0  0  0  0  0
   14.4077   -2.2707    2.6675 N   0  0  0  0  0  0  0  0  0  0  0  0
   15.3386   -2.3457    3.0754 H   0  0  0  0  0  0  0  0  0  0  0  0
   13.5950   -2.1433    3.2682 H   0  0  0  0  0  0  0  0  0  0  0  0
  1  2  1  0
  2  3  1  0
  3  4  1  0
  3  5  1  0
  3  6  1  0
  6  7  1  0
  6  8  1  0
  6  9  1  0
  9 10  1  0
 10 11  2  0
 10 12  1  0
 12 13  1  6
 13 14  2  0
 14 15  1  0
 14 16  1  0
 16 17  1  0
 16 18  2  0
 18 19  1  0
 18 20  1  0
 20 21  1  0
 20 22  2  0
 22 23  1  0
 12 24  1  0
 24 25  2  0
 25 26  1  0
 25 27  1  0
 27 28  1  0
 27 29  2  0
 29 30  1  0
 29 31  1  0
 31 32  1  0
 32 33  2  0
 33 34  1  0
 33 35  1  0
 35 36  2  0
 36 37  1  0
 36 38  1  0
 38 39  1  0
 38 40  2  0
 40 41  1  0
 31 42  2  0
 42 43  1  0
 12 44  1  0
 44 45  1  0
 44 46  2  0
 46 47  1  0
 47 48  1  0
 47 49  1  0
 46  9  1  0
 22 13  1  0
 42 24  1  0
 40 32  1  0
M  CHG  1  44   1
M  END
>  <score>  (265) 
5.549

$$$$

     RDKit          3D

 46 49  0  0  0  0  0  0  0  0999 V2000
   15.5296    5.3211   -1.4166 H   0  0  0  0  0  0  0  0  0  0  0  0
   15.5842    4.2560   -1.6153 C   0  0  0  0  0  0  0  0  0  0  0  0
   15.8410    3.8454   -2.8665 N   0  0  0  0  0  0  0  0  0  0  0  0
   15.8999    2.5219   -3.1003 C   0  0  0  0  0  0  0  0  0  0  0  0
   16.0996    2.1939   -4.1161 H   0  0  0  0  0  0  0  0  0  0  0  0
   15.7101    1.5542   -2.0973 C   0  0  0  0  0  0  0  0  0  0  0  0
   15.7765    0.1162   -2.3962 C   0  0  0  0  0  0  0  0  0  0  0  0
   16.3265   -0.3175   -3.6047 C   0  0  0  0  0  0  0  0  0  0  0  0
   16.7011    0.4173   -4.3123 H   0  0  0  0  0  0  0  0  0  0  0  0
   16.4061   -1.6821   -3.8948 C   0  0  0  0  0  0  0  0  0  0  0  0
   16.8523   -2.0019   -4.8305 H   0  0  0  0  0  0  0  0  0  0  0  0
   15.9294   -2.6220   -2.9720 C   0  0  0  0  0  0  0  0  0  0  0  0
   15.9941   -3.6780   -3.2092 H   0  0  0  0  0  0  0  0  0  0  0  0
   15.3811   -2.2222   -1.7436 C   0  0  0  0  0  0  0  0  0  0  0  0
   14.8229   -3.2375   -0.7522 C   0  0  2  0  0  0  0  0  0  0  0  0
   15.1973   -4.6826   -1.0490 C   0  0  0  0  0  0  0  0  0  0  0  0
   16.4166   -5.2080   -0.5949 C   0  0  0  0  0  0  0  0  0  0  0  0
   17.1005   -4.5651   -0.0490 H   0  0  0  0  0  0  0  0  0  0  0  0
   16.7416   -6.5530   -0.8010 C   0  0  0  0  0  0  0  0  0  0  0  0
   17.6785   -6.9425   -0.4134 H   0  0  0  0  0  0  0  0  0  0  0  0
   15.8529   -7.3897   -1.4835 C   0  0  0  0  0  0  0  0  0  0  0  0
   16.1011   -8.4378   -1.6317 H   0  0  0  0  0  0  0  0  0  0  0  0
   14.6457   -6.8755   -1.9678 C   0  0  0  0  0  0  0  0  0  0  0  0
   13.9537   -7.5289   -2.4912 H   0  0  0  0  0  0  0  0  0  0  0  0
   14.3194   -5.5296   -1.7514 C   0  0  0  0  0  0  0  0  0  0  0  0
   13.3658   -5.1535   -2.1102 H   0  0  0  0  0  0  0  0  0  0  0  0
   13.3022   -3.0625   -0.6176 C   0  0  0  0  0  0  0  0  0  0  0  0
   12.4702   -3.1552   -1.5168 O   0  0  0  0  0  0  0  0  0  0  0  0
   13.0059   -2.7507    0.6893 N   0  0  0  0  0  0  0  0  0  0  0  0
   11.4726   -2.3209    1.2233 S   0  0  0  0  0  0  0  0  0  0  0  0
   11.6297   -0.5316    0.8828 C   0  0  0  0  0  0  0  0  0  0  0  0
   12.3679   -0.1105    1.5640 H   0  0  0  0  0  0  0  0  0  0  0  0
   11.9558   -0.3586   -0.1501 H   0  0  0  0  0  0  0  0  0  0  0  0
   10.6735   -0.0311    1.0644 H   0  0  0  0  0  0  0  0  0  0  0  0
   14.1926   -2.6187    1.3770 C   0  0  0  0  0  0  0  0  0  0  0  0
   14.3930   -2.2285    2.6741 N   0  0  0  0  0  0  0  0  0  0  0  0
   15.3340   -2.3258    3.0590 H   0  0  0  0  0  0  0  0  0  0  0  0
   13.5915   -2.1449    3.2976 H   0  0  0  0  0  0  0  0  0  0  0  0
   15.2063   -2.9060    0.6370 N   0  0  0  0  0  4  0  0  0  0  0  0
   16.1668   -2.9510    0.9742 H   0  0  0  0  0  0  0  0  0  0  0  0
   15.3008   -0.8404   -1.4792 C   0  0  0  0  0  0  0  0  0  0  0  0
   14.8584   -0.4981   -0.5491 H   0  0  0  0  0  0  0  0  0  0  0  0
   15.4745    1.9925   -0.7961 C   0  0  0  0  0  0  0  0  0  0  0  0
   15.3686    1.2709    0.0084 H   0  0  0  0  0  0  0  0  0  0  0  0
   15.3989    3.3610   -0.5592 C   0  0  0  0  0  0  0  0  0  0  0  0
   15.2108    3.7380    0.4387 H   0  0  0  0  0  0  0  0  0  0  0  0
  1  2  1  0
  2  3  2  0
  3  4  1  0
  4  5  1  0
  4  6  2  0
  6  7  1  0
  7  8  2  0
  8  9  1  0
  8 10  1  0
 10 11  1  0
 10 12  2  0
 12 13  1  0
 12 14  1  0
 15 14  1  6
 15 16  1  0
 16 17  2  0
 17 18  1  0
 17 19  1  0
 19 20  1  0
 19 21  2  0
 21 22  1  0
 21 23  1  0
 23 24  1  0
 23 25  2  0
 25 26  1  0
 15 27  1  0
 27 28  2  0
 27 29  1  0
 29 30  1  0
 30 31  1  0
 31 32  1  0
 31 33  1  0
 31 34  1  0
 29 35  1  0
 35 36  1  0
 36 37  1  0
 36 38  1  0
 35 39  2  0
 39 40  1  0
 14 41  2  0
 41 42  1  0
  6 43  1  0
 43 44  1  0
 43 45  2  0
 45 46  1  0
 45  2  1  0
 41  7  1  0
 39 15  1  0
 25 16  1  0
M  CHG  1  39   1
M  END
>  <score>  (266) 
5.54824

$$$$

     RDKit          3D

 53 56  0  0  0  0  0  0  0  0999 V2000
   15.5511    5.3480   -1.3963 H   0  0  0  0  0  0  0  0  0  0  0  0
   15.5873    4.2821   -1.6061 C   0  0  0  0  0  0  0  0  0  0  0  0
   15.8237    3.8668   -2.8603 N   0  0  0  0  0  0  0  0  0  0  0  0
   15.8805    2.5408   -3.0946 C   0  0  0  0  0  0  0  0  0  0  0  0
   16.0739    2.2005   -4.1066 H   0  0  0  0  0  0  0  0  0  0  0  0
   15.6978    1.5677   -2.0977 C   0  0  0  0  0  0  0  0  0  0  0  0
   15.7740    0.1214   -2.4038 C   0  0  0  0  0  0  0  0  0  0  0  0
   16.3298   -0.3175   -3.6102 C   0  0  0  0  0  0  0  0  0  0  0  0
   16.7088    0.4290   -4.3004 H   0  0  0  0  0  0  0  0  0  0  0  0
   16.4188   -1.6843   -3.9033 C   0  0  0  0  0  0  0  0  0  0  0  0
   16.8636   -2.0027   -4.8398 H   0  0  0  0  0  0  0  0  0  0  0  0
   15.9371   -2.6342   -2.9933 C   0  0  0  0  0  0  0  0  0  0  0  0
   15.9987   -3.6923   -3.2296 H   0  0  0  0  0  0  0  0  0  0  0  0
   15.3713   -2.2309   -1.7724 C   0  0  0  0  0  0  0  0  0  0  0  0
   14.8103   -3.2448   -0.7703 C   0  0  2  0  0  0  0  0  0  0  0  0
   15.1832   -4.7011   -1.0686 C   0  0  0  0  0  0  0  0  0  0  0  0
   16.4008   -5.2229   -0.6030 C   0  0  0  0  0  0  0  0  0  0  0  0
   17.0773   -4.5722   -0.0560 H   0  0  0  0  0  0  0  0  0  0  0  0
   16.7379   -6.5675   -0.8020 C   0  0  0  0  0  0  0  0  0  0  0  0
   17.6737   -6.9574   -0.4129 H   0  0  0  0  0  0  0  0  0  0  0  0
   15.8589   -7.4156   -1.4813 C   0  0  0  0  0  0  0  0  0  0  0  0
   16.1049   -8.4650   -1.6157 H   0  0  0  0  0  0  0  0  0  0  0  0
   14.6476   -6.9145   -1.9667 C   0  0  0  0  0  0  0  0  0  0  0  0
   13.9621   -7.5780   -2.4872 H   0  0  0  0  0  0  0  0  0  0  0  0
   14.3126   -5.5658   -1.7638 C   0  0  0  0  0  0  0  0  0  0  0  0
   13.3603   -5.1912   -2.1258 H   0  0  0  0  0  0  0  0  0  0  0  0
   13.2887   -3.0661   -0.5878 C   0  0  0  0  0  0  0  0  0  0  0  0
   12.4200   -3.1677   -1.4557 O   0  0  0  0  0  0  0  0  0  0  0  0
   13.0143   -2.7022    0.7156 N   0  0  0  0  0  0  0  0  0  0  0  0
   11.6886   -2.5994    1.3215 C   0  0  0  0  0  0  0  0  0  0  0  0
   11.0408   -1.9825    0.6858 H   0  0  0  0  0  0  0  0  0  0  0  0
   11.7373   -2.1102    2.3041 H   0  0  0  0  0  0  0  0  0  0  0  0
   11.0790   -3.9962    1.4389 C   0  0  0  0  0  0  0  0  0  0  0  0
   10.0343   -3.9083    1.7549 H   0  0  0  0  0  0  0  0  0  0  0  0
   11.1035   -4.4743    0.4548 H   0  0  0  0  0  0  0  0  0  0  0  0
   11.8089   -4.8925    2.4340 C   0  0  0  0  0  0  0  0  0  0  0  0
   11.4498   -5.9198    2.3078 H   0  0  0  0  0  0  0  0  0  0  0  0
   12.8874   -4.8946    2.2350 H   0  0  0  0  0  0  0  0  0  0  0  0
   11.4950   -4.4460    3.7971 N   0  0  0  0  0  0  0  0  0  0  0  0
   11.9080   -3.5356    4.0093 H   0  0  0  0  0  0  0  0  0  0  0  0
   11.7792   -5.1308    4.4966 H   0  0  0  0  0  0  0  0  0  0  0  0
   14.2188   -2.6553    1.3777 C   0  0  0  0  0  0  0  0  0  0  0  0
   14.3948   -2.3832    2.7020 N   0  0  0  0  0  0  0  0  0  0  0  0
   15.3430   -2.3374    3.0693 H   0  0  0  0  0  0  0  0  0  0  0  0
   13.6079   -2.0461    3.2547 H   0  0  0  0  0  0  0  0  0  0  0  0
   15.2272   -2.9066    0.6116 N   0  0  0  0  0  4  0  0  0  0  0  0
   16.1944   -2.9454    0.9442 H   0  0  0  0  0  0  0  0  0  0  0  0
   15.3015   -0.8467   -1.4989 C   0  0  0  0  0  0  0  0  0  0  0  0
   14.8630   -0.5047   -0.5660 H   0  0  0  0  0  0  0  0  0  0  0  0
   15.4488    2.0097   -0.7997 C   0  0  0  0  0  0  0  0  0  0  0  0
   15.3399    1.2700   -0.0132 H   0  0  0  0  0  0  0  0  0  0  0  0
   15.3851    3.3837   -0.5568 C   0  0  0  0  0  0  0  0  0  0  0  0
   15.1836    3.7696    0.4346 H   0  0  0  0  0  0  0  0  0  0  0  0
  1  2  1  0
  2  3  2  0
  3  4  1  0
  4  5  1  0
  4  6  2  0
  6  7  1  0
  7  8  2  0
  8  9  1  0
  8 10  1  0
 10 11  1  0
 10 12  2  0
 12 13  1  0
 12 14  1  0
 15 14  1  6
 15 16  1  0
 16 17  2  0
 17 18  1  0
 17 19  1  0
 19 20  1  0
 19 21  2  0
 21 22  1  0
 21 23  1  0
 23 24  1  0
 23 25  2  0
 25 26  1  0
 15 27  1  0
 27 28  2  0
 27 29  1  0
 29 30  1  0
 30 31  1  0
 30 32  1  0
 30 33  1  0
 33 34  1  0
 33 35  1  0
 33 36  1  0
 36 37  1  0
 36 38  1  0
 36 39  1  0
 39 40  1  0
 39 41  1  0
 29 42  1  0
 42 43  1  0
 43 44  1  0
 43 45  1  0
 42 46  2  0
 46 47  1  0
 14 48  2  0
 48 49  1  0
  6 50  1  0
 50 51  1  0
 50 52  2  0
 52 53  1  0
 52  2  1  0
 48  7  1  0
 46 15  1  0
 25 16  1  0
M  CHG  1  46   1
M  END
>  <score>  (267) 
5.54566

$$$$

     RDKit          3D

 49 52  0  0  0  0  0  0  0  0999 V2000
   10.9372   -2.3774   -0.4492 H   0  0  0  0  0  0  0  0  0  0  0  0
   10.7728   -2.7013    0.4512 O   0  0  0  0  0  0  0  0  0  0  0  0
   11.7772   -2.1441    1.2643 C   0  0  1  0  0  0  0  0  0  0  0  0
   11.6207   -2.3694    2.3330 H   0  0  0  0  0  0  0  0  0  0  0  0
   13.0107   -2.6844    0.7705 N   0  0  0  0  0  0  0  0  0  0  0  0
   13.2538   -3.0100   -0.5454 C   0  0  0  0  0  0  0  0  0  0  0  0
   12.3667   -3.0179   -1.3950 O   0  0  0  0  0  0  0  0  0  0  0  0
   14.7711   -3.2238   -0.7484 C   0  0  1  0  0  0  0  0  0  0  0  0
   15.1604   -4.6688   -1.0434 C   0  0  0  0  0  0  0  0  0  0  0  0
   16.3895   -5.1866   -0.5933 C   0  0  0  0  0  0  0  0  0  0  0  0
   17.0751   -4.5426   -0.0480 H   0  0  0  0  0  0  0  0  0  0  0  0
   16.7273   -6.5285   -0.8044 C   0  0  0  0  0  0  0  0  0  0  0  0
   17.6654   -6.9166   -0.4184 H   0  0  0  0  0  0  0  0  0  0  0  0
   15.8441   -7.3704   -1.4855 C   0  0  0  0  0  0  0  0  0  0  0  0
   16.0991   -8.4157   -1.6379 H   0  0  0  0  0  0  0  0  0  0  0  0
   14.6327   -6.8625   -1.9660 C   0  0  0  0  0  0  0  0  0  0  0  0
   13.9499   -7.5159   -2.4995 H   0  0  0  0  0  0  0  0  0  0  0  0
   14.2929   -5.5200   -1.7478 C   0  0  0  0  0  0  0  0  0  0  0  0
   13.3390   -5.1431   -2.1039 H   0  0  0  0  0  0  0  0  0  0  0  0
   15.3366   -2.2168   -1.7470 C   0  0  0  0  0  0  0  0  0  0  0  0
   15.9090   -2.6232   -2.9620 C   0  0  0  0  0  0  0  0  0  0  0  0
   15.9730   -3.6799   -3.1926 H   0  0  0  0  0  0  0  0  0  0  0  0
   16.4012   -1.6872   -3.8788 C   0  0  0  0  0  0  0  0  0  0  0  0
   16.8461   -2.0067   -4.8134 H   0  0  0  0  0  0  0  0  0  0  0  0
   16.3188   -0.3241   -3.5990 C   0  0  0  0  0  0  0  0  0  0  0  0
   16.6967    0.4138   -4.3014 H   0  0  0  0  0  0  0  0  0  0  0  0
   15.7685    0.1126   -2.3928 C   0  0  0  0  0  0  0  0  0  0  0  0
   15.7181    1.5474   -2.0967 C   0  0  0  0  0  0  0  0  0  0  0  0
   15.9102    2.5125   -3.1004 C   0  0  0  0  0  0  0  0  0  0  0  0
   16.1121    2.1815   -4.1150 H   0  0  0  0  0  0  0  0  0  0  0  0
   15.8416    3.8363   -2.8698 N   0  0  0  0  0  0  0  0  0  0  0  0
   15.5842    4.2487   -1.6187 C   0  0  0  0  0  0  0  0  0  0  0  0
   15.5218    5.3147   -1.4213 H   0  0  0  0  0  0  0  0  0  0  0  0
   15.4101    3.3542   -0.5596 C   0  0  0  0  0  0  0  0  0  0  0  0
   15.2180    3.7300    0.4374 H   0  0  0  0  0  0  0  0  0  0  0  0
   15.4877    1.9852   -0.7953 C   0  0  0  0  0  0  0  0  0  0  0  0
   15.3860    1.2598    0.0072 H   0  0  0  0  0  0  0  0  0  0  0  0
   15.2789   -0.8363   -1.4769 C   0  0  0  0  0  0  0  0  0  0  0  0
   14.8449   -0.4875   -0.5432 H   0  0  0  0  0  0  0  0  0  0  0  0
   15.2005   -2.8984    0.6233 N   0  0  0  0  0  4  0  0  0  0  0  0
   16.1637   -2.9860    0.9423 H   0  0  0  0  0  0  0  0  0  0  0  0
   14.2203   -2.5562    1.3843 C   0  0  0  0  0  0  0  0  0  0  0  0
   14.4109   -2.1384    2.6633 N   0  0  0  0  0  0  0  0  0  0  0  0
   13.5918   -2.1453    3.2667 H   0  0  0  0  0  0  0  0  0  0  0  0
   15.3275   -2.3273    3.0672 H   0  0  0  0  0  0  0  0  0  0  0  0
   11.7271   -0.6640    0.9662 C   0  0  0  0  0  0  0  0  0  0  0  0
   12.3257   -0.1077    1.6860 H   0  0  0  0  0  0  0  0  0  0  0  0
   10.6953   -0.3188    1.0530 H   0  0  0  0  0  0  0  0  0  0  0  0
   12.0913   -0.4802   -0.0560 H   0  0  0  0  0  0  0  0  0  0  0  0
  1  2  1  0
  2  3  1  0
  3  4  1  1
  3  5  1  0
  5  6  1  0
  6  7  2  0
  6  8  1  0
  8  9  1  6
  9 10  2  0
 10 11  1  0
 10 12  1  0
 12 13  1  0
 12 14  2  0
 14 15  1  0
 14 16  1  0
 16 17  1  0
 16 18  2  0
 18 19  1  0
  8 20  1  0
 20 21  2  0
 21 22  1  0
 21 23  1  0
 23 24  1  0
 23 25  2  0
 25 26  1  0
 25 27  1  0
 27 28  1  0
 28 29  2  0
 29 30  1  0
 29 31  1  0
 31 32  2  0
 32 33  1  0
 32 34  1  0
 34 35  1  0
 34 36  2  0
 36 37  1  0
 27 38  2  0
 38 39  1  0
  8 40  1  0
 40 41  1  0
 40 42  2  0
 42 43  1  0
 43 44  1  0
 43 45  1  0
  3 46  1  0
 46 47  1  0
 46 48  1  0
 46 49  1  0
 42  5  1  0
 18  9  1  0
 38 20  1  0
 36 28  1  0
M  CHG  1  40   1
M  END
>  <score>  (268) 
5.54509

$$$$

     RDKit          3D

 56 60  0  0  0  0  0  0  0  0999 V2000
   15.5425    5.3365   -1.4054 H   0  0  0  0  0  0  0  0  0  0  0  0
   15.5849    4.2709   -1.6100 C   0  0  0  0  0  0  0  0  0  0  0  0
   15.8339    3.8583   -2.8624 N   0  0  0  0  0  0  0  0  0  0  0  0
   15.8889    2.5333   -3.0968 C   0  0  0  0  0  0  0  0  0  0  0  0
   16.0836    2.1991   -4.1116 H   0  0  0  0  0  0  0  0  0  0  0  0
   15.7035    1.5636   -2.0960 C   0  0  0  0  0  0  0  0  0  0  0  0
   15.7719    0.1220   -2.3953 C   0  0  0  0  0  0  0  0  0  0  0  0
   16.3278   -0.3177   -3.6012 C   0  0  0  0  0  0  0  0  0  0  0  0
   16.7076    0.4167   -4.3053 H   0  0  0  0  0  0  0  0  0  0  0  0
   16.4043   -1.6836   -3.8929 C   0  0  0  0  0  0  0  0  0  0  0  0
   16.8585   -2.0096   -4.8254 H   0  0  0  0  0  0  0  0  0  0  0  0
   15.9159   -2.6261   -2.9753 C   0  0  0  0  0  0  0  0  0  0  0  0
   15.9835   -3.6837   -3.2129 H   0  0  0  0  0  0  0  0  0  0  0  0
   15.3550   -2.2226   -1.7496 C   0  0  0  0  0  0  0  0  0  0  0  0
   14.7832   -3.2330   -0.7492 C   0  0  2  0  0  0  0  0  0  0  0  0
   15.1654   -4.6849   -1.0537 C   0  0  0  0  0  0  0  0  0  0  0  0
   16.3890   -5.2060   -0.5978 C   0  0  0  0  0  0  0  0  0  0  0  0
   17.0683   -4.5577   -0.0526 H   0  0  0  0  0  0  0  0  0  0  0  0
   16.7279   -6.5498   -0.7981 C   0  0  0  0  0  0  0  0  0  0  0  0
   17.6703   -6.9333   -0.4157 H   0  0  0  0  0  0  0  0  0  0  0  0
   15.8481   -7.3954   -1.4794 C   0  0  0  0  0  0  0  0  0  0  0  0
   16.1052   -8.4418   -1.6219 H   0  0  0  0  0  0  0  0  0  0  0  0
   14.6377   -6.8916   -1.9662 C   0  0  0  0  0  0  0  0  0  0  0  0
   13.9581   -7.5570   -2.4919 H   0  0  0  0  0  0  0  0  0  0  0  0
   14.2979   -5.5455   -1.7548 C   0  0  0  0  0  0  0  0  0  0  0  0
   13.3443   -5.1776   -2.1210 H   0  0  0  0  0  0  0  0  0  0  0  0
   13.2567   -3.0404   -0.5634 C   0  0  0  0  0  0  0  0  0  0  0  0
   12.3447   -3.1246   -1.3839 O   0  0  0  0  0  0  0  0  0  0  0  0
   13.0145   -2.7848    0.7546 N   0  0  0  0  0  0  0  0  0  0  0  0
   11.7677   -2.5652    1.2458 C   0  0  0  0  0  0  0  0  0  0  0  0
   10.9224   -2.0618    0.5294 O   0  0  0  0  0  0  0  0  0  0  0  0
   11.4765   -3.0717    2.4838 N   0  0  0  0  0  0  0  0  0  0  0  0
   12.1880   -3.6827    2.8619 H   0  0  0  0  0  0  0  0  0  0  0  0
   10.1786   -3.0152    3.1493 C   0  0  0  0  0  0  0  0  0  0  0  0
   10.2869   -3.3599    4.1832 H   0  0  0  0  0  0  0  0  0  0  0  0
    9.8499   -1.9760    3.1930 H   0  0  0  0  0  0  0  0  0  0  0  0
    9.1069   -3.8463    2.4391 C   0  0  0  0  0  0  0  0  0  0  0  0
    8.9242   -3.5307    1.4113 H   0  0  0  0  0  0  0  0  0  0  0  0
    7.8900   -4.3312    3.2300 C   0  0  0  0  0  0  0  0  0  0  0  0
    6.9106   -4.3616    2.7406 H   0  0  0  0  0  0  0  0  0  0  0  0
    7.8466   -4.1063    4.2994 H   0  0  0  0  0  0  0  0  0  0  0  0
    8.9432   -5.3295    2.7498 C   0  0  0  0  0  0  0  0  0  0  0  0
    9.6150   -5.7658    3.4923 H   0  0  0  0  0  0  0  0  0  0  0  0
    8.6635   -6.0032    1.9343 H   0  0  0  0  0  0  0  0  0  0  0  0
   14.1911   -2.7328    1.4306 C   0  0  0  0  0  0  0  0  0  0  0  0
   14.3384   -2.4652    2.7602 N   0  0  0  0  0  0  0  0  0  0  0  0
   13.5647   -2.0103    3.2386 H   0  0  0  0  0  0  0  0  0  0  0  0
   15.2839   -2.2834    3.0883 H   0  0  0  0  0  0  0  0  0  0  0  0
   15.1943   -2.9225    0.6432 N   0  0  0  0  0  4  0  0  0  0  0  0
   16.1656   -2.9531    0.9618 H   0  0  0  0  0  0  0  0  0  0  0  0
   15.2898   -0.8386   -1.4862 C   0  0  0  0  0  0  0  0  0  0  0  0
   14.8531   -0.4899   -0.5570 H   0  0  0  0  0  0  0  0  0  0  0  0
   15.4605    2.0042   -0.7970 C   0  0  0  0  0  0  0  0  0  0  0  0
   15.3476    1.2747   -0.0018 H   0  0  0  0  0  0  0  0  0  0  0  0
   15.3887    3.3748   -0.5579 C   0  0  0  0  0  0  0  0  0  0  0  0
   15.1941    3.7567    0.4365 H   0  0  0  0  0  0  0  0  0  0  0  0
  1  2  1  0
  2  3  2  0
  3  4  1  0
  4  5  1  0
  4  6  2  0
  6  7  1  0
  7  8  2  0
  8  9  1  0
  8 10  1  0
 10 11  1  0
 10 12  2  0
 12 13  1  0
 12 14  1  0
 15 14  1  6
 15 16  1  0
 16 17  2  0
 17 18  1  0
 17 19  1  0
 19 20  1  0
 19 21  2  0
 21 22  1  0
 21 23  1  0
 23 24  1  0
 23 25  2  0
 25 26  1  0
 15 27  1  0
 27 28  2  0
 27 29  1  0
 29 30  1  0
 30 31  2  0
 30 32  1  0
 32 33  1  0
 32 34  1  0
 34 35  1  0
 34 36  1  0
 34 37  1  0
 37 38  1  0
 37 39  1  0
 39 40  1  0
 39 41  1  0
 39 42  1  0
 42 43  1  0
 42 44  1  0
 29 45  1  0
 45 46  1  0
 46 47  1  0
 46 48  1  0
 45 49  2  0
 49 50  1  0
 14 51  2  0
 51 52  1  0
  6 53  1  0
 53 54  1  0
 53 55  2  0
 55 56  1  0
 55  2  1  0
 51  7  1  0
 49 15  1  0
 25 16  1  0
 42 37  1  0
M  CHG  1  49   1
M  END
>  <score>  (269) 
5.54492

$$$$

     RDKit          3D

 55 59  0  0  0  0  0  0  0  0999 V2000
   15.5695    5.3723   -1.3875 H   0  0  0  0  0  0  0  0  0  0  0  0
   15.5829    4.3033   -1.5953 C   0  0  0  0  0  0  0  0  0  0  0  0
   15.8191    3.8808   -2.8472 N   0  0  0  0  0  0  0  0  0  0  0  0
   15.8637    2.5528   -3.0883 C   0  0  0  0  0  0  0  0  0  0  0  0
   16.0475    2.2227   -4.1056 H   0  0  0  0  0  0  0  0  0  0  0  0
   15.6865    1.5710   -2.0961 C   0  0  0  0  0  0  0  0  0  0  0  0
   15.7700    0.1178   -2.4107 C   0  0  0  0  0  0  0  0  0  0  0  0
   16.3489   -0.3220   -3.6101 C   0  0  0  0  0  0  0  0  0  0  0  0
   16.7234    0.4100   -4.3198 H   0  0  0  0  0  0  0  0  0  0  0  0
   16.4317   -1.6907   -3.9069 C   0  0  0  0  0  0  0  0  0  0  0  0
   16.8650   -2.0063   -4.8521 H   0  0  0  0  0  0  0  0  0  0  0  0
   15.9421   -2.6456   -3.0021 C   0  0  0  0  0  0  0  0  0  0  0  0
   16.0028   -3.7014   -3.2546 H   0  0  0  0  0  0  0  0  0  0  0  0
   15.3724   -2.2442   -1.7793 C   0  0  0  0  0  0  0  0  0  0  0  0
   14.7962   -3.2462   -0.7766 C   0  0  2  0  0  0  0  0  0  0  0  0
   15.1651   -4.7111   -1.0681 C   0  0  0  0  0  0  0  0  0  0  0  0
   16.3889   -5.2338   -0.6109 C   0  0  0  0  0  0  0  0  0  0  0  0
   17.0649   -4.5848   -0.0624 H   0  0  0  0  0  0  0  0  0  0  0  0
   16.7284   -6.5796   -0.8037 C   0  0  0  0  0  0  0  0  0  0  0  0
   17.6711   -6.9554   -0.4168 H   0  0  0  0  0  0  0  0  0  0  0  0
   15.8534   -7.4389   -1.4731 C   0  0  0  0  0  0  0  0  0  0  0  0
   16.1204   -8.4851   -1.6113 H   0  0  0  0  0  0  0  0  0  0  0  0
   14.6431   -6.9363   -1.9621 C   0  0  0  0  0  0  0  0  0  0  0  0
   13.9727   -7.6106   -2.4876 H   0  0  0  0  0  0  0  0  0  0  0  0
   14.3018   -5.5852   -1.7654 C   0  0  0  0  0  0  0  0  0  0  0  0
   13.3520   -5.2302   -2.1541 H   0  0  0  0  0  0  0  0  0  0  0  0
   13.2830   -3.0030   -0.5974 C   0  0  0  0  0  0  0  0  0  0  0  0
   12.4315   -3.0892   -1.4799 O   0  0  0  0  0  0  0  0  0  0  0  0
   12.9965   -2.6733    0.7116 N   0  0  0  0  0  0  0  0  0  0  0  0
   11.7227   -2.4713    1.2583 C   0  0  0  0  0  0  0  0  0  0  0  0
   11.3195   -3.1860    2.3874 C   0  0  0  0  0  0  0  0  0  0  0  0
   12.0015   -3.8998    2.8368 H   0  0  0  0  0  0  0  0  0  0  0  0
   10.0441   -3.0001    2.9313 C   0  0  0  0  0  0  0  0  0  0  0  0
    9.7329   -3.5655    3.8026 H   0  0  0  0  0  0  0  0  0  0  0  0
    9.1663   -2.0789    2.3546 C   0  0  0  0  0  0  0  0  0  0  0  0
    8.1817   -1.9240    2.7810 H   0  0  0  0  0  0  0  0  0  0  0  0
    9.5615   -1.3432    1.2317 C   0  0  0  0  0  0  0  0  0  0  0  0
    8.6310   -0.3267    0.6277 C   0  0  0  0  0  0  0  0  0  0  0  0
    7.5880   -0.6123    0.7762 H   0  0  0  0  0  0  0  0  0  0  0  0
    8.7844    0.6506    1.0886 H   0  0  0  0  0  0  0  0  0  0  0  0
    8.8075   -0.2308   -0.4460 H   0  0  0  0  0  0  0  0  0  0  0  0
   10.8375   -1.5503    0.6869 C   0  0  0  0  0  0  0  0  0  0  0  0
   11.1616   -0.9701   -0.1686 H   0  0  0  0  0  0  0  0  0  0  0  0
   14.1985   -2.6538    1.3809 C   0  0  0  0  0  0  0  0  0  0  0  0
   14.3937   -2.3518    2.6980 N   0  0  0  0  0  0  0  0  0  0  0  0
   15.3351   -2.3799    3.0938 H   0  0  0  0  0  0  0  0  0  0  0  0
   13.6007   -2.0381    3.2543 H   0  0  0  0  0  0  0  0  0  0  0  0
   15.1983   -2.9117    0.6043 N   0  0  0  0  0  4  0  0  0  0  0  0
   16.1699   -2.9141    0.9097 H   0  0  0  0  0  0  0  0  0  0  0  0
   15.2930   -0.8590   -1.5152 C   0  0  0  0  0  0  0  0  0  0  0  0
   14.8695   -0.5268   -0.5750 H   0  0  0  0  0  0  0  0  0  0  0  0
   15.4376    2.0248   -0.7970 C   0  0  0  0  0  0  0  0  0  0  0  0
   15.2992    1.3051    0.0008 H   0  0  0  0  0  0  0  0  0  0  0  0
   15.3725    3.4013   -0.5514 C   0  0  0  0  0  0  0  0  0  0  0  0
   15.1681    3.7874    0.4401 H   0  0  0  0  0  0  0  0  0  0  0  0
  1  2  1  0
  2  3  2  0
  3  4  1  0
  4  5  1  0
  4  6  2  0
  6  7  1  0
  7  8  2  0
  8  9  1  0
  8 10  1  0
 10 11  1  0
 10 12  2  0
 12 13  1  0
 12 14  1  0
 15 14  1  6
 15 16  1  0
 16 17  2  0
 17 18  1  0
 17 19  1  0
 19 20  1  0
 19 21  2  0
 21 22  1  0
 21 23  1  0
 23 24  1  0
 23 25  2  0
 25 26  1  0
 15 27  1  0
 27 28  2  0
 27 29  1  0
 29 30  1  0
 30 31  2  0
 31 32  1  0
 31 33  1  0
 33 34  1  0
 33 35  2  0
 35 36  1  0
 35 37  1  0
 37 38  1  0
 38 39  1  0
 38 40  1  0
 38 41  1  0
 37 42  2  0
 42 43  1  0
 29 44  1  0
 44 45  1  0
 45 46  1  0
 45 47  1  0
 44 48  2  0
 48 49  1  0
 14 50  2  0
 50 51  1  0
  6 52  1  0
 52 53  1  0
 52 54  2  0
 54 55  1  0
 54  2  1  0
 50  7  1  0
 48 15  1  0
 25 16  1  0
 42 30  1  0
M  CHG  1  48   1
M  END
>  <score>  (270) 
5.5439

$$$$

     RDKit          3D

 62 66  0  0  0  0  0  0  0  0999 V2000
   15.5397    5.3362   -1.4190 H   0  0  0  0  0  0  0  0  0  0  0  0
   15.6135    4.2685   -1.6074 C   0  0  0  0  0  0  0  0  0  0  0  0
   15.8585    3.8413   -2.8559 N   0  0  0  0  0  0  0  0  0  0  0  0
   15.9376    2.5145   -3.0750 C   0  0  0  0  0  0  0  0  0  0  0  0
   16.1254    2.1769   -4.0894 H   0  0  0  0  0  0  0  0  0  0  0  0
   15.7698    1.5521   -2.0651 C   0  0  0  0  0  0  0  0  0  0  0  0
   15.8233    0.1059   -2.3603 C   0  0  0  0  0  0  0  0  0  0  0  0
   16.3359   -0.3719   -3.5765 C   0  0  0  0  0  0  0  0  0  0  0  0
   16.7065    0.3294   -4.3176 H   0  0  0  0  0  0  0  0  0  0  0  0
   16.3782   -1.7461   -3.8387 C   0  0  0  0  0  0  0  0  0  0  0  0
   16.7712   -2.1047   -4.7853 H   0  0  0  0  0  0  0  0  0  0  0  0
   15.9044   -2.6568   -2.8875 C   0  0  0  0  0  0  0  0  0  0  0  0
   15.9350   -3.7204   -3.1078 H   0  0  0  0  0  0  0  0  0  0  0  0
   15.3797   -2.2096   -1.6604 C   0  0  0  0  0  0  0  0  0  0  0  0
   14.8004   -3.1772   -0.6295 C   0  0  2  0  0  0  0  0  0  0  0  0
   15.1685   -4.6211   -0.9483 C   0  0  0  0  0  0  0  0  0  0  0  0
   16.4023   -5.1496   -0.5348 C   0  0  0  0  0  0  0  0  0  0  0  0
   17.0983   -4.5192    0.0123 H   0  0  0  0  0  0  0  0  0  0  0  0
   16.7393   -6.4800   -0.8057 C   0  0  0  0  0  0  0  0  0  0  0  0
   17.6917   -6.8757   -0.4645 H   0  0  0  0  0  0  0  0  0  0  0  0
   15.8469   -7.2973   -1.5071 C   0  0  0  0  0  0  0  0  0  0  0  0
   16.0988   -8.3343   -1.7065 H   0  0  0  0  0  0  0  0  0  0  0  0
   14.6313   -6.7729   -1.9594 C   0  0  0  0  0  0  0  0  0  0  0  0
   13.9442   -7.3980   -2.5217 H   0  0  0  0  0  0  0  0  0  0  0  0
   14.2975   -5.4408   -1.6864 C   0  0  0  0  0  0  0  0  0  0  0  0
   13.3551   -5.0388   -2.0464 H   0  0  0  0  0  0  0  0  0  0  0  0
   13.2812   -2.9687   -0.4689 C   0  0  0  0  0  0  0  0  0  0  0  0
   12.4382   -3.1186   -1.3519 O   0  0  0  0  0  0  0  0  0  0  0  0
   12.9781   -2.6587    0.8442 N   0  0  0  0  0  0  0  0  0  0  0  0
   11.6701   -2.5287    1.3409 C   0  0  0  0  0  0  0  0  0  0  0  0
   11.2398   -3.2524    2.4597 C   0  0  0  0  0  0  0  0  0  0  0  0
   11.9389   -3.8971    2.9846 H   0  0  0  0  0  0  0  0  0  0  0  0
    9.8968   -3.1920    2.8639 C   0  0  0  0  0  0  0  0  0  0  0  0
    9.5431   -3.7818    3.7015 H   0  0  0  0  0  0  0  0  0  0  0  0
    8.9726   -2.3942    2.1750 C   0  0  0  0  0  0  0  0  0  0  0  0
    7.6451   -2.3260    2.5160 O   0  0  0  0  0  0  0  0  0  0  0  0
    7.1616   -3.3452    3.4000 C   0  0  0  0  0  0  0  0  0  0  0  0
    7.7880   -3.3813    4.2961 H   0  0  0  0  0  0  0  0  0  0  0  0
    5.7400   -2.9797    3.8270 C   0  0  0  0  0  0  0  0  0  0  0  0
    5.0346   -3.2498    3.0435 H   0  0  0  0  0  0  0  0  0  0  0  0
    5.6407   -1.9072    4.0230 H   0  0  0  0  0  0  0  0  0  0  0  0
    5.4749   -3.5115    4.7424 H   0  0  0  0  0  0  0  0  0  0  0  0
    7.2130   -4.6994    2.6818 C   0  0  0  0  0  0  0  0  0  0  0  0
    6.8424   -5.5090    3.3167 H   0  0  0  0  0  0  0  0  0  0  0  0
    6.6013   -4.6649    1.7740 H   0  0  0  0  0  0  0  0  0  0  0  0
    8.2466   -4.9268    2.3974 H   0  0  0  0  0  0  0  0  0  0  0  0
    9.4098   -1.6589    1.0722 C   0  0  0  0  0  0  0  0  0  0  0  0
    8.6981   -1.0499    0.5264 H   0  0  0  0  0  0  0  0  0  0  0  0
   10.7453   -1.7338    0.6502 C   0  0  0  0  0  0  0  0  0  0  0  0
   11.0828   -1.1820   -0.2235 H   0  0  0  0  0  0  0  0  0  0  0  0
   14.1789   -2.6512    1.5325 C   0  0  0  0  0  0  0  0  0  0  0  0
   14.3928   -2.4518    2.8688 N   0  0  0  0  0  0  0  0  0  0  0  0
   15.3521   -2.2607    3.1604 H   0  0  0  0  0  0  0  0  0  0  0  0
   13.6240   -2.0673    3.4164 H   0  0  0  0  0  0  0  0  0  0  0  0
   15.1973   -2.8591    0.7584 N   0  0  0  0  0  4  0  0  0  0  0  0
   16.1498   -2.9807    1.1085 H   0  0  0  0  0  0  0  0  0  0  0  0
   15.3445   -0.8258   -1.4238 C   0  0  0  0  0  0  0  0  0  0  0  0
   14.9281   -0.4614   -0.4907 H   0  0  0  0  0  0  0  0  0  0  0  0
   15.5383    2.0098   -0.7644 C   0  0  0  0  0  0  0  0  0  0  0  0
   15.4359    1.3032    0.0541 H   0  0  0  0  0  0  0  0  0  0  0  0
   15.4531    3.3832   -0.5406 C   0  0  0  0  0  0  0  0  0  0  0  0
   15.2643    3.7736    0.4522 H   0  0  0  0  0  0  0  0  0  0  0  0
  1  2  1  0
  2  3  2  0
  3  4  1  0
  4  5  1  0
  4  6  2  0
  6  7  1  0
  7  8  2  0
  8  9  1  0
  8 10  1  0
 10 11  1  0
 10 12  2  0
 12 13  1  0
 12 14  1  0
 15 14  1  6
 15 16  1  0
 16 17  2  0
 17 18  1  0
 17 19  1  0
 19 20  1  0
 19 21  2  0
 21 22  1  0
 21 23  1  0
 23 24  1  0
 23 25  2  0
 25 26  1  0
 15 27  1  0
 27 28  2  0
 27 29  1  0
 29 30  1  0
 30 31  2  0
 31 32  1  0
 31 33  1  0
 33 34  1  0
 33 35  2  0
 35 36  1  0
 36 37  1  0
 37 38  1  0
 37 39  1  0
 39 40  1  0
 39 41  1  0
 39 42  1  0
 37 43  1  0
 43 44  1  0
 43 45  1  0
 43 46  1  0
 35 47  1  0
 47 48  1  0
 47 49  2  0
 49 50  1  0
 29 51  1  0
 51 52  1  0
 52 53  1  0
 52 54  1  0
 51 55  2  0
 55 56  1  0
 14 57  2  0
 57 58  1  0
  6 59  1  0
 59 60  1  0
 59 61  2  0
 61 62  1  0
 61  2  1  0
 57  7  1  0
 55 15  1  0
 25 16  1  0
 49 30  1  0
M  CHG  1  55   1
M  END
>  <score>  (271) 
5.54345

$$$$

     RDKit          3D

 48 51  0  0  0  0  0  0  0  0999 V2000
   15.5489    5.3454   -1.3978 H   0  0  0  0  0  0  0  0  0  0  0  0
   15.5865    4.2795   -1.6076 C   0  0  0  0  0  0  0  0  0  0  0  0
   15.8263    3.8648   -2.8617 N   0  0  0  0  0  0  0  0  0  0  0  0
   15.8833    2.5385   -3.0954 C   0  0  0  0  0  0  0  0  0  0  0  0
   16.0767    2.1979   -4.1077 H   0  0  0  0  0  0  0  0  0  0  0  0
   15.7011    1.5670   -2.0971 C   0  0  0  0  0  0  0  0  0  0  0  0
   15.7724    0.1227   -2.3985 C   0  0  0  0  0  0  0  0  0  0  0  0
   16.3289   -0.3184   -3.6019 C   0  0  0  0  0  0  0  0  0  0  0  0
   16.7073    0.4215   -4.2981 H   0  0  0  0  0  0  0  0  0  0  0  0
   16.4119   -1.6847   -3.8933 C   0  0  0  0  0  0  0  0  0  0  0  0
   16.8609   -2.0093   -4.8266 H   0  0  0  0  0  0  0  0  0  0  0  0
   15.9221   -2.6312   -2.9822 C   0  0  0  0  0  0  0  0  0  0  0  0
   15.9864   -3.6910   -3.2164 H   0  0  0  0  0  0  0  0  0  0  0  0
   15.3531   -2.2242   -1.7620 C   0  0  0  0  0  0  0  0  0  0  0  0
   14.7772   -3.2334   -0.7625 C   0  0  2  0  0  0  0  0  0  0  0  0
   15.1571   -4.6913   -1.0593 C   0  0  0  0  0  0  0  0  0  0  0  0
   16.3812   -5.2096   -0.5971 C   0  0  0  0  0  0  0  0  0  0  0  0
   17.0617   -4.5594   -0.0541 H   0  0  0  0  0  0  0  0  0  0  0  0
   16.7260   -6.5521   -0.7999 C   0  0  0  0  0  0  0  0  0  0  0  0
   17.6658   -6.9386   -0.4169 H   0  0  0  0  0  0  0  0  0  0  0  0
   15.8527   -7.4024   -1.4807 C   0  0  0  0  0  0  0  0  0  0  0  0
   16.1052   -8.4501   -1.6160 H   0  0  0  0  0  0  0  0  0  0  0  0
   14.6405   -6.9038   -1.9649 C   0  0  0  0  0  0  0  0  0  0  0  0
   13.9635   -7.5702   -2.4900 H   0  0  0  0  0  0  0  0  0  0  0  0
   14.2936   -5.5588   -1.7566 C   0  0  0  0  0  0  0  0  0  0  0  0
   13.3421   -5.1891   -2.1263 H   0  0  0  0  0  0  0  0  0  0  0  0
   13.2535   -3.0159   -0.5746 C   0  0  0  0  0  0  0  0  0  0  0  0
   12.3325   -3.1195   -1.3818 O   0  0  0  0  0  0  0  0  0  0  0  0
   13.0160   -2.7004    0.7323 N   0  0  0  0  0  0  0  0  0  0  0  0
   11.7715   -2.6061    1.2810 C   0  0  0  0  0  0  0  0  0  0  0  0
   10.8512   -2.3997    0.5048 O   0  0  0  0  0  0  0  0  0  0  0  0
   11.6576   -2.8102    2.6082 O   0  0  0  0  0  0  0  0  0  0  0  0
   10.3388   -2.7538    3.1703 C   0  0  0  0  0  0  0  0  0  0  0  0
   10.4078   -2.9896    4.2403 H   0  0  0  0  0  0  0  0  0  0  0  0
    9.9035   -1.7531    3.0647 H   0  0  0  0  0  0  0  0  0  0  0  0
    9.6699   -3.4827    2.6946 H   0  0  0  0  0  0  0  0  0  0  0  0
   14.1875   -2.6824    1.4083 C   0  0  0  0  0  0  0  0  0  0  0  0
   14.3426   -2.4278    2.7358 N   0  0  0  0  0  0  0  0  0  0  0  0
   13.5784   -1.9834    3.2432 H   0  0  0  0  0  0  0  0  0  0  0  0
   15.2942   -2.3203    3.0780 H   0  0  0  0  0  0  0  0  0  0  0  0
   15.1872   -2.9192    0.6300 N   0  0  0  0  0  4  0  0  0  0  0  0
   16.1528   -2.9495    0.9629 H   0  0  0  0  0  0  0  0  0  0  0  0
   15.2907   -0.8396   -1.4924 C   0  0  0  0  0  0  0  0  0  0  0  0
   14.8561   -0.4910   -0.5609 H   0  0  0  0  0  0  0  0  0  0  0  0
   15.4540    2.0082   -0.8000 C   0  0  0  0  0  0  0  0  0  0  0  0
   15.3433    1.2716   -0.0117 H   0  0  0  0  0  0  0  0  0  0  0  0
   15.3862    3.3810   -0.5579 C   0  0  0  0  0  0  0  0  0  0  0  0
   15.1858    3.7646    0.4350 H   0  0  0  0  0  0  0  0  0  0  0  0
  1  2  1  0
  2  3  2  0
  3  4  1  0
  4  5  1  0
  4  6  2  0
  6  7  1  0
  7  8  2  0
  8  9  1  0
  8 10  1  0
 10 11  1  0
 10 12  2  0
 12 13  1  0
 12 14  1  0
 15 14  1  6
 15 16  1  0
 16 17  2  0
 17 18  1  0
 17 19  1  0
 19 20  1  0
 19 21  2  0
 21 22  1  0
 21 23  1  0
 23 24  1  0
 23 25  2  0
 25 26  1  0
 15 27  1  0
 27 28  2  0
 27 29  1  0
 29 30  1  0
 30 31  2  0
 30 32  1  0
 32 33  1  0
 33 34  1  0
 33 35  1  0
 33 36  1  0
 29 37  1  0
 37 38  1  0
 38 39  1  0
 38 40  1  0
 37 41  2  0
 41 42  1  0
 14 43  2  0
 43 44  1  0
  6 45  1  0
 45 46  1  0
 45 47  2  0
 47 48  1  0
 47  2  1  0
 43  7  1  0
 41 15  1  0
 25 16  1  0
M  CHG  1  41   1
M  END
>  <score>  (272) 
5.54093

$$$$

     RDKit          3D

 56 60  0  0  0  0  0  0  0  0999 V2000
   15.7374    5.3895   -1.4945 H   0  0  0  0  0  0  0  0  0  0  0  0
   15.7338    4.3139   -1.6453 C   0  0  0  0  0  0  0  0  0  0  0  0
   15.8745    3.8452   -2.8931 N   0  0  0  0  0  0  0  0  0  0  0  0
   15.8565    2.5132   -3.0773 C   0  0  0  0  0  0  0  0  0  0  0  0
   15.9571    2.1301   -4.0874 H   0  0  0  0  0  0  0  0  0  0  0  0
   15.6953    1.5892   -2.0341 C   0  0  0  0  0  0  0  0  0  0  0  0
   15.6657    0.1473   -2.3259 C   0  0  0  0  0  0  0  0  0  0  0  0
   16.2264   -0.3405   -3.5146 C   0  0  0  0  0  0  0  0  0  0  0  0
   16.7062    0.3503   -4.2015 H   0  0  0  0  0  0  0  0  0  0  0  0
   16.1833   -1.7043   -3.8147 C   0  0  0  0  0  0  0  0  0  0  0  0
   16.6323   -2.0719   -4.7328 H   0  0  0  0  0  0  0  0  0  0  0  0
   15.5726   -2.5941   -2.9263 C   0  0  0  0  0  0  0  0  0  0  0  0
   15.5311   -3.6488   -3.1795 H   0  0  0  0  0  0  0  0  0  0  0  0
   15.0278   -2.1419   -1.7128 C   0  0  0  0  0  0  0  0  0  0  0  0
   14.3612   -3.1045   -0.7395 C   0  0  2  0  0  0  0  0  0  0  0  0
   14.7800   -4.5506   -0.9480 C   0  0  0  0  0  0  0  0  0  0  0  0
   16.0097   -4.9995   -0.4463 C   0  0  0  0  0  0  0  0  0  0  0  0
   16.6453   -4.3179    0.1140 H   0  0  0  0  0  0  0  0  0  0  0  0
   16.4260   -6.3162   -0.6561 C   0  0  0  0  0  0  0  0  0  0  0  0
   17.3824   -6.6460   -0.2612 H   0  0  0  0  0  0  0  0  0  0  0  0
   15.6144   -7.2005   -1.3749 C   0  0  0  0  0  0  0  0  0  0  0  0
   15.9402   -8.2202   -1.5542 H   0  0  0  0  0  0  0  0  0  0  0  0
   14.3749   -6.7707   -1.8622 C   0  0  0  0  0  0  0  0  0  0  0  0
   13.7305   -7.4516   -2.4089 H   0  0  0  0  0  0  0  0  0  0  0  0
   13.9599   -5.4521   -1.6500 C   0  0  0  0  0  0  0  0  0  0  0  0
   12.9967   -5.1200   -2.0274 H   0  0  0  0  0  0  0  0  0  0  0  0
   12.8356   -2.9381   -0.7711 C   0  0  0  0  0  0  0  0  0  0  0  0
   12.1052   -3.1615   -1.7387 O   0  0  0  0  0  0  0  0  0  0  0  0
   12.4061   -2.5105    0.4623 N   0  0  0  0  0  0  0  0  0  0  0  0
   11.1020   -2.5596    0.9425 C   0  0  0  0  0  0  0  0  0  0  0  0
   10.4695   -3.7873    1.1557 C   0  0  0  0  0  0  0  0  0  0  0  0
   10.9528   -4.7137    0.8722 H   0  0  0  0  0  0  0  0  0  0  0  0
    9.2164   -3.8332    1.7596 C   0  0  0  0  0  0  0  0  0  0  0  0
    8.7302   -4.7818    1.9542 H   0  0  0  0  0  0  0  0  0  0  0  0
    8.5978   -2.6459    2.1592 C   0  0  0  0  0  0  0  0  0  0  0  0
    7.3995   -2.6241    2.8043 O   0  0  0  0  0  0  0  0  0  0  0  0
    6.5850   -3.7966    2.7084 C   0  0  0  0  0  0  0  0  0  0  0  0
    6.4302   -4.1013    1.6657 H   0  0  0  0  0  0  0  0  0  0  0  0
    5.6189   -3.5603    3.1623 H   0  0  0  0  0  0  0  0  0  0  0  0
    7.0311   -4.6362    3.2467 H   0  0  0  0  0  0  0  0  0  0  0  0
    9.2248   -1.4219    1.9332 C   0  0  0  0  0  0  0  0  0  0  0  0
    8.7438   -0.5075    2.2584 H   0  0  0  0  0  0  0  0  0  0  0  0
   10.4740   -1.3754    1.3177 C   0  0  0  0  0  0  0  0  0  0  0  0
   10.9728   -0.4219    1.1707 H   0  0  0  0  0  0  0  0  0  0  0  0
   13.5167   -2.4666    1.2814 C   0  0  0  0  0  0  0  0  0  0  0  0
   13.5116   -2.2892    2.6284 N   0  0  0  0  0  0  0  0  0  0  0  0
   12.6163   -2.1320    3.0805 H   0  0  0  0  0  0  0  0  0  0  0  0
   14.3516   -1.9278    3.0766 H   0  0  0  0  0  0  0  0  0  0  0  0
   14.6189   -2.7108    0.6584 N   0  0  0  0  0  4  0  0  0  0  0  0
   15.5070   -2.8828    1.1325 H   0  0  0  0  0  0  0  0  0  0  0  0
   15.0760   -0.7626   -1.4340 C   0  0  0  0  0  0  0  0  0  0  0  0
   14.6445   -0.3855   -0.5112 H   0  0  0  0  0  0  0  0  0  0  0  0
   15.5605    2.0833   -0.7331 C   0  0  0  0  0  0  0  0  0  0  0  0
   15.4632    1.4048    0.1107 H   0  0  0  0  0  0  0  0  0  0  0  0
   15.5741    3.4666   -0.5453 C   0  0  0  0  0  0  0  0  0  0  0  0
   15.4671    3.8963    0.4437 H   0  0  0  0  0  0  0  0  0  0  0  0
  1  2  1  0
  2  3  2  0
  3  4  1  0
  4  5  1  0
  4  6  2  0
  6  7  1  0
  7  8  2  0
  8  9  1  0
  8 10  1  0
 10 11  1  0
 10 12  2  0
 12 13  1  0
 12 14  1  0
 15 14  1  6
 15 16  1  0
 16 17  2  0
 17 18  1  0
 17 19  1  0
 19 20  1  0
 19 21  2  0
 21 22  1  0
 21 23  1  0
 23 24  1  0
 23 25  2  0
 25 26  1  0
 15 27  1  0
 27 28  2  0
 27 29  1  0
 29 30  1  0
 30 31  2  0
 31 32  1  0
 31 33  1  0
 33 34  1  0
 33 35  2  0
 35 36  1  0
 36 37  1  0
 37 38  1  0
 37 39  1  0
 37 40  1  0
 35 41  1  0
 41 42  1  0
 41 43  2  0
 43 44  1  0
 29 45  1  0
 45 46  1  0
 46 47  1  0
 46 48  1  0
 45 49  2  0
 49 50  1  0
 14 51  2  0
 51 52  1  0
  6 53  1  0
 53 54  1  0
 53 55  2  0
 55 56  1  0
 55  2  1  0
 51  7  1  0
 49 15  1  0
 25 16  1  0
 43 30  1  0
M  CHG  1  49   1
M  END
>  <score>  (273) 
5.53984

$$$$

     RDKit          3D

 52 56  0  0  0  0  0  0  0  0999 V2000
   15.5691    5.3720   -1.3872 H   0  0  0  0  0  0  0  0  0  0  0  0
   15.5825    4.3030   -1.5955 C   0  0  0  0  0  0  0  0  0  0  0  0
   15.8191    3.8802   -2.8473 N   0  0  0  0  0  0  0  0  0  0  0  0
   15.8638    2.5522   -3.0884 C   0  0  0  0  0  0  0  0  0  0  0  0
   16.0489    2.2197   -4.1051 H   0  0  0  0  0  0  0  0  0  0  0  0
   15.6870    1.5710   -2.0961 C   0  0  0  0  0  0  0  0  0  0  0  0
   15.7698    0.1183   -2.4107 C   0  0  0  0  0  0  0  0  0  0  0  0
   16.3495   -0.3215   -3.6092 C   0  0  0  0  0  0  0  0  0  0  0  0
   16.7223    0.4115   -4.3187 H   0  0  0  0  0  0  0  0  0  0  0  0
   16.4312   -1.6904   -3.9056 C   0  0  0  0  0  0  0  0  0  0  0  0
   16.8636   -2.0082   -4.8504 H   0  0  0  0  0  0  0  0  0  0  0  0
   15.9410   -2.6448   -3.0009 C   0  0  0  0  0  0  0  0  0  0  0  0
   16.0024   -3.7002   -3.2552 H   0  0  0  0  0  0  0  0  0  0  0  0
   15.3716   -2.2435   -1.7781 C   0  0  0  0  0  0  0  0  0  0  0  0
   14.7935   -3.2446   -0.7759 C   0  0  2  0  0  0  0  0  0  0  0  0
   15.1646   -4.7099   -1.0667 C   0  0  0  0  0  0  0  0  0  0  0  0
   16.3891   -5.2327   -0.6110 C   0  0  0  0  0  0  0  0  0  0  0  0
   17.0647   -4.5836   -0.0619 H   0  0  0  0  0  0  0  0  0  0  0  0
   16.7282   -6.5791   -0.8037 C   0  0  0  0  0  0  0  0  0  0  0  0
   17.6708   -6.9551   -0.4168 H   0  0  0  0  0  0  0  0  0  0  0  0
   15.8531   -7.4384   -1.4732 C   0  0  0  0  0  0  0  0  0  0  0  0
   16.1201   -8.4848   -1.6116 H   0  0  0  0  0  0  0  0  0  0  0  0
   14.6430   -6.9352   -1.9619 C   0  0  0  0  0  0  0  0  0  0  0  0
   13.9729   -7.6094   -2.4878 H   0  0  0  0  0  0  0  0  0  0  0  0
   14.3017   -5.5840   -1.7643 C   0  0  0  0  0  0  0  0  0  0  0  0
   13.3522   -5.2288   -2.1534 H   0  0  0  0  0  0  0  0  0  0  0  0
   13.2800   -2.9995   -0.5952 C   0  0  0  0  0  0  0  0  0  0  0  0
   12.4267   -3.0911   -1.4742 O   0  0  0  0  0  0  0  0  0  0  0  0
   12.9954   -2.6746    0.7151 N   0  0  0  0  0  0  0  0  0  0  0  0
   11.7230   -2.4918    1.2653 C   0  0  0  0  0  0  0  0  0  0  0  0
   11.3305   -3.2143    2.3942 C   0  0  0  0  0  0  0  0  0  0  0  0
   12.0274   -3.9165    2.8356 H   0  0  0  0  0  0  0  0  0  0  0  0
   10.0512   -3.0560    2.9384 C   0  0  0  0  0  0  0  0  0  0  0  0
    9.7460   -3.6372    3.8045 H   0  0  0  0  0  0  0  0  0  0  0  0
    9.1624   -2.1478    2.3563 C   0  0  0  0  0  0  0  0  0  0  0  0
    8.1698   -2.0095    2.7680 H   0  0  0  0  0  0  0  0  0  0  0  0
    9.5501   -1.4045    1.2381 C   0  0  0  0  0  0  0  0  0  0  0  0
    8.6834   -0.5232    0.6870 F   0  0  0  0  0  0  0  0  0  0  0  0
   10.8255   -1.5876    0.6912 C   0  0  0  0  0  0  0  0  0  0  0  0
   11.1314   -1.0005   -0.1663 H   0  0  0  0  0  0  0  0  0  0  0  0
   14.1969   -2.6534    1.3816 C   0  0  0  0  0  0  0  0  0  0  0  0
   14.3926   -2.3550    2.6979 N   0  0  0  0  0  0  0  0  0  0  0  0
   15.3349   -2.3781    3.0908 H   0  0  0  0  0  0  0  0  0  0  0  0
   13.6013   -2.0356    3.2531 H   0  0  0  0  0  0  0  0  0  0  0  0
   15.1957   -2.9088    0.6036 N   0  0  0  0  0  4  0  0  0  0  0  0
   16.1663   -2.9163    0.9092 H   0  0  0  0  0  0  0  0  0  0  0  0
   15.2927   -0.8579   -1.5150 C   0  0  0  0  0  0  0  0  0  0  0  0
   14.8718   -0.5212   -0.5755 H   0  0  0  0  0  0  0  0  0  0  0  0
   15.4396    2.0244   -0.7972 C   0  0  0  0  0  0  0  0  0  0  0  0
   15.3010    1.3041    0.0000 H   0  0  0  0  0  0  0  0  0  0  0  0
   15.3733    3.4005   -0.5522 C   0  0  0  0  0  0  0  0  0  0  0  0
   15.1682    3.7864    0.4390 H   0  0  0  0  0  0  0  0  0  0  0  0
  1  2  1  0
  2  3  2  0
  3  4  1  0
  4  5  1  0
  4  6  2  0
  6  7  1  0
  7  8  2  0
  8  9  1  0
  8 10  1  0
 10 11  1  0
 10 12  2  0
 12 13  1  0
 12 14  1  0
 15 14  1  6
 15 16  1  0
 16 17  2  0
 17 18  1  0
 17 19  1  0
 19 20  1  0
 19 21  2  0
 21 22  1  0
 21 23  1  0
 23 24  1  0
 23 25  2  0
 25 26  1  0
 15 27  1  0
 27 28  2  0
 27 29  1  0
 29 30  1  0
 30 31  2  0
 31 32  1  0
 31 33  1  0
 33 34  1  0
 33 35  2  0
 35 36  1  0
 35 37  1  0
 37 38  1  0
 37 39  2  0
 39 40  1  0
 29 41  1  0
 41 42  1  0
 42 43  1  0
 42 44  1  0
 41 45  2  0
 45 46  1  0
 14 47  2  0
 47 48  1  0
  6 49  1  0
 49 50  1  0
 49 51  2  0
 51 52  1  0
 51  2  1  0
 47  7  1  0
 45 15  1  0
 25 16  1  0
 39 30  1  0
M  CHG  1  45   1
M  END
>  <score>  (274) 
5.53731

$$$$

     RDKit          3D

 53 57  0  0  0  0  0  0  0  0999 V2000
   12.2038   -4.1542    2.4095 H   0  0  0  0  0  0  0  0  0  0  0  0
   11.3133   -3.9260    2.7175 O   0  0  0  0  0  0  0  0  0  0  0  0
   10.9454   -2.7597    2.1040 C   0  0  0  0  0  0  0  0  0  0  0  0
    9.7132   -2.1849    2.4437 C   0  0  0  0  0  0  0  0  0  0  0  0
    9.1357   -2.6689    3.2231 H   0  0  0  0  0  0  0  0  0  0  0  0
    9.2677   -1.0083    1.8205 C   0  0  0  0  0  0  0  0  0  0  0  0
    8.3110   -0.5643    2.0997 H   0  0  0  0  0  0  0  0  0  0  0  0
   10.1083   -0.3744    0.8896 C   0  0  0  0  0  0  0  0  0  0  0  0
    9.8125    0.5729    0.4496 H   0  0  0  0  0  0  0  0  0  0  0  0
   11.3551   -0.9395    0.5554 C   0  0  0  0  0  0  0  0  0  0  0  0
   12.0277   -0.4425   -0.1422 H   0  0  0  0  0  0  0  0  0  0  0  0
   11.7756   -2.1477    1.1331 C   0  0  0  0  0  0  0  0  0  0  0  0
   13.0033   -2.7002    0.7017 N   0  0  0  0  0  0  0  0  0  0  0  0
   13.3151   -3.0213   -0.6099 C   0  0  0  0  0  0  0  0  0  0  0  0
   12.4865   -3.1031   -1.5178 O   0  0  0  0  0  0  0  0  0  0  0  0
   14.8351   -3.2277   -0.7449 C   0  0  1  0  0  0  0  0  0  0  0  0
   15.2001   -4.6754   -1.0466 C   0  0  0  0  0  0  0  0  0  0  0  0
   16.4179   -5.2040   -0.5944 C   0  0  0  0  0  0  0  0  0  0  0  0
   17.1017   -4.5591   -0.0498 H   0  0  0  0  0  0  0  0  0  0  0  0
   16.7390   -6.5477   -0.8045 C   0  0  0  0  0  0  0  0  0  0  0  0
   17.6728   -6.9404   -0.4160 H   0  0  0  0  0  0  0  0  0  0  0  0
   15.8483   -7.3802   -1.4877 C   0  0  0  0  0  0  0  0  0  0  0  0
   16.0934   -8.4285   -1.6342 H   0  0  0  0  0  0  0  0  0  0  0  0
   14.6415   -6.8622   -1.9675 C   0  0  0  0  0  0  0  0  0  0  0  0
   13.9504   -7.5152   -2.4915 H   0  0  0  0  0  0  0  0  0  0  0  0
   14.3159   -5.5171   -1.7472 C   0  0  0  0  0  0  0  0  0  0  0  0
   13.3621   -5.1356   -2.1024 H   0  0  0  0  0  0  0  0  0  0  0  0
   15.3971   -2.2157   -1.7374 C   0  0  0  0  0  0  0  0  0  0  0  0
   15.9396   -2.6177   -2.9668 C   0  0  0  0  0  0  0  0  0  0  0  0
   15.9990   -3.6750   -3.1988 H   0  0  0  0  0  0  0  0  0  0  0  0
   16.4100   -1.6774   -3.8914 C   0  0  0  0  0  0  0  0  0  0  0  0
   16.8480   -1.9981   -4.8306 H   0  0  0  0  0  0  0  0  0  0  0  0
   16.3280   -0.3146   -3.6041 C   0  0  0  0  0  0  0  0  0  0  0  0
   16.6920    0.4265   -4.3101 H   0  0  0  0  0  0  0  0  0  0  0  0
   15.7824    0.1178   -2.3939 C   0  0  0  0  0  0  0  0  0  0  0  0
   15.7166    1.5518   -2.0994 C   0  0  0  0  0  0  0  0  0  0  0  0
   15.9052    2.5179   -3.1022 C   0  0  0  0  0  0  0  0  0  0  0  0
   16.1097    2.1855   -4.1155 H   0  0  0  0  0  0  0  0  0  0  0  0
   15.8401    3.8413   -2.8697 N   0  0  0  0  0  0  0  0  0  0  0  0
   15.5832    4.2511   -1.6179 C   0  0  0  0  0  0  0  0  0  0  0  0
   15.5246    5.3165   -1.4182 H   0  0  0  0  0  0  0  0  0  0  0  0
   15.4037    3.3555   -0.5606 C   0  0  0  0  0  0  0  0  0  0  0  0
   15.2153    3.7338    0.4369 H   0  0  0  0  0  0  0  0  0  0  0  0
   15.4824    1.9866   -0.7982 C   0  0  0  0  0  0  0  0  0  0  0  0
   15.3807    1.2577    0.0008 H   0  0  0  0  0  0  0  0  0  0  0  0
   15.3121   -0.8357   -1.4741 C   0  0  0  0  0  0  0  0  0  0  0  0
   14.8704   -0.4892   -0.5435 H   0  0  0  0  0  0  0  0  0  0  0  0
   15.2228   -2.9065    0.6430 N   0  0  0  0  0  4  0  0  0  0  0  0
   16.1808   -2.9865    0.9919 H   0  0  0  0  0  0  0  0  0  0  0  0
   14.2067   -2.6081    1.3824 C   0  0  0  0  0  0  0  0  0  0  0  0
   14.4150   -2.2378    2.6890 N   0  0  0  0  0  0  0  0  0  0  0  0
   13.6187   -2.0962    3.3096 H   0  0  0  0  0  0  0  0  0  0  0  0
   15.3571   -2.3110    3.0717 H   0  0  0  0  0  0  0  0  0  0  0  0
  1  2  1  0
  2  3  1  0
  3  4  2  0
  4  5  1  0
  4  6  1  0
  6  7  1  0
  6  8  2  0
  8  9  1  0
  8 10  1  0
 10 11  1  0
 10 12  2  0
 12 13  1  0
 13 14  1  0
 14 15  2  0
 14 16  1  0
 16 17  1  6
 17 18  2  0
 18 19  1  0
 18 20  1  0
 20 21  1  0
 20 22  2  0
 22 23  1  0
 22 24  1  0
 24 25  1  0
 24 26  2  0
 26 27  1  0
 16 28  1  0
 28 29  2  0
 29 30  1  0
 29 31  1  0
 31 32  1  0
 31 33  2  0
 33 34  1  0
 33 35  1  0
 35 36  1  0
 36 37  2  0
 37 38  1  0
 37 39  1  0
 39 40  2  0
 40 41  1  0
 40 42  1  0
 42 43  1  0
 42 44  2  0
 44 45  1  0
 35 46  2  0
 46 47  1  0
 16 48  1  0
 48 49  1  0
 48 50  2  0
 50 51  1  0
 51 52  1  0
 51 53  1  0
 12  3  1  0
 50 13  1  0
 26 17  1  0
 46 28  1  0
 44 36  1  0
M  CHG  1  48   1
M  END
>  <score>  (275) 
5.53543

$$$$

     RDKit          3D

 54 58  0  0  0  0  0  0  0  0999 V2000
   15.5679    5.3704   -1.3879 H   0  0  0  0  0  0  0  0  0  0  0  0
   15.5846    4.3011   -1.5968 C   0  0  0  0  0  0  0  0  0  0  0  0
   15.8194    3.8796   -2.8496 N   0  0  0  0  0  0  0  0  0  0  0  0
   15.8658    2.5515   -3.0878 C   0  0  0  0  0  0  0  0  0  0  0  0
   16.0480    2.2225   -4.1049 H   0  0  0  0  0  0  0  0  0  0  0  0
   15.6868    1.5704   -2.0961 C   0  0  0  0  0  0  0  0  0  0  0  0
   15.7724    0.1192   -2.4099 C   0  0  0  0  0  0  0  0  0  0  0  0
   16.3443   -0.3221   -3.6113 C   0  0  0  0  0  0  0  0  0  0  0  0
   16.7244    0.4085   -4.3192 H   0  0  0  0  0  0  0  0  0  0  0  0
   16.4305   -1.6902   -3.9057 C   0  0  0  0  0  0  0  0  0  0  0  0
   16.8641   -2.0079   -4.8497 H   0  0  0  0  0  0  0  0  0  0  0  0
   15.9407   -2.6437   -3.0004 C   0  0  0  0  0  0  0  0  0  0  0  0
   16.0023   -3.7000   -3.2548 H   0  0  0  0  0  0  0  0  0  0  0  0
   15.3679   -2.2413   -1.7794 C   0  0  0  0  0  0  0  0  0  0  0  0
   14.7889   -3.2435   -0.7754 C   0  0  2  0  0  0  0  0  0  0  0  0
   15.1613   -4.7098   -1.0660 C   0  0  0  0  0  0  0  0  0  0  0  0
   16.3857   -5.2323   -0.6073 C   0  0  0  0  0  0  0  0  0  0  0  0
   17.0661   -4.5842   -0.0635 H   0  0  0  0  0  0  0  0  0  0  0  0
   16.7292   -6.5771   -0.8036 C   0  0  0  0  0  0  0  0  0  0  0  0
   17.6712   -6.9552   -0.4170 H   0  0  0  0  0  0  0  0  0  0  0  0
   15.8545   -7.4363   -1.4730 C   0  0  0  0  0  0  0  0  0  0  0  0
   16.1191   -8.4835   -1.6118 H   0  0  0  0  0  0  0  0  0  0  0  0
   14.6437   -6.9358   -1.9615 C   0  0  0  0  0  0  0  0  0  0  0  0
   13.9717   -7.6079   -2.4881 H   0  0  0  0  0  0  0  0  0  0  0  0
   14.3012   -5.5849   -1.7652 C   0  0  0  0  0  0  0  0  0  0  0  0
   13.3522   -5.2277   -2.1527 H   0  0  0  0  0  0  0  0  0  0  0  0
   13.2712   -3.0039   -0.5873 C   0  0  0  0  0  0  0  0  0  0  0  0
   12.4225   -3.0900   -1.4719 O   0  0  0  0  0  0  0  0  0  0  0  0
   12.9877   -2.6889    0.7249 N   0  0  0  0  0  0  0  0  0  0  0  0
   11.7201   -2.5041    1.2808 C   0  0  0  0  0  0  0  0  0  0  0  0
   10.8194   -1.6025    0.7061 C   0  0  0  0  0  0  0  0  0  0  0  0
   11.1334   -1.0167   -0.1495 H   0  0  0  0  0  0  0  0  0  0  0  0
    9.5434   -1.4217    1.2523 C   0  0  0  0  0  0  0  0  0  0  0  0
    8.8625   -0.7067    0.8098 H   0  0  0  0  0  0  0  0  0  0  0  0
    9.1591   -2.1643    2.3710 C   0  0  0  0  0  0  0  0  0  0  0  0
    8.1797   -2.0688    2.8210 H   0  0  0  0  0  0  0  0  0  0  0  0
   10.0499   -3.0634    2.9341 C   0  0  0  0  0  0  0  0  0  0  0  0
    9.6430   -3.8299    4.0020 N   0  0  0  0  0  0  0  0  0  0  0  0
    8.7274   -3.6664    4.4161 H   0  0  0  0  0  0  0  0  0  0  0  0
   10.3171   -4.4509    4.4474 H   0  0  0  0  0  0  0  0  0  0  0  0
   11.3240   -3.2278    2.4069 C   0  0  0  0  0  0  0  0  0  0  0  0
   11.9925   -3.9409    2.8699 H   0  0  0  0  0  0  0  0  0  0  0  0
   14.1958   -2.6563    1.3853 C   0  0  0  0  0  0  0  0  0  0  0  0
   14.3880   -2.3552    2.7024 N   0  0  0  0  0  0  0  0  0  0  0  0
   15.3335   -2.3770    3.0904 H   0  0  0  0  0  0  0  0  0  0  0  0
   13.5988   -2.0362    3.2590 H   0  0  0  0  0  0  0  0  0  0  0  0
   15.1936   -2.9101    0.6057 N   0  0  0  0  0  4  0  0  0  0  0  0
   16.1675   -2.9150    0.9130 H   0  0  0  0  0  0  0  0  0  0  0  0
   15.2974   -0.8557   -1.5119 C   0  0  0  0  0  0  0  0  0  0  0  0
   14.8680   -0.5232   -0.5749 H   0  0  0  0  0  0  0  0  0  0  0  0
   15.4353    2.0237   -0.7978 C   0  0  0  0  0  0  0  0  0  0  0  0
   15.3018    1.3056    0.0027 H   0  0  0  0  0  0  0  0  0  0  0  0
   15.3736    3.3998   -0.5516 C   0  0  0  0  0  0  0  0  0  0  0  0
   15.1688    3.7859    0.4412 H   0  0  0  0  0  0  0  0  0  0  0  0
  1  2  1  0
  2  3  2  0
  3  4  1  0
  4  5  1  0
  4  6  2  0
  6  7  1  0
  7  8  2  0
  8  9  1  0
  8 10  1  0
 10 11  1  0
 10 12  2  0
 12 13  1  0
 12 14  1  0
 15 14  1  6
 15 16  1  0
 16 17  2  0
 17 18  1  0
 17 19  1  0
 19 20  1  0
 19 21  2  0
 21 22  1  0
 21 23  1  0
 23 24  1  0
 23 25  2  0
 25 26  1  0
 15 27  1  0
 27 28  2  0
 27 29  1  0
 29 30  1  0
 30 31  2  0
 31 32  1  0
 31 33  1  0
 33 34  1  0
 33 35  2  0
 35 36  1  0
 35 37  1  0
 37 38  1  0
 38 39  1  0
 38 40  1  0
 37 41  2  0
 41 42  1  0
 29 43  1  0
 43 44  1  0
 44 45  1  0
 44 46  1  0
 43 47  2  0
 47 48  1  0
 14 49  2  0
 49 50  1  0
  6 51  1  0
 51 52  1  0
 51 53  2  0
 53 54  1  0
 53  2  1  0
 49  7  1  0
 47 15  1  0
 25 16  1  0
 41 30  1  0
M  CHG  1  47   1
M  END
>  <score>  (276) 
5.53459

$$$$

     RDKit          3D

 54 58  0  0  0  0  0  0  0  0999 V2000
   10.7339   -7.1149    0.4435 H   0  0  0  0  0  0  0  0  0  0  0  0
   10.9422   -6.3644    1.2021 C   0  0  0  0  0  0  0  0  0  0  0  0
   11.0989   -5.0950    0.8026 N   0  0  0  0  0  0  0  0  0  0  0  0
   11.4196   -4.1720    1.7309 C   0  0  0  0  0  0  0  0  0  0  0  0
   11.7053   -2.7550    1.3065 C   0  0  0  0  0  0  0  0  0  0  0  0
   10.9138   -2.4551    0.6075 H   0  0  0  0  0  0  0  0  0  0  0  0
   11.6380   -2.1078    2.1908 H   0  0  0  0  0  0  0  0  0  0  0  0
   13.0402   -2.6334    0.6825 N   0  0  0  0  0  0  0  0  0  0  0  0
   13.3168   -3.0123   -0.6178 C   0  0  0  0  0  0  0  0  0  0  0  0
   12.4507   -3.1377   -1.4801 O   0  0  0  0  0  0  0  0  0  0  0  0
   14.8327   -3.2321   -0.7825 C   0  0  1  0  0  0  0  0  0  0  0  0
   15.1824   -4.6998   -1.0714 C   0  0  0  0  0  0  0  0  0  0  0  0
   16.3979   -5.2276   -0.6039 C   0  0  0  0  0  0  0  0  0  0  0  0
   17.0784   -4.5791   -0.0604 H   0  0  0  0  0  0  0  0  0  0  0  0
   16.7359   -6.5724   -0.8014 C   0  0  0  0  0  0  0  0  0  0  0  0
   17.6745   -6.9590   -0.4136 H   0  0  0  0  0  0  0  0  0  0  0  0
   15.8585   -7.4231   -1.4783 C   0  0  0  0  0  0  0  0  0  0  0  0
   16.1085   -8.4713   -1.6145 H   0  0  0  0  0  0  0  0  0  0  0  0
   14.6462   -6.9218   -1.9628 C   0  0  0  0  0  0  0  0  0  0  0  0
   13.9629   -7.5869   -2.4856 H   0  0  0  0  0  0  0  0  0  0  0  0
   14.3116   -5.5703   -1.7639 C   0  0  0  0  0  0  0  0  0  0  0  0
   13.3577   -5.2023   -2.1310 H   0  0  0  0  0  0  0  0  0  0  0  0
   15.3879   -2.2282   -1.7851 C   0  0  0  0  0  0  0  0  0  0  0  0
   15.9474   -2.6358   -3.0047 C   0  0  0  0  0  0  0  0  0  0  0  0
   16.0027   -3.6950   -3.2420 H   0  0  0  0  0  0  0  0  0  0  0  0
   16.4252   -1.6844   -3.9121 C   0  0  0  0  0  0  0  0  0  0  0  0
   16.8666   -2.0024   -4.8497 H   0  0  0  0  0  0  0  0  0  0  0  0
   16.3335   -0.3170   -3.6163 C   0  0  0  0  0  0  0  0  0  0  0  0
   16.7175    0.4224   -4.3099 H   0  0  0  0  0  0  0  0  0  0  0  0
   15.7773    0.1243   -2.4097 C   0  0  0  0  0  0  0  0  0  0  0  0
   15.6938    1.5712   -2.0974 C   0  0  0  0  0  0  0  0  0  0  0  0
   15.8763    2.5463   -3.0926 C   0  0  0  0  0  0  0  0  0  0  0  0
   16.0635    2.2096   -4.1066 H   0  0  0  0  0  0  0  0  0  0  0  0
   15.8228    3.8726   -2.8582 N   0  0  0  0  0  0  0  0  0  0  0  0
   15.5881    4.2886   -1.6034 C   0  0  0  0  0  0  0  0  0  0  0  0
   15.5562    5.3548   -1.3934 H   0  0  0  0  0  0  0  0  0  0  0  0
   15.3809    3.3898   -0.5550 C   0  0  0  0  0  0  0  0  0  0  0  0
   15.1786    3.7731    0.4379 H   0  0  0  0  0  0  0  0  0  0  0  0
   15.4401    2.0159   -0.7994 C   0  0  0  0  0  0  0  0  0  0  0  0
   15.3267    1.2848   -0.0060 H   0  0  0  0  0  0  0  0  0  0  0  0
   15.3113   -0.8462   -1.5069 C   0  0  0  0  0  0  0  0  0  0  0  0
   14.8647   -0.5161   -0.5732 H   0  0  0  0  0  0  0  0  0  0  0  0
   15.2546   -2.8773    0.5929 N   0  0  0  0  0  4  0  0  0  0  0  0
   16.2196   -2.9473    0.9271 H   0  0  0  0  0  0  0  0  0  0  0  0
   14.2474   -2.6077    1.3568 C   0  0  0  0  0  0  0  0  0  0  0  0
   14.4048   -2.3667    2.6909 N   0  0  0  0  0  0  0  0  0  0  0  0
   13.6039   -2.0888    3.2539 H   0  0  0  0  0  0  0  0  0  0  0  0
   15.3468   -2.3458    3.0819 H   0  0  0  0  0  0  0  0  0  0  0  0
   11.5186   -4.4854    3.0896 C   0  0  0  0  0  0  0  0  0  0  0  0
   11.7992   -3.7218    3.8047 H   0  0  0  0  0  0  0  0  0  0  0  0
   11.2790   -5.7730    3.5311 C   0  0  0  0  0  0  0  0  0  0  0  0
   11.3081   -5.9663    4.6034 H   0  0  0  0  0  0  0  0  0  0  0  0
   11.0346   -6.7381    2.5467 C   0  0  0  0  0  0  0  0  0  0  0  0
   10.9155   -7.7853    2.7814 H   0  0  0  0  0  0  0  0  0  0  0  0
  1  2  1  0
  2  3  2  0
  3  4  1  0
  4  5  1  0
  5  6  1  0
  5  7  1  0
  5  8  1  0
  8  9  1  0
  9 10  2  0
  9 11  1  0
 11 12  1  6
 12 13  2  0
 13 14  1  0
 13 15  1  0
 15 16  1  0
 15 17  2  0
 17 18  1  0
 17 19  1  0
 19 20  1  0
 19 21  2  0
 21 22  1  0
 11 23  1  0
 23 24  2  0
 24 25  1  0
 24 26  1  0
 26 27  1  0
 26 28  2  0
 28 29  1  0
 28 30  1  0
 30 31  1  0
 31 32  2  0
 32 33  1  0
 32 34  1  0
 34 35  2  0
 35 36  1  0
 35 37  1  0
 37 38  1  0
 37 39  2  0
 39 40  1  0
 30 41  2  0
 41 42  1  0
 11 43  1  0
 43 44  1  0
 43 45  2  0
 45 46  1  0
 46 47  1  0
 46 48  1  0
  4 49  2  0
 49 50  1  0
 49 51  1  0
 51 52  1  0
 51 53  2  0
 53 54  1  0
 53  2  1  0
 45  8  1  0
 21 12  1  0
 41 23  1  0
 39 31  1  0
M  CHG  1  43   1
M  END
>  <score>  (277) 
5.53459

$$$$

     RDKit          3D

 61 65  0  0  0  0  0  0  0  0999 V2000
   15.5329    5.3261   -1.4127 H   0  0  0  0  0  0  0  0  0  0  0  0
   15.5847    4.2607   -1.6149 C   0  0  0  0  0  0  0  0  0  0  0  0
   15.8402    3.8505   -2.8668 N   0  0  0  0  0  0  0  0  0  0  0  0
   15.8991    2.5262   -3.0994 C   0  0  0  0  0  0  0  0  0  0  0  0
   16.0964    2.1938   -4.1140 H   0  0  0  0  0  0  0  0  0  0  0  0
   15.7108    1.5587   -2.0971 C   0  0  0  0  0  0  0  0  0  0  0  0
   15.7742    0.1214   -2.3938 C   0  0  0  0  0  0  0  0  0  0  0  0
   16.3253   -0.3171   -3.6015 C   0  0  0  0  0  0  0  0  0  0  0  0
   16.7046    0.4183   -4.3064 H   0  0  0  0  0  0  0  0  0  0  0  0
   16.4011   -1.6825   -3.8884 C   0  0  0  0  0  0  0  0  0  0  0  0
   16.8556   -2.0074   -4.8214 H   0  0  0  0  0  0  0  0  0  0  0  0
   15.9091   -2.6199   -2.9684 C   0  0  0  0  0  0  0  0  0  0  0  0
   15.9784   -3.6770   -3.2033 H   0  0  0  0  0  0  0  0  0  0  0  0
   15.3449   -2.2144   -1.7470 C   0  0  0  0  0  0  0  0  0  0  0  0
   14.7788   -3.2229   -0.7464 C   0  0  2  0  0  0  0  0  0  0  0  0
   15.1613   -4.6725   -1.0487 C   0  0  0  0  0  0  0  0  0  0  0  0
   16.3863   -5.1930   -0.5962 C   0  0  0  0  0  0  0  0  0  0  0  0
   17.0679   -4.5471   -0.0518 H   0  0  0  0  0  0  0  0  0  0  0  0
   16.7256   -6.5355   -0.7989 C   0  0  0  0  0  0  0  0  0  0  0  0
   17.6673   -6.9211   -0.4146 H   0  0  0  0  0  0  0  0  0  0  0  0
   15.8437   -7.3804   -1.4794 C   0  0  0  0  0  0  0  0  0  0  0  0
   16.1018   -8.4263   -1.6275 H   0  0  0  0  0  0  0  0  0  0  0  0
   14.6331   -6.8737   -1.9670 C   0  0  0  0  0  0  0  0  0  0  0  0
   13.9520   -7.5370   -2.4939 H   0  0  0  0  0  0  0  0  0  0  0  0
   14.2939   -5.5286   -1.7521 C   0  0  0  0  0  0  0  0  0  0  0  0
   13.3388   -5.1594   -2.1136 H   0  0  0  0  0  0  0  0  0  0  0  0
   13.2554   -3.0324   -0.5420 C   0  0  0  0  0  0  0  0  0  0  0  0
   12.3250   -3.1403   -1.3396 O   0  0  0  0  0  0  0  0  0  0  0  0
   13.0357   -2.7971    0.7777 N   0  0  0  0  0  0  0  0  0  0  0  0
   11.8111   -2.5508    1.3159 C   0  0  0  0  0  0  0  0  0  0  0  0
   11.0378   -1.8561    0.6746 O   0  0  0  0  0  0  0  0  0  0  0  0
   11.3959   -3.2838    2.4240 N   0  0  0  0  0  0  0  0  0  0  0  0
   12.0192   -4.5783    2.7250 C   0  0  0  0  0  0  0  0  0  0  0  0
   12.7348   -4.4784    3.5467 H   0  0  0  0  0  0  0  0  0  0  0  0
   12.5799   -4.9300    1.8538 H   0  0  0  0  0  0  0  0  0  0  0  0
   10.9561   -5.6368    3.0688 C   0  0  0  0  0  0  0  0  0  0  0  0
   11.4590   -6.5500    3.3821 H   0  0  0  0  0  0  0  0  0  0  0  0
   10.3920   -5.8685    2.1632 H   0  0  0  0  0  0  0  0  0  0  0  0
   10.0157   -5.1703    4.1129 N   0  0  0  0  0  0  0  0  0  0  0  0
    9.1534   -6.1907    4.7426 C   0  0  0  0  0  0  0  0  0  0  0  0
    8.6200   -5.7614    5.5991 H   0  0  0  0  0  0  0  0  0  0  0  0
    8.4131   -6.5702    4.0279 H   0  0  0  0  0  0  0  0  0  0  0  0
    9.7521   -7.0306    5.1081 H   0  0  0  0  0  0  0  0  0  0  0  0
    9.3196   -3.9252    3.7310 C   0  0  0  0  0  0  0  0  0  0  0  0
    8.6322   -4.1214    2.9069 H   0  0  0  0  0  0  0  0  0  0  0  0
    8.7201   -3.5618    4.5721 H   0  0  0  0  0  0  0  0  0  0  0  0
   10.3236   -2.8345    3.3324 C   0  0  0  0  0  0  0  0  0  0  0  0
   10.7558   -2.5009    4.2671 H   0  0  0  0  0  0  0  0  0  0  0  0
    9.7901   -1.9831    2.9107 H   0  0  0  0  0  0  0  0  0  0  0  0
   14.2187   -2.7330    1.4409 C   0  0  0  0  0  0  0  0  0  0  0  0
   14.3495   -2.4702    2.7717 N   0  0  0  0  0  0  0  0  0  0  0  0
   13.5420   -2.0693    3.2480 H   0  0  0  0  0  0  0  0  0  0  0  0
   15.2864   -2.2541    3.1141 H   0  0  0  0  0  0  0  0  0  0  0  0
   15.2118   -2.9123    0.6351 N   0  0  0  0  0  4  0  0  0  0  0  0
   16.1847   -2.9758    0.9424 H   0  0  0  0  0  0  0  0  0  0  0  0
   15.2864   -0.8327   -1.4819 C   0  0  0  0  0  0  0  0  0  0  0  0
   14.8480   -0.4833   -0.5532 H   0  0  0  0  0  0  0  0  0  0  0  0
   15.4716    1.9964   -0.7974 C   0  0  0  0  0  0  0  0  0  0  0  0
   15.3628    1.2693    0.0015 H   0  0  0  0  0  0  0  0  0  0  0  0
   15.3961    3.3657   -0.5590 C   0  0  0  0  0  0  0  0  0  0  0  0
   15.2038    3.7450    0.4373 H   0  0  0  0  0  0  0  0  0  0  0  0
  1  2  1  0
  2  3  2  0
  3  4  1  0
  4  5  1  0
  4  6  2  0
  6  7  1  0
  7  8  2  0
  8  9  1  0
  8 10  1  0
 10 11  1  0
 10 12  2  0
 12 13  1  0
 12 14  1  0
 15 14  1  6
 15 16  1  0
 16 17  2  0
 17 18  1  0
 17 19  1  0
 19 20  1  0
 19 21  2  0
 21 22  1  0
 21 23  1  0
 23 24  1  0
 23 25  2  0
 25 26  1  0
 15 27  1  0
 27 28  2  0
 27 29  1  0
 29 30  1  0
 30 31  2  0
 30 32  1  0
 32 33  1  0
 33 34  1  0
 33 35  1  0
 33 36  1  0
 36 37  1  0
 36 38  1  0
 36 39  1  0
 39 40  1  0
 40 41  1  0
 40 42  1  0
 40 43  1  0
 39 44  1  0
 44 45  1  0
 44 46  1  0
 44 47  1  0
 47 48  1  0
 47 49  1  0
 29 50  1  0
 50 51  1  0
 51 52  1  0
 51 53  1  0
 50 54  2  0
 54 55  1  0
 14 56  2  0
 56 57  1  0
  6 58  1  0
 58 59  1  0
 58 60  2  0
 60 61  1  0
 60  2  1  0
 56  7  1  0
 54 15  1  0
 25 16  1  0
 47 32  1  0
M  CHG  1  54   1
M  END
>  <score>  (278) 
5.53449

$$$$

     RDKit          3D

 58 63  0  0  0  0  0  0  0  0999 V2000
   15.5238    5.3212   -1.4185 H   0  0  0  0  0  0  0  0  0  0  0  0
   15.6153    4.2572   -1.6113 C   0  0  0  0  0  0  0  0  0  0  0  0
   15.8629    3.8481   -2.8649 N   0  0  0  0  0  0  0  0  0  0  0  0
   15.9539    2.5254   -3.0941 C   0  0  0  0  0  0  0  0  0  0  0  0
   16.1483    2.1967   -4.1103 H   0  0  0  0  0  0  0  0  0  0  0  0
   15.7963    1.5549   -2.0908 C   0  0  0  0  0  0  0  0  0  0  0  0
   15.8793    0.1185   -2.4022 C   0  0  0  0  0  0  0  0  0  0  0  0
   16.3686   -0.3303   -3.6380 C   0  0  0  0  0  0  0  0  0  0  0  0
   16.6966    0.3892   -4.3808 H   0  0  0  0  0  0  0  0  0  0  0  0
   16.4388   -1.6974   -3.9223 C   0  0  0  0  0  0  0  0  0  0  0  0
   16.8105   -2.0284   -4.8857 H   0  0  0  0  0  0  0  0  0  0  0  0
   16.0234   -2.6311   -2.9702 C   0  0  0  0  0  0  0  0  0  0  0  0
   16.0635   -3.6918   -3.1977 H   0  0  0  0  0  0  0  0  0  0  0  0
   15.5404   -2.2091   -1.7251 C   0  0  0  0  0  0  0  0  0  0  0  0
   15.0138   -3.1934   -0.7042 C   0  0  2  0  0  0  0  0  0  0  0  0
   15.3265   -4.6418   -1.0194 C   0  0  0  0  0  0  0  0  0  0  0  0
   16.5295   -5.2124   -0.5870 C   0  0  0  0  0  0  0  0  0  0  0  0
   17.2441   -4.6006   -0.0428 H   0  0  0  0  0  0  0  0  0  0  0  0
   16.8039   -6.5584   -0.8306 C   0  0  0  0  0  0  0  0  0  0  0  0
   17.7357   -6.9808   -0.4703 H   0  0  0  0  0  0  0  0  0  0  0  0
   15.8767   -7.3471   -1.5205 C   0  0  0  0  0  0  0  0  0  0  0  0
   16.0866   -8.3964   -1.7007 H   0  0  0  0  0  0  0  0  0  0  0  0
   14.6803   -6.7825   -1.9738 C   0  0  0  0  0  0  0  0  0  0  0  0
   13.9557   -7.3856   -2.5117 H   0  0  0  0  0  0  0  0  0  0  0  0
   14.4077   -5.4350   -1.7271 C   0  0  0  0  0  0  0  0  0  0  0  0
   13.4708   -5.0089   -2.0739 H   0  0  0  0  0  0  0  0  0  0  0  0
   13.5109   -2.9648   -0.5316 C   0  0  0  0  0  0  0  0  0  0  0  0
   12.6446   -3.1254   -1.3905 O   0  0  0  0  0  0  0  0  0  0  0  0
   13.2844   -2.6175    0.7785 N   0  0  0  0  0  0  0  0  0  0  0  0
   12.0397   -2.5229    1.3515 C   0  0  0  0  0  0  0  0  0  0  0  0
   11.1331   -1.6361    0.7989 C   0  0  0  0  0  0  0  0  0  0  0  0
   11.4605   -1.0223   -0.0310 H   0  0  0  0  0  0  0  0  0  0  0  0
    9.8484   -1.5569    1.3118 C   0  0  0  0  0  0  0  0  0  0  0  0
    9.1492   -0.8419    0.8943 H   0  0  0  0  0  0  0  0  0  0  0  0
    9.4511   -2.4539    2.3090 C   0  0  0  0  0  0  0  0  0  0  0  0
    8.1322   -2.4823    2.7065 C   0  0  0  0  0  0  0  0  0  0  0  0
    7.4966   -1.7676    2.2408 H   0  0  0  0  0  0  0  0  0  0  0  0
    7.6573   -3.4111    3.6288 C   0  0  0  0  0  0  0  0  0  0  0  0
    6.6056   -3.4126    3.8991 H   0  0  0  0  0  0  0  0  0  0  0  0
    8.5537   -4.3246    4.1934 C   0  0  0  0  0  0  0  0  0  0  0  0
    8.2022   -5.0712    4.9026 H   0  0  0  0  0  0  0  0  0  0  0  0
    9.9045   -4.2971    3.8099 C   0  0  0  0  0  0  0  0  0  0  0  0
   10.6215   -4.9956    4.2247 H   0  0  0  0  0  0  0  0  0  0  0  0
   10.3589   -3.3722    2.8591 C   0  0  0  0  0  0  0  0  0  0  0  0
   11.6802   -3.3568    2.4067 C   0  0  0  0  0  0  0  0  0  0  0  0
   12.4301   -4.0228    2.8174 H   0  0  0  0  0  0  0  0  0  0  0  0
   14.4703   -2.6464    1.4527 C   0  0  0  0  0  0  0  0  0  0  0  0
   14.5730   -2.4704    2.8011 N   0  0  0  0  0  0  0  0  0  0  0  0
   15.4928   -2.2448    3.1698 H   0  0  0  0  0  0  0  0  0  0  0  0
   13.7490   -2.1337    3.2931 H   0  0  0  0  0  0  0  0  0  0  0  0
   15.4646   -2.8765    0.6664 N   0  0  0  0  0  4  0  0  0  0  0  0
   16.3970   -3.1013    1.0090 H   0  0  0  0  0  0  0  0  0  0  0  0
   15.4580   -0.8329   -1.4631 C   0  0  0  0  0  0  0  0  0  0  0  0
   15.0408   -0.4971   -0.5173 H   0  0  0  0  0  0  0  0  0  0  0  0
   15.5598    1.9937   -0.7840 C   0  0  0  0  0  0  0  0  0  0  0  0
   15.4605    1.2839    0.0336 H   0  0  0  0  0  0  0  0  0  0  0  0
   15.4649    3.3621   -0.5494 C   0  0  0  0  0  0  0  0  0  0  0  0
   15.2716    3.7332    0.4502 H   0  0  0  0  0  0  0  0  0  0  0  0
  1  2  1  0
  2  3  2  0
  3  4  1  0
  4  5  1  0
  4  6  2  0
  6  7  1  0
  7  8  2  0
  8  9  1  0
  8 10  1  0
 10 11  1  0
 10 12  2  0
 12 13  1  0
 12 14  1  0
 15 14  1  6
 15 16  1  0
 16 17  2  0
 17 18  1  0
 17 19  1  0
 19 20  1  0
 19 21  2  0
 21 22  1  0
 21 23  1  0
 23 24  1  0
 23 25  2  0
 25 26  1  0
 15 27  1  0
 27 28  2  0
 27 29  1  0
 29 30  1  0
 30 31  2  0
 31 32  1  0
 31 33  1  0
 33 34  1  0
 33 35  2  0
 35 36  1  0
 36 37  1  0
 36 38  2  0
 38 39  1  0
 38 40  1  0
 40 41  1  0
 40 42  2  0
 42 43  1  0
 42 44  1  0
 44 45  2  0
 45 46  1  0
 29 47  1  0
 47 48  1  0
 48 49  1  0
 48 50  1  0
 47 51  2  0
 51 52  1  0
 14 53  2  0
 53 54  1  0
  6 55  1  0
 55 56  1  0
 55 57  2  0
 57 58  1  0
 57  2  1  0
 53  7  1  0
 51 15  1  0
 25 16  1  0
 45 30  1  0
 44 35  1  0
M  CHG  1  51   1
M  END
>  <score>  (279) 
5.53449

$$$$

     RDKit          3D

 60 64  0  0  0  0  0  0  0  0999 V2000
   15.5346    5.3106   -1.4334 H   0  0  0  0  0  0  0  0  0  0  0  0
   15.6111    4.2403   -1.6080 C   0  0  0  0  0  0  0  0  0  0  0  0
   15.8567    3.8027   -2.8530 N   0  0  0  0  0  0  0  0  0  0  0  0
   15.9283    2.4743   -3.0636 C   0  0  0  0  0  0  0  0  0  0  0  0
   16.1187    2.1243   -4.0734 H   0  0  0  0  0  0  0  0  0  0  0  0
   15.7465    1.5178   -2.0522 C   0  0  0  0  0  0  0  0  0  0  0  0
   15.7823    0.0717   -2.3534 C   0  0  0  0  0  0  0  0  0  0  0  0
   16.3048   -0.4001   -3.5674 C   0  0  0  0  0  0  0  0  0  0  0  0
   16.6913    0.3092   -4.2920 H   0  0  0  0  0  0  0  0  0  0  0  0
   16.3432   -1.7717   -3.8423 C   0  0  0  0  0  0  0  0  0  0  0  0
   16.7573   -2.1234   -4.7816 H   0  0  0  0  0  0  0  0  0  0  0  0
   15.8572   -2.6881   -2.9047 C   0  0  0  0  0  0  0  0  0  0  0  0
   15.9005   -3.7521   -3.1198 H   0  0  0  0  0  0  0  0  0  0  0  0
   15.3249   -2.2466   -1.6810 C   0  0  0  0  0  0  0  0  0  0  0  0
   14.7838   -3.2209   -0.6416 C   0  0  2  0  0  0  0  0  0  0  0  0
   15.1680   -4.6626   -0.9568 C   0  0  0  0  0  0  0  0  0  0  0  0
   16.4037   -5.1789   -0.5387 C   0  0  0  0  0  0  0  0  0  0  0  0
   17.0961   -4.5347   -0.0032 H   0  0  0  0  0  0  0  0  0  0  0  0
   16.7525   -6.5058   -0.8106 C   0  0  0  0  0  0  0  0  0  0  0  0
   17.7063   -6.8886   -0.4626 H   0  0  0  0  0  0  0  0  0  0  0  0
   15.8733   -7.3327   -1.5172 C   0  0  0  0  0  0  0  0  0  0  0  0
   16.1351   -8.3697   -1.7056 H   0  0  0  0  0  0  0  0  0  0  0  0
   14.6582   -6.8191   -1.9792 C   0  0  0  0  0  0  0  0  0  0  0  0
   13.9807   -7.4533   -2.5426 H   0  0  0  0  0  0  0  0  0  0  0  0
   14.3129   -5.4895   -1.7110 C   0  0  0  0  0  0  0  0  0  0  0  0
   13.3722   -5.1048   -2.0934 H   0  0  0  0  0  0  0  0  0  0  0  0
   13.2646   -3.0396   -0.4407 C   0  0  0  0  0  0  0  0  0  0  0  0
   12.3639   -3.4432   -1.1727 O   0  0  0  0  0  0  0  0  0  0  0  0
   13.0078   -2.4689    0.7803 N   0  0  0  0  0  0  0  0  0  0  0  0
   11.7023   -2.4917    1.3876 C   0  0  0  0  0  0  0  0  0  0  0  0
   10.9501   -2.0035    0.7514 H   0  0  0  0  0  0  0  0  0  0  0  0
   11.6822   -1.9920    2.3659 H   0  0  0  0  0  0  0  0  0  0  0  0
   11.4618   -3.9254    1.4817 N   0  0  0  0  0  0  0  0  0  0  0  0
   11.5975   -4.3685    0.5732 H   0  0  0  0  0  0  0  0  0  0  0  0
   10.2468   -4.4128    2.1807 C   0  0  0  0  0  0  0  0  0  0  0  0
   10.1718   -5.5038    2.0740 H   0  0  0  0  0  0  0  0  0  0  0  0
    8.9666   -3.7417    1.6829 C   0  0  0  0  0  0  0  0  0  0  0  0
    9.0111   -3.5428    0.6090 H   0  0  0  0  0  0  0  0  0  0  0  0
    8.1078   -4.3960    1.8878 H   0  0  0  0  0  0  0  0  0  0  0  0
    8.8441   -2.4497    2.4965 C   0  0  0  0  0  0  0  0  0  0  0  0
    7.8044   -2.1051    2.5698 H   0  0  0  0  0  0  0  0  0  0  0  0
    9.4474   -1.6586    2.0339 H   0  0  0  0  0  0  0  0  0  0  0  0
    9.4428   -2.7765    3.8649 C   0  0  0  0  0  0  0  0  0  0  0  0
    8.6554   -2.9405    4.6101 H   0  0  0  0  0  0  0  0  0  0  0  0
   10.0610   -1.9471    4.2248 H   0  0  0  0  0  0  0  0  0  0  0  0
   10.2872   -4.0494    3.6684 C   0  0  0  0  0  0  0  0  0  0  0  0
    9.8404   -4.8702    4.2401 H   0  0  0  0  0  0  0  0  0  0  0  0
   11.3188   -3.9046    4.0178 H   0  0  0  0  0  0  0  0  0  0  0  0
   14.1870   -2.5569    1.4733 C   0  0  0  0  0  0  0  0  0  0  0  0
   14.3221   -2.4412    2.8232 N   0  0  0  0  0  0  0  0  0  0  0  0
   13.5179   -2.1056    3.3489 H   0  0  0  0  0  0  0  0  0  0  0  0
   15.2577   -2.2628    3.1822 H   0  0  0  0  0  0  0  0  0  0  0  0
   15.2045   -2.8336    0.7239 N   0  0  0  0  0  4  0  0  0  0  0  0
   16.1301   -3.0405    1.1027 H   0  0  0  0  0  0  0  0  0  0  0  0
   15.2808   -0.8634   -1.4343 C   0  0  0  0  0  0  0  0  0  0  0  0
   14.8392   -0.5053   -0.5089 H   0  0  0  0  0  0  0  0  0  0  0  0
   15.5284    1.9845   -0.7515 C   0  0  0  0  0  0  0  0  0  0  0  0
   15.4292    1.2819    0.0705 H   0  0  0  0  0  0  0  0  0  0  0  0
   15.4568    3.3613   -0.5338 C   0  0  0  0  0  0  0  0  0  0  0  0
   15.2830    3.7583    0.4599 H   0  0  0  0  0  0  0  0  0  0  0  0
  1  2  1  0
  2  3  2  0
  3  4  1  0
  4  5  1  0
  4  6  2  0
  6  7  1  0
  7  8  2  0
  8  9  1  0
  8 10  1  0
 10 11  1  0
 10 12  2  0
 12 13  1  0
 12 14  1  0
 15 14  1  6
 15 16  1  0
 16 17  2  0
 17 18  1  0
 17 19  1  0
 19 20  1  0
 19 21  2  0
 21 22  1  0
 21 23  1  0
 23 24  1  0
 23 25  2  0
 25 26  1  0
 15 27  1  0
 27 28  2  0
 27 29  1  0
 29 30  1  0
 30 31  1  0
 30 32  1  0
 30 33  1  0
 33 34  1  0
 33 35  1  0
 35 36  1  0
 35 37  1  0
 37 38  1  0
 37 39  1  0
 37 40  1  0
 40 41  1  0
 40 42  1  0
 40 43  1  0
 43 44  1  0
 43 45  1  0
 43 46  1  0
 46 47  1  0
 46 48  1  0
 29 49  1  0
 49 50  1  0
 50 51  1  0
 50 52  1  0
 49 53  2  0
 53 54  1  0
 14 55  2  0
 55 56  1  0
  6 57  1  0
 57 58  1  0
 57 59  2  0
 59 60  1  0
 59  2  1  0
 55  7  1  0
 53 15  1  0
 25 16  1  0
 46 35  1  0
M  CHG  1  53   1
M  END
>  <score>  (280) 
5.53278

$$$$

     RDKit          3D

 56 60  0  0  0  0  0  0  0  0999 V2000
   15.5212    5.3274   -1.4275 H   0  0  0  0  0  0  0  0  0  0  0  0
   15.5986    4.2603   -1.6141 C   0  0  0  0  0  0  0  0  0  0  0  0
   15.8478    3.8394   -2.8633 N   0  0  0  0  0  0  0  0  0  0  0  0
   15.9172    2.5134   -3.0855 C   0  0  0  0  0  0  0  0  0  0  0  0
   16.1195    2.1711   -4.0958 H   0  0  0  0  0  0  0  0  0  0  0  0
   15.7309    1.5525   -2.0781 C   0  0  0  0  0  0  0  0  0  0  0  0
   15.7831    0.1118   -2.3745 C   0  0  0  0  0  0  0  0  0  0  0  0
   16.3206   -0.3484   -3.5825 C   0  0  0  0  0  0  0  0  0  0  0  0
   16.6975    0.3683   -4.3046 H   0  0  0  0  0  0  0  0  0  0  0  0
   16.3846   -1.7155   -3.8635 C   0  0  0  0  0  0  0  0  0  0  0  0
   16.8020   -2.0539   -4.8061 H   0  0  0  0  0  0  0  0  0  0  0  0
   15.9134   -2.6412   -2.9299 C   0  0  0  0  0  0  0  0  0  0  0  0
   15.9491   -3.7032   -3.1577 H   0  0  0  0  0  0  0  0  0  0  0  0
   15.3859   -2.2139   -1.7038 C   0  0  0  0  0  0  0  0  0  0  0  0
   14.8348   -3.2098   -0.7005 C   0  0  2  0  0  0  0  0  0  0  0  0
   15.1904   -4.6505   -1.0120 C   0  0  0  0  0  0  0  0  0  0  0  0
   16.4113   -5.1745   -0.5736 C   0  0  0  0  0  0  0  0  0  0  0  0
   17.0973   -4.5321   -0.0295 H   0  0  0  0  0  0  0  0  0  0  0  0
   16.7364   -6.5117   -0.8042 C   0  0  0  0  0  0  0  0  0  0  0  0
   17.6797   -6.8968   -0.4299 H   0  0  0  0  0  0  0  0  0  0  0  0
   15.8444   -7.3387   -1.4961 C   0  0  0  0  0  0  0  0  0  0  0  0
   16.0940   -8.3821   -1.6667 H   0  0  0  0  0  0  0  0  0  0  0  0
   14.6311   -6.8207   -1.9632 C   0  0  0  0  0  0  0  0  0  0  0  0
   13.9342   -7.4555   -2.5027 H   0  0  0  0  0  0  0  0  0  0  0  0
   14.3071   -5.4816   -1.7231 C   0  0  0  0  0  0  0  0  0  0  0  0
   13.3583   -5.0927   -2.0817 H   0  0  0  0  0  0  0  0  0  0  0  0
   13.3201   -3.0186   -0.5689 C   0  0  0  0  0  0  0  0  0  0  0  0
   12.4469   -3.2171   -1.4057 O   0  0  0  0  0  0  0  0  0  0  0  0
   13.0271   -2.7476    0.7297 N   0  0  0  0  0  0  0  0  0  0  0  0
   11.7469   -2.6128    1.1517 C   0  0  0  0  0  0  0  0  0  0  0  0
   10.9148   -2.2953    0.3174 O   0  0  0  0  0  0  0  0  0  0  0  0
   11.4161   -2.8349    2.4613 N   0  0  0  0  0  0  0  0  0  0  0  0
   12.1821   -3.1123    3.0650 H   0  0  0  0  0  0  0  0  0  0  0  0
   10.1171   -3.0815    2.9140 C   0  0  0  0  0  0  0  0  0  0  0  0
    9.9305   -3.3045    4.2721 C   0  0  0  0  0  0  0  0  0  0  0  0
   10.8099   -3.2289    4.9115 H   0  0  0  0  0  0  0  0  0  0  0  0
    8.6534   -3.6242    4.7649 C   0  0  0  0  0  0  0  0  0  0  0  0
    8.4741   -3.7882    5.8190 H   0  0  0  0  0  0  0  0  0  0  0  0
    7.5600   -3.7338    3.9104 C   0  0  0  0  0  0  0  0  0  0  0  0
    5.9890   -4.1198    4.5715 Cl  0  0  0  0  0  0  0  0  0  0  0  0
    7.7564   -3.5535    2.5410 C   0  0  0  0  0  0  0  0  0  0  0  0
    6.9227   -3.6838    1.8642 H   0  0  0  0  0  0  0  0  0  0  0  0
    9.0249   -3.2211    2.0416 C   0  0  0  0  0  0  0  0  0  0  0  0
    9.1720   -3.0971    0.9736 H   0  0  0  0  0  0  0  0  0  0  0  0
   14.1749   -2.7069    1.4471 C   0  0  0  0  0  0  0  0  0  0  0  0
   14.2894   -2.4706    2.7750 N   0  0  0  0  0  0  0  0  0  0  0  0
   15.2305   -2.2484    3.0979 H   0  0  0  0  0  0  0  0  0  0  0  0
   13.4900   -2.0587    3.2562 H   0  0  0  0  0  0  0  0  0  0  0  0
   15.2087   -2.9059    0.6993 N   0  0  0  0  0  4  0  0  0  0  0  0
   16.1604   -2.9938    1.0609 H   0  0  0  0  0  0  0  0  0  0  0  0
   15.3035   -0.8319   -1.4522 C   0  0  0  0  0  0  0  0  0  0  0  0
   14.8545   -0.4781   -0.5292 H   0  0  0  0  0  0  0  0  0  0  0  0
   15.5043    2.0022   -0.7779 C   0  0  0  0  0  0  0  0  0  0  0  0
   15.3951    1.2871    0.0319 H   0  0  0  0  0  0  0  0  0  0  0  0
   15.4310    3.3721   -0.5493 C   0  0  0  0  0  0  0  0  0  0  0  0
   15.2369    3.7482    0.4475 H   0  0  0  0  0  0  0  0  0  0  0  0
  1  2  1  0
  2  3  2  0
  3  4  1  0
  4  5  1  0
  4  6  2  0
  6  7  1  0
  7  8  2  0
  8  9  1  0
  8 10  1  0
 10 11  1  0
 10 12  2  0
 12 13  1  0
 12 14  1  0
 15 14  1  6
 15 16  1  0
 16 17  2  0
 17 18  1  0
 17 19  1  0
 19 20  1  0
 19 21  2  0
 21 22  1  0
 21 23  1  0
 23 24  1  0
 23 25  2  0
 25 26  1  0
 15 27  1  0
 27 28  2  0
 27 29  1  0
 29 30  1  0
 30 31  2  0
 30 32  1  0
 32 33  1  0
 32 34  1  0
 34 35  2  0
 35 36  1  0
 35 37  1  0
 37 38  1  0
 37 39  2  0
 39 40  1  0
 39 41  1  0
 41 42  1  0
 41 43  2  0
 43 44  1  0
 29 45  1  0
 45 46  1  0
 46 47  1  0
 46 48  1  0
 45 49  2  0
 49 50  1  0
 14 51  2  0
 51 52  1  0
  6 53  1  0
 53 54  1  0
 53 55  2  0
 55 56  1  0
 55  2  1  0
 51  7  1  0
 49 15  1  0
 25 16  1  0
 43 34  1  0
M  CHG  1  49   1
M  END
>  <score>  (281) 
5.53222

$$$$

     RDKit          3D

 57 61  0  0  0  0  0  0  0  0999 V2000
   15.5101    5.3281   -1.3944 H   0  0  0  0  0  0  0  0  0  0  0  0
   15.6106    4.2676   -1.6051 C   0  0  0  0  0  0  0  0  0  0  0  0
   15.8675    3.8778   -2.8628 N   0  0  0  0  0  0  0  0  0  0  0  0
   15.9873    2.5603   -3.1090 C   0  0  0  0  0  0  0  0  0  0  0  0
   16.1851    2.2507   -4.1306 H   0  0  0  0  0  0  0  0  0  0  0  0
   15.8560    1.5739   -2.1167 C   0  0  0  0  0  0  0  0  0  0  0  0
   15.9870    0.1436   -2.4462 C   0  0  0  0  0  0  0  0  0  0  0  0
   16.4473   -0.2675   -3.7041 C   0  0  0  0  0  0  0  0  0  0  0  0
   16.7223    0.4793   -4.4412 H   0  0  0  0  0  0  0  0  0  0  0  0
   16.5539   -1.6273   -4.0172 C   0  0  0  0  0  0  0  0  0  0  0  0
   16.9109   -1.9256   -4.9968 H   0  0  0  0  0  0  0  0  0  0  0  0
   16.1776   -2.5955   -3.0798 C   0  0  0  0  0  0  0  0  0  0  0  0
   16.2200   -3.6502   -3.3351 H   0  0  0  0  0  0  0  0  0  0  0  0
   15.7060   -2.2122   -1.8174 C   0  0  0  0  0  0  0  0  0  0  0  0
   15.1284   -3.2199   -0.8401 C   0  0  2  0  0  0  0  0  0  0  0  0
   15.4556   -4.6829   -1.1259 C   0  0  0  0  0  0  0  0  0  0  0  0
   16.6418   -5.2660   -0.6515 C   0  0  0  0  0  0  0  0  0  0  0  0
   17.3588   -4.6579   -0.1081 H   0  0  0  0  0  0  0  0  0  0  0  0
   16.8958   -6.6306   -0.8366 C   0  0  0  0  0  0  0  0  0  0  0  0
   17.8107   -7.0669   -0.4453 H   0  0  0  0  0  0  0  0  0  0  0  0
   15.9650   -7.4325   -1.5063 C   0  0  0  0  0  0  0  0  0  0  0  0
   16.1519   -8.4938   -1.6404 H   0  0  0  0  0  0  0  0  0  0  0  0
   14.7882   -6.8650   -2.0030 C   0  0  0  0  0  0  0  0  0  0  0  0
   14.0588   -7.4820   -2.5210 H   0  0  0  0  0  0  0  0  0  0  0  0
   14.5400   -5.5010   -1.8164 C   0  0  0  0  0  0  0  0  0  0  0  0
   13.6110   -5.0826   -2.1906 H   0  0  0  0  0  0  0  0  0  0  0  0
   13.6071   -3.0011   -0.7835 C   0  0  0  0  0  0  0  0  0  0  0  0
   12.8098   -3.1495   -1.7086 O   0  0  0  0  0  0  0  0  0  0  0  0
   13.2628   -2.6749    0.5024 N   0  0  0  0  0  0  0  0  0  0  0  0
   11.9811   -2.7559    1.0093 C   0  0  0  0  0  0  0  0  0  0  0  0
   11.0578   -1.7698    0.6968 C   0  0  0  0  0  0  0  0  0  0  0  0
   11.3205   -0.9942   -0.0165 H   0  0  0  0  0  0  0  0  0  0  0  0
    9.8270   -1.7612    1.3487 C   0  0  0  0  0  0  0  0  0  0  0  0
    9.1509   -0.9343    1.1562 H   0  0  0  0  0  0  0  0  0  0  0  0
    9.4789   -2.7792    2.2620 C   0  0  0  0  0  0  0  0  0  0  0  0
    8.2031   -2.6752    2.9820 C   0  0  0  0  0  0  0  0  0  0  0  0
    7.6497   -1.5815    3.0051 O   0  0  0  0  0  0  0  0  0  0  0  0
    7.5066   -3.8498    3.6704 C   0  0  0  0  0  0  0  0  0  0  0  0
    6.4235   -3.6889    3.6429 H   0  0  0  0  0  0  0  0  0  0  0  0
    7.7396   -4.7961    3.1696 H   0  0  0  0  0  0  0  0  0  0  0  0
    7.8153   -3.9167    4.7175 H   0  0  0  0  0  0  0  0  0  0  0  0
   10.3851   -3.8348    2.4716 C   0  0  0  0  0  0  0  0  0  0  0  0
   10.1607   -4.6639    3.1361 H   0  0  0  0  0  0  0  0  0  0  0  0
   11.6357   -3.8126    1.8473 C   0  0  0  0  0  0  0  0  0  0  0  0
   12.3446   -4.6201    1.9996 H   0  0  0  0  0  0  0  0  0  0  0  0
   14.4077   -2.6906    1.2641 C   0  0  0  0  0  0  0  0  0  0  0  0
   14.4457   -2.5057    2.6161 N   0  0  0  0  0  0  0  0  0  0  0  0
   13.6111   -2.1087    3.0459 H   0  0  0  0  0  0  0  0  0  0  0  0
   15.3561   -2.3198    3.0360 H   0  0  0  0  0  0  0  0  0  0  0  0
   15.4706   -2.9001    0.5612 N   0  0  0  0  0  4  0  0  0  0  0  0
   16.3935   -3.0653    0.9667 H   0  0  0  0  0  0  0  0  0  0  0  0
   15.6279   -0.8410   -1.5156 C   0  0  0  0  0  0  0  0  0  0  0  0
   15.2417   -0.5324   -0.5489 H   0  0  0  0  0  0  0  0  0  0  0  0
   15.5925    1.9902   -0.8089 C   0  0  0  0  0  0  0  0  0  0  0  0
   15.4950    1.2610   -0.0078 H   0  0  0  0  0  0  0  0  0  0  0  0
   15.4671    3.3543   -0.5580 C   0  0  0  0  0  0  0  0  0  0  0  0
   15.2598    3.7093    0.4437 H   0  0  0  0  0  0  0  0  0  0  0  0
  1  2  1  0
  2  3  2  0
  3  4  1  0
  4  5  1  0
  4  6  2  0
  6  7  1  0
  7  8  2  0
  8  9  1  0
  8 10  1  0
 10 11  1  0
 10 12  2  0
 12 13  1  0
 12 14  1  0
 15 14  1  6
 15 16  1  0
 16 17  2  0
 17 18  1  0
 17 19  1  0
 19 20  1  0
 19 21  2  0
 21 22  1  0
 21 23  1  0
 23 24  1  0
 23 25  2  0
 25 26  1  0
 15 27  1  0
 27 28  2  0
 27 29  1  0
 29 30  1  0
 30 31  2  0
 31 32  1  0
 31 33  1  0
 33 34  1  0
 33 35  2  0
 35 36  1  0
 36 37  2  0
 36 38  1  0
 38 39  1  0
 38 40  1  0
 38 41  1  0
 35 42  1  0
 42 43  1  0
 42 44  2  0
 44 45  1  0
 29 46  1  0
 46 47  1  0
 47 48  1  0
 47 49  1  0
 46 50  2  0
 50 51  1  0
 14 52  2  0
 52 53  1  0
  6 54  1  0
 54 55  1  0
 54 56  2  0
 56 57  1  0
 56  2  1  0
 52  7  1  0
 50 15  1  0
 25 16  1  0
 44 30  1  0
M  CHG  1  50   1
M  END
>  <score>  (282) 
5.5319

$$$$

     RDKit          3D

 53 57  0  0  0  0  0  0  0  0999 V2000
    7.8215   -2.5494    3.6271 H   0  0  0  0  0  0  0  0  0  0  0  0
    7.8989   -1.9734    2.8503 O   0  0  0  0  0  0  0  0  0  0  0  0
    9.1465   -2.1372    2.3447 C   0  0  0  0  0  0  0  0  0  0  0  0
    9.5319   -1.4036    1.2305 C   0  0  0  0  0  0  0  0  0  0  0  0
    8.8186   -0.6941    0.8184 H   0  0  0  0  0  0  0  0  0  0  0  0
   10.8145   -1.5909    0.6913 C   0  0  0  0  0  0  0  0  0  0  0  0
   11.1306   -1.0163   -0.1704 H   0  0  0  0  0  0  0  0  0  0  0  0
   11.7108   -2.4970    1.2739 C   0  0  0  0  0  0  0  0  0  0  0  0
   12.9884   -2.6930    0.7189 N   0  0  0  0  0  0  0  0  0  0  0  0
   13.2732   -3.0151   -0.5948 C   0  0  0  0  0  0  0  0  0  0  0  0
   12.4339   -3.1111   -1.4908 O   0  0  0  0  0  0  0  0  0  0  0  0
   14.7945   -3.2364   -0.7685 C   0  0  1  0  0  0  0  0  0  0  0  0
   15.1683   -4.6991   -1.0657 C   0  0  0  0  0  0  0  0  0  0  0  0
   16.3900   -5.2224   -0.6033 C   0  0  0  0  0  0  0  0  0  0  0  0
   17.0710   -4.5744   -0.0591 H   0  0  0  0  0  0  0  0  0  0  0  0
   16.7324   -6.5669   -0.8020 C   0  0  0  0  0  0  0  0  0  0  0  0
   17.6711   -6.9526   -0.4153 H   0  0  0  0  0  0  0  0  0  0  0  0
   15.8567   -7.4184   -1.4793 C   0  0  0  0  0  0  0  0  0  0  0  0
   16.1088   -8.4671   -1.6143 H   0  0  0  0  0  0  0  0  0  0  0  0
   14.6451   -6.9185   -1.9649 C   0  0  0  0  0  0  0  0  0  0  0  0
   13.9648   -7.5852   -2.4878 H   0  0  0  0  0  0  0  0  0  0  0  0
   14.3041   -5.5691   -1.7632 C   0  0  0  0  0  0  0  0  0  0  0  0
   13.3528   -5.2017   -2.1348 H   0  0  0  0  0  0  0  0  0  0  0  0
   15.3726   -2.2315   -1.7718 C   0  0  0  0  0  0  0  0  0  0  0  0
   15.9385   -2.6366   -2.9938 C   0  0  0  0  0  0  0  0  0  0  0  0
   15.9986   -3.6948   -3.2345 H   0  0  0  0  0  0  0  0  0  0  0  0
   16.4212   -1.6865   -3.9041 C   0  0  0  0  0  0  0  0  0  0  0  0
   16.8647   -2.0044   -4.8417 H   0  0  0  0  0  0  0  0  0  0  0  0
   16.3334   -0.3197   -3.6107 C   0  0  0  0  0  0  0  0  0  0  0  0
   16.7146    0.4201   -4.3072 H   0  0  0  0  0  0  0  0  0  0  0  0
   15.7746    0.1217   -2.4052 C   0  0  0  0  0  0  0  0  0  0  0  0
   15.6945    1.5695   -2.0969 C   0  0  0  0  0  0  0  0  0  0  0  0
   15.8766    2.5446   -3.0928 C   0  0  0  0  0  0  0  0  0  0  0  0
   16.0657    2.2093   -4.1072 H   0  0  0  0  0  0  0  0  0  0  0  0
   15.8232    3.8711   -2.8572 N   0  0  0  0  0  0  0  0  0  0  0  0
   15.5870    4.2871   -1.6034 C   0  0  0  0  0  0  0  0  0  0  0  0
   15.5555    5.3537   -1.3944 H   0  0  0  0  0  0  0  0  0  0  0  0
   15.3811    3.3886   -0.5550 C   0  0  0  0  0  0  0  0  0  0  0  0
   15.1798    3.7734    0.4372 H   0  0  0  0  0  0  0  0  0  0  0  0
   15.4427    2.0144   -0.7988 C   0  0  0  0  0  0  0  0  0  0  0  0
   15.3274    1.2818   -0.0069 H   0  0  0  0  0  0  0  0  0  0  0  0
   15.3025   -0.8474   -1.5005 C   0  0  0  0  0  0  0  0  0  0  0  0
   14.8612   -0.5117   -0.5673 H   0  0  0  0  0  0  0  0  0  0  0  0
   15.2063   -2.9130    0.6152 N   0  0  0  0  0  4  0  0  0  0  0  0
   16.1784   -2.9382    0.9373 H   0  0  0  0  0  0  0  0  0  0  0  0
   14.1980   -2.6573    1.3868 C   0  0  0  0  0  0  0  0  0  0  0  0
   14.3943   -2.3702    2.7081 N   0  0  0  0  0  0  0  0  0  0  0  0
   15.3446   -2.3494    3.0770 H   0  0  0  0  0  0  0  0  0  0  0  0
   13.6130   -2.0414    3.2728 H   0  0  0  0  0  0  0  0  0  0  0  0
   11.3103   -3.2088    2.4102 C   0  0  0  0  0  0  0  0  0  0  0  0
   12.0095   -3.9038    2.8580 H   0  0  0  0  0  0  0  0  0  0  0  0
   10.0217   -3.0422    2.9408 C   0  0  0  0  0  0  0  0  0  0  0  0
    9.6907   -3.6014    3.8115 H   0  0  0  0  0  0  0  0  0  0  0  0
  1  2  1  0
  2  3  1  0
  3  4  2  0
  4  5  1  0
  4  6  1  0
  6  7  1  0
  6  8  2  0
  8  9  1  0
  9 10  1  0
 10 11  2  0
 10 12  1  0
 12 13  1  6
 13 14  2  0
 14 15  1  0
 14 16  1  0
 16 17  1  0
 16 18  2  0
 18 19  1  0
 18 20  1  0
 20 21  1  0
 20 22  2  0
 22 23  1  0
 12 24  1  0
 24 25  2  0
 25 26  1  0
 25 27  1  0
 27 28  1  0
 27 29  2  0
 29 30  1  0
 29 31  1  0
 31 32  1  0
 32 33  2  0
 33 34  1  0
 33 35  1  0
 35 36  2  0
 36 37  1  0
 36 38  1  0
 38 39  1  0
 38 40  2  0
 40 41  1  0
 31 42  2  0
 42 43  1  0
 12 44  1  0
 44 45  1  0
 44 46  2  0
 46 47  1  0
 47 48  1  0
 47 49  1  0
  8 50  1  0
 50 51  1  0
 50 52  2  0
 52 53  1  0
 52  3  1  0
 46  9  1  0
 22 13  1  0
 42 24  1  0
 40 32  1  0
M  CHG  1  44   1
M  END
>  <score>  (283) 
5.5317

$$$$

     RDKit          3D

 58 62  0  0  0  0  0  0  0  0999 V2000
   15.5372    5.3304   -1.4102 H   0  0  0  0  0  0  0  0  0  0  0  0
   15.5863    4.2658   -1.6118 C   0  0  0  0  0  0  0  0  0  0  0  0
   15.8361    3.8553   -2.8639 N   0  0  0  0  0  0  0  0  0  0  0  0
   15.8930    2.5314   -3.0987 C   0  0  0  0  0  0  0  0  0  0  0  0
   16.0884    2.2024   -4.1149 H   0  0  0  0  0  0  0  0  0  0  0  0
   15.7073    1.5621   -2.0970 C   0  0  0  0  0  0  0  0  0  0  0  0
   15.7856    0.1230   -2.3983 C   0  0  0  0  0  0  0  0  0  0  0  0
   16.3325   -0.3139   -3.6104 C   0  0  0  0  0  0  0  0  0  0  0  0
   16.7056    0.4186   -4.3190 H   0  0  0  0  0  0  0  0  0  0  0  0
   16.4140   -1.6778   -3.9033 C   0  0  0  0  0  0  0  0  0  0  0  0
   16.8546   -2.0004   -4.8404 H   0  0  0  0  0  0  0  0  0  0  0  0
   15.9449   -2.6207   -2.9836 C   0  0  0  0  0  0  0  0  0  0  0  0
   16.0024   -3.6777   -3.2194 H   0  0  0  0  0  0  0  0  0  0  0  0
   15.4053   -2.2182   -1.7548 C   0  0  0  0  0  0  0  0  0  0  0  0
   14.8414   -3.2331   -0.7706 C   0  0  2  0  0  0  0  0  0  0  0  0
   15.2046   -4.6871   -1.0590 C   0  0  0  0  0  0  0  0  0  0  0  0
   16.4180   -5.2147   -0.5949 C   0  0  0  0  0  0  0  0  0  0  0  0
   17.1033   -4.5700   -0.0534 H   0  0  0  0  0  0  0  0  0  0  0  0
   16.7425   -6.5596   -0.7972 C   0  0  0  0  0  0  0  0  0  0  0  0
   17.6800   -6.9499   -0.4137 H   0  0  0  0  0  0  0  0  0  0  0  0
   15.8565   -7.3976   -1.4805 C   0  0  0  0  0  0  0  0  0  0  0  0
   16.1009   -8.4456   -1.6248 H   0  0  0  0  0  0  0  0  0  0  0  0
   14.6477   -6.8864   -1.9630 C   0  0  0  0  0  0  0  0  0  0  0  0
   13.9549   -7.5403   -2.4844 H   0  0  0  0  0  0  0  0  0  0  0  0
   14.3223   -5.5399   -1.7520 C   0  0  0  0  0  0  0  0  0  0  0  0
   13.3697   -5.1628   -2.1131 H   0  0  0  0  0  0  0  0  0  0  0  0
   13.3216   -3.0509   -0.6751 C   0  0  0  0  0  0  0  0  0  0  0  0
   12.4832   -3.2261   -1.5651 O   0  0  0  0  0  0  0  0  0  0  0  0
   12.9870   -2.7385    0.6217 N   0  0  0  0  0  0  0  0  0  0  0  0
   11.6648   -3.0393    1.1292 C   0  0  1  0  0  0  0  0  0  0  0  0
   10.9299   -2.7377    0.3787 H   0  0  0  0  0  0  0  0  0  0  0  0
   11.5477   -4.5158    1.3558 C   0  0  0  0  0  0  0  0  0  0  0  0
   12.3188   -5.1392    2.3475 C   0  0  0  0  0  0  0  0  0  0  0  0
   12.9801   -4.5416    2.9685 H   0  0  0  0  0  0  0  0  0  0  0  0
   12.2337   -6.5158    2.5418 C   0  0  0  0  0  0  0  0  0  0  0  0
   12.8699   -6.9900    3.2813 H   0  0  0  0  0  0  0  0  0  0  0  0
   11.3362   -7.2687    1.7802 C   0  0  0  0  0  0  0  0  0  0  0  0
   11.2606   -8.3355    1.9535 H   0  0  0  0  0  0  0  0  0  0  0  0
   10.5363   -6.6479    0.8109 C   0  0  0  0  0  0  0  0  0  0  0  0
    9.8339   -7.2267    0.2195 H   0  0  0  0  0  0  0  0  0  0  0  0
   10.6502   -5.2721    0.5939 C   0  0  0  0  0  0  0  0  0  0  0  0
   10.0418   -4.7799   -0.1605 H   0  0  0  0  0  0  0  0  0  0  0  0
   11.3645   -2.3152    2.4120 C   0  0  0  0  0  0  0  0  0  0  0  0
   11.9261   -1.3799    2.4701 H   0  0  0  0  0  0  0  0  0  0  0  0
   10.2986   -2.1117    2.4767 H   0  0  0  0  0  0  0  0  0  0  0  0
   11.6340   -2.9590    3.2513 H   0  0  0  0  0  0  0  0  0  0  0  0
   14.1577   -2.7085    1.3573 C   0  0  0  0  0  0  0  0  0  0  0  0
   14.3437   -2.4748    2.6917 N   0  0  0  0  0  0  0  0  0  0  0  0
   15.3187   -2.3770    2.9791 H   0  0  0  0  0  0  0  0  0  0  0  0
   13.6573   -1.8835    3.1580 H   0  0  0  0  0  0  0  0  0  0  0  0
   15.1989   -2.9114    0.6278 N   0  0  0  0  0  4  0  0  0  0  0  0
   16.1479   -2.9854    1.0090 H   0  0  0  0  0  0  0  0  0  0  0  0
   15.3192   -0.8380   -1.4838 C   0  0  0  0  0  0  0  0  0  0  0  0
   14.8697   -0.4997   -0.5545 H   0  0  0  0  0  0  0  0  0  0  0  0
   15.4619    2.0017   -0.7970 C   0  0  0  0  0  0  0  0  0  0  0  0
   15.3549    1.2784    0.0052 H   0  0  0  0  0  0  0  0  0  0  0  0
   15.3920    3.3712   -0.5581 C   0  0  0  0  0  0  0  0  0  0  0  0
   15.2018    3.7485    0.4383 H   0  0  0  0  0  0  0  0  0  0  0  0
  1  2  1  0
  2  3  2  0
  3  4  1  0
  4  5  1  0
  4  6  2  0
  6  7  1  0
  7  8  2  0
  8  9  1  0
  8 10  1  0
 10 11  1  0
 10 12  2  0
 12 13  1  0
 12 14  1  0
 15 14  1  6
 15 16  1  0
 16 17  2  0
 17 18  1  0
 17 19  1  0
 19 20  1  0
 19 21  2  0
 21 22  1  0
 21 23  1  0
 23 24  1  0
 23 25  2  0
 25 26  1  0
 15 27  1  0
 27 28  2  0
 27 29  1  0
 29 30  1  0
 30 31  1  6
 30 32  1  0
 32 33  2  0
 33 34  1  0
 33 35  1  0
 35 36  1  0
 35 37  2  0
 37 38  1  0
 37 39  1  0
 39 40  1  0
 39 41  2  0
 41 42  1  0
 30 43  1  0
 43 44  1  0
 43 45  1  0
 43 46  1  0
 29 47  1  0
 47 48  1  0
 48 49  1  0
 48 50  1  0
 47 51  2  0
 51 52  1  0
 14 53  2  0
 53 54  1  0
  6 55  1  0
 55 56  1  0
 55 57  2  0
 57 58  1  0
 57  2  1  0
 53  7  1  0
 51 15  1  0
 25 16  1  0
 41 32  1  0
M  CHG  1  51   1
M  END
>  <score>  (284) 
5.53109

$$$$

     RDKit          3D

 55 59  0  0  0  0  0  0  0  0999 V2000
   15.5481    5.3459   -1.3962 H   0  0  0  0  0  0  0  0  0  0  0  0
   15.5867    4.2797   -1.6083 C   0  0  0  0  0  0  0  0  0  0  0  0
   15.8240    3.8652   -2.8633 N   0  0  0  0  0  0  0  0  0  0  0  0
   15.8834    2.5382   -3.0961 C   0  0  0  0  0  0  0  0  0  0  0  0
   16.0804    2.1915   -4.1056 H   0  0  0  0  0  0  0  0  0  0  0  0
   15.7004    1.5669   -2.0994 C   0  0  0  0  0  0  0  0  0  0  0  0
   15.7723    0.1226   -2.4031 C   0  0  0  0  0  0  0  0  0  0  0  0
   16.3272   -0.3169   -3.6076 C   0  0  0  0  0  0  0  0  0  0  0  0
   16.7045    0.4339   -4.2937 H   0  0  0  0  0  0  0  0  0  0  0  0
   16.4169   -1.6833   -3.8994 C   0  0  0  0  0  0  0  0  0  0  0  0
   16.8624   -2.0024   -4.8356 H   0  0  0  0  0  0  0  0  0  0  0  0
   15.9348   -2.6320   -2.9872 C   0  0  0  0  0  0  0  0  0  0  0  0
   15.9932   -3.6921   -3.2197 H   0  0  0  0  0  0  0  0  0  0  0  0
   15.3718   -2.2251   -1.7669 C   0  0  0  0  0  0  0  0  0  0  0  0
   14.8032   -3.2343   -0.7655 C   0  0  2  0  0  0  0  0  0  0  0  0
   15.1765   -4.6927   -1.0658 C   0  0  0  0  0  0  0  0  0  0  0  0
   16.3958   -5.2147   -0.6027 C   0  0  0  0  0  0  0  0  0  0  0  0
   17.0719   -4.5649   -0.0533 H   0  0  0  0  0  0  0  0  0  0  0  0
   16.7352   -6.5595   -0.8034 C   0  0  0  0  0  0  0  0  0  0  0  0
   17.6693   -6.9516   -0.4128 H   0  0  0  0  0  0  0  0  0  0  0  0
   15.8572   -7.4074   -1.4832 C   0  0  0  0  0  0  0  0  0  0  0  0
   16.1019   -8.4580   -1.6159 H   0  0  0  0  0  0  0  0  0  0  0  0
   14.6460   -6.9053   -1.9668 C   0  0  0  0  0  0  0  0  0  0  0  0
   13.9618   -7.5695   -2.4873 H   0  0  0  0  0  0  0  0  0  0  0  0
   14.3075   -5.5569   -1.7606 C   0  0  0  0  0  0  0  0  0  0  0  0
   13.3543   -5.1825   -2.1198 H   0  0  0  0  0  0  0  0  0  0  0  0
   13.2839   -3.0216   -0.6005 C   0  0  0  0  0  0  0  0  0  0  0  0
   12.4326   -3.1158   -1.4849 O   0  0  0  0  0  0  0  0  0  0  0  0
   13.0083   -2.7005    0.7137 N   0  0  0  0  0  0  0  0  0  0  0  0
   11.7440   -2.4690    1.2595 C   0  0  0  0  0  0  0  0  0  0  0  0
   11.3363   -3.1668    2.3948 C   0  0  0  0  0  0  0  0  0  0  0  0
   12.0268   -3.8741    2.8440 H   0  0  0  0  0  0  0  0  0  0  0  0
   10.0575   -2.9549    2.9284 C   0  0  0  0  0  0  0  0  0  0  0  0
    9.7480   -3.5172    3.8099 H   0  0  0  0  0  0  0  0  0  0  0  0
    9.1946   -2.0189    2.3323 C   0  0  0  0  0  0  0  0  0  0  0  0
    8.2204   -1.8867    2.7965 H   0  0  0  0  0  0  0  0  0  0  0  0
    9.5904   -1.2855    1.1850 C   0  0  0  0  0  0  0  0  0  0  0  0
    8.7033   -0.2381    0.5193 C   0  0  0  0  0  0  0  0  0  0  0  0
    7.3957   -0.5494    0.6696 F   0  0  0  0  0  0  0  0  0  0  0  0
    8.9584   -0.1689   -0.8149 F   0  0  0  0  0  0  0  0  0  0  0  0
    8.9164    0.9832    1.0667 F   0  0  0  0  0  0  0  0  0  0  0  0
   10.8804   -1.5429    0.6696 C   0  0  0  0  0  0  0  0  0  0  0  0
   11.2566   -1.0093   -0.1972 H   0  0  0  0  0  0  0  0  0  0  0  0
   14.2087   -2.6625    1.3888 C   0  0  0  0  0  0  0  0  0  0  0  0
   14.3964   -2.3742    2.7113 N   0  0  0  0  0  0  0  0  0  0  0  0
   15.3490   -2.3287    3.0715 H   0  0  0  0  0  0  0  0  0  0  0  0
   13.6139   -2.0491    3.2759 H   0  0  0  0  0  0  0  0  0  0  0  0
   15.2136   -2.9189    0.6201 N   0  0  0  0  0  4  0  0  0  0  0  0
   16.1818   -2.9604    0.9544 H   0  0  0  0  0  0  0  0  0  0  0  0
   15.3003   -0.8416   -1.4957 C   0  0  0  0  0  0  0  0  0  0  0  0
   14.8632   -0.4960   -0.5636 H   0  0  0  0  0  0  0  0  0  0  0  0
   15.4554    2.0063   -0.8020 C   0  0  0  0  0  0  0  0  0  0  0  0
   15.3500    1.2616   -0.0195 H   0  0  0  0  0  0  0  0  0  0  0  0
   15.3885    3.3801   -0.5587 C   0  0  0  0  0  0  0  0  0  0  0  0
   15.1854    3.7650    0.4326 H   0  0  0  0  0  0  0  0  0  0  0  0
  1  2  1  0
  2  3  2  0
  3  4  1  0
  4  5  1  0
  4  6  2  0
  6  7  1  0
  7  8  2  0
  8  9  1  0
  8 10  1  0
 10 11  1  0
 10 12  2  0
 12 13  1  0
 12 14  1  0
 15 14  1  6
 15 16  1  0
 16 17  2  0
 17 18  1  0
 17 19  1  0
 19 20  1  0
 19 21  2  0
 21 22  1  0
 21 23  1  0
 23 24  1  0
 23 25  2  0
 25 26  1  0
 15 27  1  0
 27 28  2  0
 27 29  1  0
 29 30  1  0
 30 31  2  0
 31 32  1  0
 31 33  1  0
 33 34  1  0
 33 35  2  0
 35 36  1  0
 35 37  1  0
 37 38  1  0
 38 39  1  0
 38 40  1  0
 38 41  1  0
 37 42  2  0
 42 43  1  0
 29 44  1  0
 44 45  1  0
 45 46  1  0
 45 47  1  0
 44 48  2  0
 48 49  1  0
 14 50  2  0
 50 51  1  0
  6 52  1  0
 52 53  1  0
 52 54  2  0
 54 55  1  0
 54  2  1  0
 50  7  1  0
 48 15  1  0
 25 16  1  0
 42 30  1  0
M  CHG  1  48   1
M  END
>  <score>  (285) 
5.53109

$$$$

     RDKit          3D

 57 61  0  0  0  0  0  0  0  0999 V2000
   15.5640    5.3820   -1.3964 H   0  0  0  0  0  0  0  0  0  0  0  0
   15.6816    4.3224   -1.6005 C   0  0  0  0  0  0  0  0  0  0  0  0
   15.9643    3.9331   -2.8530 N   0  0  0  0  0  0  0  0  0  0  0  0
   16.0979    2.6158   -3.0945 C   0  0  0  0  0  0  0  0  0  0  0  0
   16.3093    2.2989   -4.1109 H   0  0  0  0  0  0  0  0  0  0  0  0
   15.9614    1.6318   -2.1029 C   0  0  0  0  0  0  0  0  0  0  0  0
   16.0926    0.2020   -2.4303 C   0  0  0  0  0  0  0  0  0  0  0  0
   16.5374   -0.2327   -3.6870 C   0  0  0  0  0  0  0  0  0  0  0  0
   16.8161    0.4984   -4.4382 H   0  0  0  0  0  0  0  0  0  0  0  0
   16.6035   -1.5987   -3.9860 C   0  0  0  0  0  0  0  0  0  0  0  0
   16.9357   -1.9154   -4.9685 H   0  0  0  0  0  0  0  0  0  0  0  0
   16.2011   -2.5448   -3.0367 C   0  0  0  0  0  0  0  0  0  0  0  0
   16.2057   -3.6006   -3.2896 H   0  0  0  0  0  0  0  0  0  0  0  0
   15.7566   -2.1331   -1.7721 C   0  0  0  0  0  0  0  0  0  0  0  0
   15.1451   -3.0909   -0.7688 C   0  0  2  0  0  0  0  0  0  0  0  0
   15.4092   -4.5637   -1.0649 C   0  0  0  0  0  0  0  0  0  0  0  0
   16.5908   -5.1749   -0.6228 C   0  0  0  0  0  0  0  0  0  0  0  0
   17.3153   -4.5958   -0.0596 H   0  0  0  0  0  0  0  0  0  0  0  0
   16.8393   -6.5253   -0.8813 C   0  0  0  0  0  0  0  0  0  0  0  0
   17.7498   -6.9848   -0.5138 H   0  0  0  0  0  0  0  0  0  0  0  0
   15.9095   -7.2852   -1.5978 C   0  0  0  0  0  0  0  0  0  0  0  0
   16.0950   -8.3348   -1.8053 H   0  0  0  0  0  0  0  0  0  0  0  0
   14.7330   -6.6878   -2.0607 C   0  0  0  0  0  0  0  0  0  0  0  0
   14.0025   -7.2668   -2.6190 H   0  0  0  0  0  0  0  0  0  0  0  0
   14.4849   -5.3345   -1.7969 C   0  0  0  0  0  0  0  0  0  0  0  0
   13.5662   -4.8808   -2.1586 H   0  0  0  0  0  0  0  0  0  0  0  0
   13.6525   -2.7466   -0.6933 C   0  0  0  0  0  0  0  0  0  0  0  0
   12.8138   -2.9627   -1.5681 O   0  0  0  0  0  0  0  0  0  0  0  0
   13.3633   -2.2096    0.5453 N   0  0  0  0  0  0  0  0  0  0  0  0
   12.0855   -2.3631    1.0504 C   0  0  0  0  0  0  0  0  0  0  0  0
   11.8866   -3.0786    2.2289 C   0  0  0  0  0  0  0  0  0  0  0  0
   12.7387   -3.3599    2.8426 H   0  0  0  0  0  0  0  0  0  0  0  0
   10.6106   -3.4752    2.5927 C   0  0  0  0  0  0  0  0  0  0  0  0
   10.5107   -4.0470    3.5110 H   0  0  0  0  0  0  0  0  0  0  0  0
    9.5139   -3.1505    1.7733 C   0  0  0  0  0  0  0  0  0  0  0  0
    7.8724   -3.7792    2.1748 S   0  0  0  0  0  0  0  0  0  0  0  0
    7.8565   -5.0862    2.8350 O   0  0  0  0  0  0  0  0  0  0  0  0
    6.7986   -3.4898    1.2141 O   0  0  0  0  0  0  0  0  0  0  0  0
    7.6253   -2.7526    3.4214 N   0  0  0  0  0  0  0  0  0  0  0  0
    7.1999   -3.3188    4.1397 H   0  0  0  0  0  0  0  0  0  0  0  0
    8.5424   -2.4363    3.7142 H   0  0  0  0  0  0  0  0  0  0  0  0
    9.7026   -2.3141    0.6609 C   0  0  0  0  0  0  0  0  0  0  0  0
    8.8693   -1.9472    0.0633 H   0  0  0  0  0  0  0  0  0  0  0  0
   10.9933   -1.9271    0.2943 C   0  0  0  0  0  0  0  0  0  0  0  0
   11.1566   -1.3182   -0.5960 H   0  0  0  0  0  0  0  0  0  0  0  0
   14.5066   -2.3307    1.3032 C   0  0  0  0  0  0  0  0  0  0  0  0
   14.6064   -2.1265    2.6497 N   0  0  0  0  0  0  0  0  0  0  0  0
   13.8054   -1.7975    3.1867 H   0  0  0  0  0  0  0  0  0  0  0  0
   15.5152   -2.2330    3.0945 H   0  0  0  0  0  0  0  0  0  0  0  0
   15.5171   -2.7521    0.6166 N   0  0  0  0  0  4  0  0  0  0  0  0
   16.3746   -3.0860    1.0514 H   0  0  0  0  0  0  0  0  0  0  0  0
   15.7164   -0.7603   -1.4888 C   0  0  0  0  0  0  0  0  0  0  0  0
   15.3412   -0.4332   -0.5239 H   0  0  0  0  0  0  0  0  0  0  0  0
   15.6739    2.0489   -0.7977 C   0  0  0  0  0  0  0  0  0  0  0  0
   15.5694    1.3273    0.0101 H   0  0  0  0  0  0  0  0  0  0  0  0
   15.5331    3.4121   -0.5520 C   0  0  0  0  0  0  0  0  0  0  0  0
   15.3087    3.7710    0.4453 H   0  0  0  0  0  0  0  0  0  0  0  0
  1  2  1  0
  2  3  2  0
  3  4  1  0
  4  5  1  0
  4  6  2  0
  6  7  1  0
  7  8  2  0
  8  9  1  0
  8 10  1  0
 10 11  1  0
 10 12  2  0
 12 13  1  0
 12 14  1  0
 15 14  1  6
 15 16  1  0
 16 17  2  0
 17 18  1  0
 17 19  1  0
 19 20  1  0
 19 21  2  0
 21 22  1  0
 21 23  1  0
 23 24  1  0
 23 25  2  0
 25 26  1  0
 15 27  1  0
 27 28  2  0
 27 29  1  0
 29 30  1  0
 30 31  2  0
 31 32  1  0
 31 33  1  0
 33 34  1  0
 33 35  2  0
 35 36  1  0
 36 37  2  0
 36 38  2  0
 36 39  1  0
 39 40  1  0
 39 41  1  0
 35 42  1  0
 42 43  1  0
 42 44  2  0
 44 45  1  0
 29 46  1  0
 46 47  1  0
 47 48  1  0
 47 49  1  0
 46 50  2  0
 50 51  1  0
 14 52  2  0
 52 53  1  0
  6 54  1  0
 54 55  1  0
 54 56  2  0
 56 57  1  0
 56  2  1  0
 52  7  1  0
 50 15  1  0
 25 16  1  0
 44 30  1  0
M  CHG  1  50   1
M  END
>  <score>  (286) 
5.52858

$$$$

     RDKit          3D

 49 53  0  0  0  0  0  0  0  0999 V2000
   15.5529    5.3517   -1.3938 H   0  0  0  0  0  0  0  0  0  0  0  0
   15.5873    4.2854   -1.6055 C   0  0  0  0  0  0  0  0  0  0  0  0
   15.8219    3.8693   -2.8605 N   0  0  0  0  0  0  0  0  0  0  0  0
   15.8795    2.5428   -3.0942 C   0  0  0  0  0  0  0  0  0  0  0  0
   16.0719    2.2002   -4.1051 H   0  0  0  0  0  0  0  0  0  0  0  0
   15.6965    1.5689   -2.0986 C   0  0  0  0  0  0  0  0  0  0  0  0
   15.7746    0.1229   -2.4074 C   0  0  0  0  0  0  0  0  0  0  0  0
   16.3299   -0.3154   -3.6135 C   0  0  0  0  0  0  0  0  0  0  0  0
   16.7111    0.4313   -4.3014 H   0  0  0  0  0  0  0  0  0  0  0  0
   16.4221   -1.6832   -3.9073 C   0  0  0  0  0  0  0  0  0  0  0  0
   16.8634   -2.0037   -4.8451 H   0  0  0  0  0  0  0  0  0  0  0  0
   15.9432   -2.6345   -2.9977 C   0  0  0  0  0  0  0  0  0  0  0  0
   16.0014   -3.6931   -3.2375 H   0  0  0  0  0  0  0  0  0  0  0  0
   15.3818   -2.2302   -1.7755 C   0  0  0  0  0  0  0  0  0  0  0  0
   14.8337   -3.2445   -0.7707 C   0  0  2  0  0  0  0  0  0  0  0  0
   15.1942   -4.7023   -1.0731 C   0  0  0  0  0  0  0  0  0  0  0  0
   16.4080   -5.2275   -0.6060 C   0  0  0  0  0  0  0  0  0  0  0  0
   17.0816   -4.5770   -0.0560 H   0  0  0  0  0  0  0  0  0  0  0  0
   16.7413   -6.5731   -0.8033 C   0  0  0  0  0  0  0  0  0  0  0  0
   17.6762   -6.9624   -0.4103 H   0  0  0  0  0  0  0  0  0  0  0  0
   15.8597   -7.4210   -1.4807 C   0  0  0  0  0  0  0  0  0  0  0  0
   16.1053   -8.4704   -1.6152 H   0  0  0  0  0  0  0  0  0  0  0  0
   14.6489   -6.9180   -1.9661 C   0  0  0  0  0  0  0  0  0  0  0  0
   13.9617   -7.5813   -2.4866 H   0  0  0  0  0  0  0  0  0  0  0  0
   14.3197   -5.5667   -1.7669 C   0  0  0  0  0  0  0  0  0  0  0  0
   13.3650   -5.1942   -2.1263 H   0  0  0  0  0  0  0  0  0  0  0  0
   13.3176   -3.0684   -0.5960 C   0  0  0  0  0  0  0  0  0  0  0  0
   12.4782   -3.1625   -1.4933 O   0  0  0  0  0  0  0  0  0  0  0  0
   13.0339   -2.6974    0.7003 N   0  0  0  0  0  0  0  0  0  0  0  0
   11.7211   -2.6724    1.2835 N   0  0  0  0  0  0  0  0  0  0  0  0
   10.5404   -2.0974    0.8008 C   0  0  0  0  0  0  0  0  0  0  0  0
   10.4605   -1.5056   -0.1059 H   0  0  0  0  0  0  0  0  0  0  0  0
    9.5173   -2.3723    1.5802 N   0  0  0  0  0  0  0  0  0  0  0  0
   10.0458   -3.1404    2.6096 C   0  0  0  0  0  0  0  0  0  0  0  0
    9.4810   -3.5456    3.4433 H   0  0  0  0  0  0  0  0  0  0  0  0
   11.3827   -3.3250    2.4365 C   0  0  0  0  0  0  0  0  0  0  0  0
   12.0412   -3.8737    3.0962 H   0  0  0  0  0  0  0  0  0  0  0  0
   14.2432   -2.6450    1.3758 C   0  0  0  0  0  0  0  0  0  0  0  0
   14.4176   -2.3685    2.7016 N   0  0  0  0  0  0  0  0  0  0  0  0
   13.6246   -2.0345    3.2486 H   0  0  0  0  0  0  0  0  0  0  0  0
   15.3615   -2.3401    3.0863 H   0  0  0  0  0  0  0  0  0  0  0  0
   15.2554   -2.8987    0.6058 N   0  0  0  0  0  4  0  0  0  0  0  0
   16.2239   -2.9532    0.9310 H   0  0  0  0  0  0  0  0  0  0  0  0
   15.3084   -0.8460   -1.5014 C   0  0  0  0  0  0  0  0  0  0  0  0
   14.8703   -0.5037   -0.5696 H   0  0  0  0  0  0  0  0  0  0  0  0
   15.4475    2.0109   -0.8004 C   0  0  0  0  0  0  0  0  0  0  0  0
   15.3380    1.2720   -0.0131 H   0  0  0  0  0  0  0  0  0  0  0  0
   15.3849    3.3856   -0.5565 C   0  0  0  0  0  0  0  0  0  0  0  0
   15.1809    3.7715    0.4352 H   0  0  0  0  0  0  0  0  0  0  0  0
  1  2  1  0
  2  3  2  0
  3  4  1  0
  4  5  1  0
  4  6  2  0
  6  7  1  0
  7  8  2  0
  8  9  1  0
  8 10  1  0
 10 11  1  0
 10 12  2  0
 12 13  1  0
 12 14  1  0
 15 14  1  6
 15 16  1  0
 16 17  2  0
 17 18  1  0
 17 19  1  0
 19 20  1  0
 19 21  2  0
 21 22  1  0
 21 23  1  0
 23 24  1  0
 23 25  2  0
 25 26  1  0
 15 27  1  0
 27 28  2  0
 27 29  1  0
 29 30  1  0
 30 31  1  0
 31 32  1  0
 31 33  2  0
 33 34  1  0
 34 35  1  0
 34 36  2  0
 36 37  1  0
 29 38  1  0
 38 39  1  0
 39 40  1  0
 39 41  1  0
 38 42  2  0
 42 43  1  0
 14 44  2  0
 44 45  1  0
  6 46  1  0
 46 47  1  0
 46 48  2  0
 48 49  1  0
 48  2  1  0
 44  7  1  0
 42 15  1  0
 25 16  1  0
 36 30  1  0
M  CHG  1  42   1
M  END
>  <score>  (287) 
5.52782

$$$$

     RDKit          3D

 51 55  0  0  0  0  0  0  0  0999 V2000
    8.9818   -0.9514    0.5052 H   0  0  0  0  0  0  0  0  0  0  0  0
    9.6699   -1.6036    1.0413 C   0  0  0  0  0  0  0  0  0  0  0  0
   10.8994   -1.7978    0.5449 N   0  0  0  0  0  0  0  0  0  0  0  0
   11.7492   -2.5358    1.2534 C   0  0  0  0  0  0  0  0  0  0  0  0
   12.9881   -2.7016    0.7204 N   0  0  0  0  0  0  0  0  0  0  0  0
   13.2299   -3.0007   -0.5924 C   0  0  0  0  0  0  0  0  0  0  0  0
   12.3320   -3.1215   -1.4226 O   0  0  0  0  0  0  0  0  0  0  0  0
   14.7613   -3.2239   -0.7626 C   0  0  1  0  0  0  0  0  0  0  0  0
   15.1513   -4.6828   -1.0540 C   0  0  0  0  0  0  0  0  0  0  0  0
   16.3788   -5.2025   -0.5950 C   0  0  0  0  0  0  0  0  0  0  0  0
   17.0626   -4.5554   -0.0536 H   0  0  0  0  0  0  0  0  0  0  0  0
   16.7247   -6.5459   -0.7988 C   0  0  0  0  0  0  0  0  0  0  0  0
   17.6648   -6.9355   -0.4174 H   0  0  0  0  0  0  0  0  0  0  0  0
   15.8525   -7.3956   -1.4816 C   0  0  0  0  0  0  0  0  0  0  0  0
   16.1029   -8.4446   -1.6173 H   0  0  0  0  0  0  0  0  0  0  0  0
   14.6403   -6.8958   -1.9655 C   0  0  0  0  0  0  0  0  0  0  0  0
   13.9619   -7.5617   -2.4895 H   0  0  0  0  0  0  0  0  0  0  0  0
   14.2925   -5.5512   -1.7537 C   0  0  0  0  0  0  0  0  0  0  0  0
   13.3411   -5.1801   -2.1220 H   0  0  0  0  0  0  0  0  0  0  0  0
   15.3523   -2.2206   -1.7598 C   0  0  0  0  0  0  0  0  0  0  0  0
   15.9215   -2.6285   -2.9795 C   0  0  0  0  0  0  0  0  0  0  0  0
   15.9855   -3.6882   -3.2113 H   0  0  0  0  0  0  0  0  0  0  0  0
   16.4100   -1.6843   -3.8938 C   0  0  0  0  0  0  0  0  0  0  0  0
   16.8619   -2.0059   -4.8265 H   0  0  0  0  0  0  0  0  0  0  0  0
   16.3279   -0.3178   -3.6024 C   0  0  0  0  0  0  0  0  0  0  0  0
   16.7051    0.4244   -4.2984 H   0  0  0  0  0  0  0  0  0  0  0  0
   15.7749    0.1235   -2.3977 C   0  0  0  0  0  0  0  0  0  0  0  0
   15.7033    1.5668   -2.0971 C   0  0  0  0  0  0  0  0  0  0  0  0
   15.8862    2.5367   -3.0973 C   0  0  0  0  0  0  0  0  0  0  0  0
   16.0817    2.1964   -4.1095 H   0  0  0  0  0  0  0  0  0  0  0  0
   15.8287    3.8626   -2.8628 N   0  0  0  0  0  0  0  0  0  0  0  0
   15.5869    4.2748   -1.6090 C   0  0  0  0  0  0  0  0  0  0  0  0
   15.5453    5.3400   -1.4008 H   0  0  0  0  0  0  0  0  0  0  0  0
   15.3875    3.3778   -0.5584 C   0  0  0  0  0  0  0  0  0  0  0  0
   15.1895    3.7616    0.4338 H   0  0  0  0  0  0  0  0  0  0  0  0
   15.4556    2.0058   -0.7997 C   0  0  0  0  0  0  0  0  0  0  0  0
   15.3476    1.2650   -0.0133 H   0  0  0  0  0  0  0  0  0  0  0  0
   15.2924   -0.8369   -1.4901 C   0  0  0  0  0  0  0  0  0  0  0  0
   14.8524   -0.4908   -0.5602 H   0  0  0  0  0  0  0  0  0  0  0  0
   15.1677   -2.9081    0.6284 N   0  0  0  0  0  4  0  0  0  0  0  0
   16.1325   -2.9556    0.9666 H   0  0  0  0  0  0  0  0  0  0  0  0
   14.1641   -2.6669    1.4015 C   0  0  0  0  0  0  0  0  0  0  0  0
   14.3433   -2.4076    2.7276 N   0  0  0  0  0  0  0  0  0  0  0  0
   13.5836   -2.0001    3.2708 H   0  0  0  0  0  0  0  0  0  0  0  0
   15.3028   -2.3096    3.0585 H   0  0  0  0  0  0  0  0  0  0  0  0
   11.4071   -3.1544    2.4533 C   0  0  0  0  0  0  0  0  0  0  0  0
   12.1597   -3.7502    2.9528 H   0  0  0  0  0  0  0  0  0  0  0  0
   10.1134   -3.0157    2.9579 C   0  0  0  0  0  0  0  0  0  0  0  0
    9.7935   -3.5055    3.8797 H   0  0  0  0  0  0  0  0  0  0  0  0
    9.2403   -2.2067    2.2295 C   0  0  0  0  0  0  0  0  0  0  0  0
    8.2319   -2.0233    2.5706 H   0  0  0  0  0  0  0  0  0  0  0  0
  1  2  1  0
  2  3  2  0
  3  4  1  0
  4  5  1  0
  5  6  1  0
  6  7  2  0
  6  8  1  0
  8  9  1  6
  9 10  2  0
 10 11  1  0
 10 12  1  0
 12 13  1  0
 12 14  2  0
 14 15  1  0
 14 16  1  0
 16 17  1  0
 16 18  2  0
 18 19  1  0
  8 20  1  0
 20 21  2  0
 21 22  1  0
 21 23  1  0
 23 24  1  0
 23 25  2  0
 25 26  1  0
 25 27  1  0
 27 28  1  0
 28 29  2  0
 29 30  1  0
 29 31  1  0
 31 32  2  0
 32 33  1  0
 32 34  1  0
 34 35  1  0
 34 36  2  0
 36 37  1  0
 27 38  2  0
 38 39  1  0
  8 40  1  0
 40 41  1  0
 40 42  2  0
 42 43  1  0
 43 44  1  0
 43 45  1  0
  4 46  2  0
 46 47  1  0
 46 48  1  0
 48 49  1  0
 48 50  2  0
 50 51  1  0
 50  2  1  0
 42  5  1  0
 18  9  1  0
 38 20  1  0
 36 28  1  0
M  CHG  1  40   1
M  END
>  <score>  (288) 
5.52758

$$$$

     RDKit          3D

 53 57  0  0  0  0  0  0  0  0999 V2000
   15.5298    5.3250   -1.4166 H   0  0  0  0  0  0  0  0  0  0  0  0
   15.5908    4.2582   -1.6110 C   0  0  0  0  0  0  0  0  0  0  0  0
   15.8405    3.8401   -2.8610 N   0  0  0  0  0  0  0  0  0  0  0  0
   15.9004    2.5151   -3.0910 C   0  0  0  0  0  0  0  0  0  0  0  0
   16.0994    2.1874   -4.1068 H   0  0  0  0  0  0  0  0  0  0  0  0
   15.7064    1.5478   -2.0869 C   0  0  0  0  0  0  0  0  0  0  0  0
   15.7579    0.1052   -2.3827 C   0  0  0  0  0  0  0  0  0  0  0  0
   16.3089   -0.3370   -3.5894 C   0  0  0  0  0  0  0  0  0  0  0  0
   16.6954    0.3868   -4.3008 H   0  0  0  0  0  0  0  0  0  0  0  0
   16.3824   -1.7001   -3.8763 C   0  0  0  0  0  0  0  0  0  0  0  0
   16.8263   -2.0223   -4.8121 H   0  0  0  0  0  0  0  0  0  0  0  0
   15.8998   -2.6395   -2.9578 C   0  0  0  0  0  0  0  0  0  0  0  0
   15.9665   -3.6959   -3.1985 H   0  0  0  0  0  0  0  0  0  0  0  0
   15.3449   -2.2364   -1.7295 C   0  0  0  0  0  0  0  0  0  0  0  0
   14.8200   -3.2606   -0.7163 C   0  0  2  0  0  0  0  0  0  0  0  0
   15.2162   -4.6959   -1.0427 C   0  0  0  0  0  0  0  0  0  0  0  0
   16.4380   -5.2214   -0.5936 C   0  0  0  0  0  0  0  0  0  0  0  0
   17.1243   -4.5811   -0.0465 H   0  0  0  0  0  0  0  0  0  0  0  0
   16.7618   -6.5642   -0.8085 C   0  0  0  0  0  0  0  0  0  0  0  0
   17.6972   -6.9558   -0.4201 H   0  0  0  0  0  0  0  0  0  0  0  0
   15.8704   -7.3967   -1.4943 C   0  0  0  0  0  0  0  0  0  0  0  0
   16.1083   -8.4459   -1.6393 H   0  0  0  0  0  0  0  0  0  0  0  0
   14.6621   -6.8800   -1.9736 C   0  0  0  0  0  0  0  0  0  0  0  0
   13.9606   -7.5215   -2.4986 H   0  0  0  0  0  0  0  0  0  0  0  0
   14.3405   -5.5369   -1.7528 C   0  0  0  0  0  0  0  0  0  0  0  0
   13.3918   -5.1480   -2.1122 H   0  0  0  0  0  0  0  0  0  0  0  0
   13.2924   -3.1700   -0.5025 C   0  0  0  0  0  0  0  0  0  0  0  0
   12.4221   -3.2294   -1.3695 O   0  0  0  0  0  0  0  0  0  0  0  0
   13.0320   -3.0109    0.8452 N   0  0  0  0  0  0  0  0  0  0  0  0
   11.7363   -2.8109    1.4224 O   0  0  0  0  0  0  0  0  0  0  0  0
   11.2044   -1.5699    1.1674 C   0  0  0  0  0  0  0  0  0  0  0  0
   11.9925   -0.5403    0.6243 C   0  0  0  0  0  0  0  0  0  0  0  0
   13.0269   -0.7531    0.3555 H   0  0  0  0  0  0  0  0  0  0  0  0
   11.4526    0.7331    0.4060 C   0  0  0  0  0  0  0  0  0  0  0  0
   12.0843    1.5235    0.0149 H   0  0  0  0  0  0  0  0  0  0  0  0
   10.0969    0.9834    0.6740 C   0  0  0  0  0  0  0  0  0  0  0  0
    9.5711    2.2134    0.4476 F   0  0  0  0  0  0  0  0  0  0  0  0
    9.2872   -0.0484    1.1763 C   0  0  0  0  0  0  0  0  0  0  0  0
    8.2383    0.1601    1.3905 H   0  0  0  0  0  0  0  0  0  0  0  0
    9.8407   -1.3208    1.4287 C   0  0  0  0  0  0  0  0  0  0  0  0
    9.2276   -2.1181    1.8443 H   0  0  0  0  0  0  0  0  0  0  0  0
   14.2462   -2.8083    1.4756 C   0  0  0  0  0  0  0  0  0  0  0  0
   14.4576   -2.4576    2.7832 N   0  0  0  0  0  0  0  0  0  0  0  0
   15.4131   -2.2836    3.0982 H   0  0  0  0  0  0  0  0  0  0  0  0
   13.6702   -2.2253    3.3866 H   0  0  0  0  0  0  0  0  0  0  0  0
   15.2460   -2.9389    0.6634 N   0  0  0  0  0  4  0  0  0  0  0  0
   16.2238   -2.8270    0.9452 H   0  0  0  0  0  0  0  0  0  0  0  0
   15.2737   -0.8517   -1.4671 C   0  0  0  0  0  0  0  0  0  0  0  0
   14.8404   -0.5027   -0.5351 H   0  0  0  0  0  0  0  0  0  0  0  0
   15.4747    1.9949   -0.7875 C   0  0  0  0  0  0  0  0  0  0  0  0
   15.3680    1.2781    0.0205 H   0  0  0  0  0  0  0  0  0  0  0  0
   15.4074    3.3653   -0.5531 C   0  0  0  0  0  0  0  0  0  0  0  0
   15.2172    3.7424    0.4437 H   0  0  0  0  0  0  0  0  0  0  0  0
  1  2  1  0
  2  3  2  0
  3  4  1  0
  4  5  1  0
  4  6  2  0
  6  7  1  0
  7  8  2  0
  8  9  1  0
  8 10  1  0
 10 11  1  0
 10 12  2  0
 12 13  1  0
 12 14  1  0
 15 14  1  6
 15 16  1  0
 16 17  2  0
 17 18  1  0
 17 19  1  0
 19 20  1  0
 19 21  2  0
 21 22  1  0
 21 23  1  0
 23 24  1  0
 23 25  2  0
 25 26  1  0
 15 27  1  0
 27 28  2  0
 27 29  1  0
 29 30  1  0
 30 31  1  0
 31 32  2  0
 32 33  1  0
 32 34  1  0
 34 35  1  0
 34 36  2  0
 36 37  1  0
 36 38  1  0
 38 39  1  0
 38 40  2  0
 40 41  1  0
 29 42  1  0
 42 43  1  0
 43 44  1  0
 43 45  1  0
 42 46  2  0
 46 47  1  0
 14 48  2  0
 48 49  1  0
  6 50  1  0
 50 51  1  0
 50 52  2  0
 52 53  1  0
 52  2  1  0
 48  7  1  0
 46 15  1  0
 25 16  1  0
 40 31  1  0
M  CHG  1  46   1
M  END
>  <score>  (289) 
5.52534

$$$$

     RDKit          3D

 50 54  0  0  0  0  0  0  0  0999 V2000
   15.5469    5.3428   -1.3984 H   0  0  0  0  0  0  0  0  0  0  0  0
   15.5879    4.2773   -1.6092 C   0  0  0  0  0  0  0  0  0  0  0  0
   15.8255    3.8632   -2.8640 N   0  0  0  0  0  0  0  0  0  0  0  0
   15.8854    2.5371   -3.0959 C   0  0  0  0  0  0  0  0  0  0  0  0
   16.0797    2.1947   -4.1067 H   0  0  0  0  0  0  0  0  0  0  0  0
   15.7011    1.5664   -2.0975 C   0  0  0  0  0  0  0  0  0  0  0  0
   15.7746    0.1233   -2.3994 C   0  0  0  0  0  0  0  0  0  0  0  0
   16.3240   -0.3174   -3.6055 C   0  0  0  0  0  0  0  0  0  0  0  0
   16.7061    0.4267   -4.2958 H   0  0  0  0  0  0  0  0  0  0  0  0
   16.4120   -1.6840   -3.8952 C   0  0  0  0  0  0  0  0  0  0  0  0
   16.8595   -2.0071   -4.8284 H   0  0  0  0  0  0  0  0  0  0  0  0
   15.9281   -2.6297   -2.9822 C   0  0  0  0  0  0  0  0  0  0  0  0
   15.9892   -3.6891   -3.2177 H   0  0  0  0  0  0  0  0  0  0  0  0
   15.3647   -2.2230   -1.7602 C   0  0  0  0  0  0  0  0  0  0  0  0
   14.7926   -3.2355   -0.7606 C   0  0  2  0  0  0  0  0  0  0  0  0
   15.1684   -4.6925   -1.0604 C   0  0  0  0  0  0  0  0  0  0  0  0
   16.3900   -5.2125   -0.5959 C   0  0  0  0  0  0  0  0  0  0  0  0
   17.0705   -4.5627   -0.0529 H   0  0  0  0  0  0  0  0  0  0  0  0
   16.7326   -6.5550   -0.8008 C   0  0  0  0  0  0  0  0  0  0  0  0
   17.6691   -6.9460   -0.4144 H   0  0  0  0  0  0  0  0  0  0  0  0
   15.8567   -7.4031   -1.4818 C   0  0  0  0  0  0  0  0  0  0  0  0
   16.1023   -8.4526   -1.6164 H   0  0  0  0  0  0  0  0  0  0  0  0
   14.6444   -6.9034   -1.9655 C   0  0  0  0  0  0  0  0  0  0  0  0
   13.9618   -7.5662   -2.4886 H   0  0  0  0  0  0  0  0  0  0  0  0
   14.3027   -5.5574   -1.7577 C   0  0  0  0  0  0  0  0  0  0  0  0
   13.3504   -5.1826   -2.1206 H   0  0  0  0  0  0  0  0  0  0  0  0
   13.2680   -3.0270   -0.6014 C   0  0  0  0  0  0  0  0  0  0  0  0
   12.3749   -3.1291   -1.4378 O   0  0  0  0  0  0  0  0  0  0  0  0
   13.0078   -2.6949    0.6946 N   0  0  0  0  0  0  0  0  0  0  0  0
   11.7504   -2.5720    1.1886 C   0  0  0  0  0  0  0  0  0  0  0  0
   10.7166   -2.3667    0.4198 N   0  0  0  0  0  0  0  0  0  0  0  0
    9.6422   -2.3306    1.3314 O   0  0  0  0  0  0  0  0  0  0  0  0
   10.1929   -2.5705    2.5562 C   0  0  0  0  0  0  0  0  0  0  0  0
    9.3562   -2.6782    3.7897 C   0  0  0  0  0  0  0  0  0  0  0  0
    9.1239   -3.7250    4.0007 H   0  0  0  0  0  0  0  0  0  0  0  0
    9.8729   -2.2637    4.6574 H   0  0  0  0  0  0  0  0  0  0  0  0
    8.4292   -2.1290    3.6223 H   0  0  0  0  0  0  0  0  0  0  0  0
   11.4829   -2.7230    2.5142 N   0  0  0  0  0  0  0  0  0  0  0  0
   14.1727   -2.6743    1.4007 C   0  0  0  0  0  0  0  0  0  0  0  0
   14.3381   -2.4073    2.7267 N   0  0  0  0  0  0  0  0  0  0  0  0
   13.5685   -2.0037    3.2615 H   0  0  0  0  0  0  0  0  0  0  0  0
   15.2937   -2.3254    3.0788 H   0  0  0  0  0  0  0  0  0  0  0  0
   15.1876   -2.9260    0.6383 N   0  0  0  0  0  4  0  0  0  0  0  0
   16.1535   -2.9579    0.9841 H   0  0  0  0  0  0  0  0  0  0  0  0
   15.3009   -0.8381   -1.4886 C   0  0  0  0  0  0  0  0  0  0  0  0
   14.8600   -0.4888   -0.5600 H   0  0  0  0  0  0  0  0  0  0  0  0
   15.4528    2.0061   -0.8004 C   0  0  0  0  0  0  0  0  0  0  0  0
   15.3486    1.2656   -0.0131 H   0  0  0  0  0  0  0  0  0  0  0  0
   15.3880    3.3794   -0.5579 C   0  0  0  0  0  0  0  0  0  0  0  0
   15.1870    3.7647    0.4344 H   0  0  0  0  0  0  0  0  0  0  0  0
  1  2  1  0
  2  3  2  0
  3  4  1  0
  4  5  1  0
  4  6  2  0
  6  7  1  0
  7  8  2  0
  8  9  1  0
  8 10  1  0
 10 11  1  0
 10 12  2  0
 12 13  1  0
 12 14  1  0
 15 14  1  6
 15 16  1  0
 16 17  2  0
 17 18  1  0
 17 19  1  0
 19 20  1  0
 19 21  2  0
 21 22  1  0
 21 23  1  0
 23 24  1  0
 23 25  2  0
 25 26  1  0
 15 27  1  0
 27 28  2  0
 27 29  1  0
 29 30  1  0
 30 31  2  0
 31 32  1  0
 32 33  1  0
 33 34  1  0
 34 35  1  0
 34 36  1  0
 34 37  1  0
 33 38  2  0
 29 39  1  0
 39 40  1  0
 40 41  1  0
 40 42  1  0
 39 43  2  0
 43 44  1  0
 14 45  2  0
 45 46  1  0
  6 47  1  0
 47 48  1  0
 47 49  2  0
 49 50  1  0
 49  2  1  0
 45  7  1  0
 43 15  1  0
 25 16  1  0
 38 30  1  0
M  CHG  1  43   1
M  END
>  <score>  (290) 
5.52521

$$$$

     RDKit          3D

 52 55  0  0  0  0  0  0  0  0999 V2000
   11.5734   -6.3594    3.6376 H   0  0  0  0  0  0  0  0  0  0  0  0
   11.1152   -5.8513    2.9439 O   0  0  0  0  0  0  0  0  0  0  0  0
   11.8065   -4.6302    2.6656 C   0  0  0  0  0  0  0  0  0  0  0  0
   11.8574   -4.0131    3.5672 H   0  0  0  0  0  0  0  0  0  0  0  0
   12.8309   -4.8345    2.3411 H   0  0  0  0  0  0  0  0  0  0  0  0
   11.0560   -3.8825    1.5690 C   0  0  0  0  0  0  0  0  0  0  0  0
   11.0486   -4.4841    0.6580 H   0  0  0  0  0  0  0  0  0  0  0  0
   10.0185   -3.7491    1.8836 H   0  0  0  0  0  0  0  0  0  0  0  0
   11.6755   -2.5157    1.2773 C   0  0  0  0  0  0  0  0  0  0  0  0
   11.0287   -1.9601    0.5829 H   0  0  0  0  0  0  0  0  0  0  0  0
   11.7275   -1.9281    2.1987 H   0  0  0  0  0  0  0  0  0  0  0  0
   13.0118   -2.6852    0.7057 N   0  0  0  0  0  0  0  0  0  0  0  0
   13.2936   -3.0438   -0.5949 C   0  0  0  0  0  0  0  0  0  0  0  0
   12.4274   -3.1014   -1.4632 O   0  0  0  0  0  0  0  0  0  0  0  0
   14.8080   -3.2532   -0.7815 C   0  0  1  0  0  0  0  0  0  0  0  0
   15.1722   -4.7164   -1.0716 C   0  0  0  0  0  0  0  0  0  0  0  0
   16.3916   -5.2379   -0.6094 C   0  0  0  0  0  0  0  0  0  0  0  0
   17.0674   -4.5868   -0.0638 H   0  0  0  0  0  0  0  0  0  0  0  0
   16.7295   -6.5821   -0.8027 C   0  0  0  0  0  0  0  0  0  0  0  0
   17.6725   -6.9561   -0.4169 H   0  0  0  0  0  0  0  0  0  0  0  0
   15.8537   -7.4403   -1.4723 C   0  0  0  0  0  0  0  0  0  0  0  0
   16.1210   -8.4859   -1.6115 H   0  0  0  0  0  0  0  0  0  0  0  0
   14.6430   -6.9391   -1.9613 C   0  0  0  0  0  0  0  0  0  0  0  0
   13.9720   -7.6120   -2.4877 H   0  0  0  0  0  0  0  0  0  0  0  0
   14.3036   -5.5884   -1.7665 C   0  0  0  0  0  0  0  0  0  0  0  0
   13.3535   -5.2325   -2.1554 H   0  0  0  0  0  0  0  0  0  0  0  0
   15.3759   -2.2451   -1.7835 C   0  0  0  0  0  0  0  0  0  0  0  0
   15.9442   -2.6455   -3.0060 C   0  0  0  0  0  0  0  0  0  0  0  0
   16.0043   -3.7016   -3.2575 H   0  0  0  0  0  0  0  0  0  0  0  0
   16.4322   -1.6899   -3.9093 C   0  0  0  0  0  0  0  0  0  0  0  0
   16.8657   -2.0068   -4.8535 H   0  0  0  0  0  0  0  0  0  0  0  0
   16.3480   -0.3219   -3.6115 C   0  0  0  0  0  0  0  0  0  0  0  0
   16.7257    0.4068   -4.3219 H   0  0  0  0  0  0  0  0  0  0  0  0
   15.7713    0.1183   -2.4109 C   0  0  0  0  0  0  0  0  0  0  0  0
   15.6857    1.5713   -2.0960 C   0  0  0  0  0  0  0  0  0  0  0  0
   15.8636    2.5536   -3.0875 C   0  0  0  0  0  0  0  0  0  0  0  0
   16.0453    2.2251   -4.1055 H   0  0  0  0  0  0  0  0  0  0  0  0
   15.8198    3.8817   -2.8478 N   0  0  0  0  0  0  0  0  0  0  0  0
   15.5838    4.3036   -1.5955 C   0  0  0  0  0  0  0  0  0  0  0  0
   15.5697    5.3724   -1.3874 H   0  0  0  0  0  0  0  0  0  0  0  0
   15.3719    3.4019   -0.5513 C   0  0  0  0  0  0  0  0  0  0  0  0
   15.1679    3.7865    0.4416 H   0  0  0  0  0  0  0  0  0  0  0  0
   15.4350    2.0258   -0.7973 C   0  0  0  0  0  0  0  0  0  0  0  0
   15.2975    1.3101    0.0038 H   0  0  0  0  0  0  0  0  0  0  0  0
   15.2962   -0.8596   -1.5156 C   0  0  0  0  0  0  0  0  0  0  0  0
   14.8688   -0.5297   -0.5760 H   0  0  0  0  0  0  0  0  0  0  0  0
   15.2110   -2.8981    0.5950 N   0  0  0  0  0  4  0  0  0  0  0  0
   16.1802   -2.9113    0.9073 H   0  0  0  0  0  0  0  0  0  0  0  0
   14.2131   -2.6372    1.3711 C   0  0  0  0  0  0  0  0  0  0  0  0
   14.3951   -2.3501    2.6937 N   0  0  0  0  0  0  0  0  0  0  0  0
   15.3376   -2.3488    3.0865 H   0  0  0  0  0  0  0  0  0  0  0  0
   13.5858   -2.1448    3.2749 H   0  0  0  0  0  0  0  0  0  0  0  0
  1  2  1  0
  2  3  1  0
  3  4  1  0
  3  5  1  0
  3  6  1  0
  6  7  1  0
  6  8  1  0
  6  9  1  0
  9 10  1  0
  9 11  1  0
  9 12  1  0
 12 13  1  0
 13 14  2  0
 13 15  1  0
 15 16  1  6
 16 17  2  0
 17 18  1  0
 17 19  1  0
 19 20  1  0
 19 21  2  0
 21 22  1  0
 21 23  1  0
 23 24  1  0
 23 25  2  0
 25 26  1  0
 15 27  1  0
 27 28  2  0
 28 29  1  0
 28 30  1  0
 30 31  1  0
 30 32  2  0
 32 33  1  0
 32 34  1  0
 34 35  1  0
 35 36  2  0
 36 37  1  0
 36 38  1  0
 38 39  2  0
 39 40  1  0
 39 41  1  0
 41 42  1  0
 41 43  2  0
 43 44  1  0
 34 45  2  0
 45 46  1  0
 15 47  1  0
 47 48  1  0
 47 49  2  0
 49 50  1  0
 50 51  1  0
 50 52  1  0
 49 12  1  0
 25 16  1  0
 45 27  1  0
 43 35  1  0
M  CHG  1  47   1
M  END
>  <score>  (291) 
5.52375

$$$$

     RDKit          3D

 59 63  0  0  0  0  0  0  0  0999 V2000
   15.5495    5.3290   -1.4080 H   0  0  0  0  0  0  0  0  0  0  0  0
   15.6143    4.2634   -1.6071 C   0  0  0  0  0  0  0  0  0  0  0  0
   15.8586    3.8525   -2.8609 N   0  0  0  0  0  0  0  0  0  0  0  0
   15.9274    2.5290   -3.0968 C   0  0  0  0  0  0  0  0  0  0  0  0
   16.1182    2.2005   -4.1137 H   0  0  0  0  0  0  0  0  0  0  0  0
   15.7484    1.5570   -2.0987 C   0  0  0  0  0  0  0  0  0  0  0  0
   15.8044    0.1185   -2.4131 C   0  0  0  0  0  0  0  0  0  0  0  0
   16.3385   -0.3342   -3.6269 C   0  0  0  0  0  0  0  0  0  0  0  0
   16.7238    0.3828   -4.3447 H   0  0  0  0  0  0  0  0  0  0  0  0
   16.3915   -1.7020   -3.9142 C   0  0  0  0  0  0  0  0  0  0  0  0
   16.8098   -2.0346   -4.8590 H   0  0  0  0  0  0  0  0  0  0  0  0
   15.9157   -2.6345   -2.9838 C   0  0  0  0  0  0  0  0  0  0  0  0
   15.9627   -3.6948   -3.2148 H   0  0  0  0  0  0  0  0  0  0  0  0
   15.3824   -2.2108   -1.7535 C   0  0  0  0  0  0  0  0  0  0  0  0
   14.8435   -3.1897   -0.7146 C   0  0  2  0  0  0  0  0  0  0  0  0
   15.1942   -4.6420   -1.0188 C   0  0  0  0  0  0  0  0  0  0  0  0
   16.4102   -5.1986   -0.5891 C   0  0  0  0  0  0  0  0  0  0  0  0
   17.1203   -4.5798   -0.0474 H   0  0  0  0  0  0  0  0  0  0  0  0
   16.7115   -6.5428   -0.8373 C   0  0  0  0  0  0  0  0  0  0  0  0
   17.6514   -6.9587   -0.4839 H   0  0  0  0  0  0  0  0  0  0  0  0
   15.7980   -7.3455   -1.5294 C   0  0  0  0  0  0  0  0  0  0  0  0
   16.0233   -8.3911   -1.7134 H   0  0  0  0  0  0  0  0  0  0  0  0
   14.5928   -6.8001   -1.9825 C   0  0  0  0  0  0  0  0  0  0  0  0
   13.8819   -7.4171   -2.5242 H   0  0  0  0  0  0  0  0  0  0  0  0
   14.2975   -5.4562   -1.7327 C   0  0  0  0  0  0  0  0  0  0  0  0
   13.3582   -5.0448   -2.0873 H   0  0  0  0  0  0  0  0  0  0  0  0
   13.3292   -2.9901   -0.4959 C   0  0  0  0  0  0  0  0  0  0  0  0
   12.4164   -3.2695   -1.2710 O   0  0  0  0  0  0  0  0  0  0  0  0
   13.0989   -2.5350    0.7792 N   0  0  0  0  0  0  0  0  0  0  0  0
   11.8277   -2.6422    1.4626 C   0  0  0  0  0  0  0  0  0  0  0  0
   10.9879   -2.5116    0.7690 H   0  0  0  0  0  0  0  0  0  0  0  0
   11.7386   -1.8680    2.2382 H   0  0  0  0  0  0  0  0  0  0  0  0
   11.7954   -3.9515    2.0336 O   0  0  0  0  0  0  0  0  0  0  0  0
   11.4316   -4.9986    1.1181 C   0  0  0  0  0  0  0  0  0  0  0  0
   11.6295   -4.6903    0.0864 H   0  0  0  0  0  0  0  0  0  0  0  0
   10.3582   -5.2008    1.2405 H   0  0  0  0  0  0  0  0  0  0  0  0
   12.2255   -6.2560    1.3874 C   0  0  0  0  0  0  0  0  0  0  0  0
   13.5739   -6.1814    1.7514 C   0  0  0  0  0  0  0  0  0  0  0  0
   14.0350   -5.2075    1.8782 H   0  0  0  0  0  0  0  0  0  0  0  0
   14.2998   -7.3410    2.0344 C   0  0  0  0  0  0  0  0  0  0  0  0
   15.3200   -7.2611    2.3698 H   0  0  0  0  0  0  0  0  0  0  0  0
   13.7059   -8.5961    1.9557 C   0  0  0  0  0  0  0  0  0  0  0  0
   14.2889   -9.4834    2.1852 H   0  0  0  0  0  0  0  0  0  0  0  0
   12.3596   -8.6887    1.6089 C   0  0  0  0  0  0  0  0  0  0  0  0
   11.8882   -9.6645    1.5838 H   0  0  0  0  0  0  0  0  0  0  0  0
   11.6269   -7.5264    1.3262 C   0  0  0  0  0  0  0  0  0  0  0  0
   10.5809   -7.6243    1.0669 H   0  0  0  0  0  0  0  0  0  0  0  0
   14.3032   -2.5543    1.4268 C   0  0  0  0  0  0  0  0  0  0  0  0
   14.4550   -2.3910    2.7704 N   0  0  0  0  0  0  0  0  0  0  0  0
   15.3946   -2.2497    3.1302 H   0  0  0  0  0  0  0  0  0  0  0  0
   13.6555   -2.0569    3.3069 H   0  0  0  0  0  0  0  0  0  0  0  0
   15.2971   -2.8263    0.6470 N   0  0  0  0  0  4  0  0  0  0  0  0
   16.2310   -3.0386    0.9982 H   0  0  0  0  0  0  0  0  0  0  0  0
   15.3215   -0.8299   -1.4986 C   0  0  0  0  0  0  0  0  0  0  0  0
   14.8878   -0.4831   -0.5659 H   0  0  0  0  0  0  0  0  0  0  0  0
   15.5142    1.9959   -0.7929 C   0  0  0  0  0  0  0  0  0  0  0  0
   15.4034    1.2778    0.0149 H   0  0  0  0  0  0  0  0  0  0  0  0
   15.4414    3.3659   -0.5515 C   0  0  0  0  0  0  0  0  0  0  0  0
   15.2530    3.7413    0.4469 H   0  0  0  0  0  0  0  0  0  0  0  0
  1  2  1  0
  2  3  2  0
  3  4  1  0
  4  5  1  0
  4  6  2  0
  6  7  1  0
  7  8  2  0
  8  9  1  0
  8 10  1  0
 10 11  1  0
 10 12  2  0
 12 13  1  0
 12 14  1  0
 15 14  1  6
 15 16  1  0
 16 17  2  0
 17 18  1  0
 17 19  1  0
 19 20  1  0
 19 21  2  0
 21 22  1  0
 21 23  1  0
 23 24  1  0
 23 25  2  0
 25 26  1  0
 15 27  1  0
 27 28  2  0
 27 29  1  0
 29 30  1  0
 30 31  1  0
 30 32  1  0
 30 33  1  0
 33 34  1  0
 34 35  1  0
 34 36  1  0
 34 37  1  0
 37 38  2  0
 38 39  1  0
 38 40  1  0
 40 41  1  0
 40 42  2  0
 42 43  1  0
 42 44  1  0
 44 45  1  0
 44 46  2  0
 46 47  1  0
 29 48  1  0
 48 49  1  0
 49 50  1  0
 49 51  1  0
 48 52  2  0
 52 53  1  0
 14 54  2  0
 54 55  1  0
  6 56  1  0
 56 57  1  0
 56 58  2  0
 58 59  1  0
 58  2  1  0
 54  7  1  0
 52 15  1  0
 25 16  1  0
 46 37  1  0
M  CHG  1  52   1
M  END
>  <score>  (292) 
5.52048

$$$$

     RDKit          3D

 53 57  0  0  0  0  0  0  0  0999 V2000
   15.5362    5.3258   -1.4098 H   0  0  0  0  0  0  0  0  0  0  0  0
   15.5870    4.2623   -1.6133 C   0  0  0  0  0  0  0  0  0  0  0  0
   15.8368    3.8542   -2.8663 N   0  0  0  0  0  0  0  0  0  0  0  0
   15.8921    2.5307   -3.0999 C   0  0  0  0  0  0  0  0  0  0  0  0
   16.0903    2.1965   -4.1137 H   0  0  0  0  0  0  0  0  0  0  0  0
   15.7054    1.5624   -2.0987 C   0  0  0  0  0  0  0  0  0  0  0  0
   15.7869    0.1244   -2.4026 C   0  0  0  0  0  0  0  0  0  0  0  0
   16.3295   -0.3098   -3.6157 C   0  0  0  0  0  0  0  0  0  0  0  0
   16.7046    0.4316   -4.3127 H   0  0  0  0  0  0  0  0  0  0  0  0
   16.4131   -1.6746   -3.9159 C   0  0  0  0  0  0  0  0  0  0  0  0
   16.8634   -1.9965   -4.8499 H   0  0  0  0  0  0  0  0  0  0  0  0
   15.9491   -2.6214   -2.9953 C   0  0  0  0  0  0  0  0  0  0  0  0
   16.0096   -3.6790   -3.2307 H   0  0  0  0  0  0  0  0  0  0  0  0
   15.4161   -2.2195   -1.7626 C   0  0  0  0  0  0  0  0  0  0  0  0
   14.8604   -3.2302   -0.7685 C   0  0  2  0  0  0  0  0  0  0  0  0
   15.2078   -4.6898   -1.0662 C   0  0  0  0  0  0  0  0  0  0  0  0
   16.4196   -5.2235   -0.6042 C   0  0  0  0  0  0  0  0  0  0  0  0
   17.1036   -4.5800   -0.0610 H   0  0  0  0  0  0  0  0  0  0  0  0
   16.7457   -6.5696   -0.8014 C   0  0  0  0  0  0  0  0  0  0  0  0
   17.6810   -6.9616   -0.4106 H   0  0  0  0  0  0  0  0  0  0  0  0
   15.8585   -7.4065   -1.4860 C   0  0  0  0  0  0  0  0  0  0  0  0
   16.0988   -8.4574   -1.6233 H   0  0  0  0  0  0  0  0  0  0  0  0
   14.6508   -6.8927   -1.9721 C   0  0  0  0  0  0  0  0  0  0  0  0
   13.9538   -7.5510   -2.4857 H   0  0  0  0  0  0  0  0  0  0  0  0
   14.3256   -5.5426   -1.7613 C   0  0  0  0  0  0  0  0  0  0  0  0
   13.3722   -5.1656   -2.1185 H   0  0  0  0  0  0  0  0  0  0  0  0
   13.3467   -3.0080   -0.6330 C   0  0  0  0  0  0  0  0  0  0  0  0
   12.5085   -3.1584   -1.5246 O   0  0  0  0  0  0  0  0  0  0  0  0
   13.0708   -2.6192    0.6635 N   0  0  0  0  0  0  0  0  0  0  0  0
   11.7929   -2.2192    1.1628 O   0  0  0  0  0  0  0  0  0  0  0  0
   11.0628   -3.3225    1.6993 C   0  0  0  0  0  0  0  0  0  0  0  0
   11.6787   -3.8252    2.4487 H   0  0  0  0  0  0  0  0  0  0  0  0
   10.8474   -4.0319    0.8960 H   0  0  0  0  0  0  0  0  0  0  0  0
    9.7488   -2.8554    2.3200 C   0  0  0  0  0  0  0  0  0  0  0  0
    9.1115   -2.2976    1.6249 H   0  0  0  0  0  0  0  0  0  0  0  0
    9.0691   -3.7225    3.3742 C   0  0  0  0  0  0  0  0  0  0  0  0
    7.9770   -3.7789    3.4025 H   0  0  0  0  0  0  0  0  0  0  0  0
    9.5951   -4.6276    3.6830 H   0  0  0  0  0  0  0  0  0  0  0  0
    9.7134   -2.4059    3.7710 C   0  0  0  0  0  0  0  0  0  0  0  0
   10.6107   -2.4773    4.3939 H   0  0  0  0  0  0  0  0  0  0  0  0
    9.0635   -1.5518    3.9508 H   0  0  0  0  0  0  0  0  0  0  0  0
   14.2746   -2.5715    1.3525 C   0  0  0  0  0  0  0  0  0  0  0  0
   14.4521   -2.2616    2.6756 N   0  0  0  0  0  0  0  0  0  0  0  0
   15.3846   -2.3289    3.0851 H   0  0  0  0  0  0  0  0  0  0  0  0
   13.6380   -2.0982    3.2699 H   0  0  0  0  0  0  0  0  0  0  0  0
   15.2867   -2.8912    0.6061 N   0  0  0  0  0  4  0  0  0  0  0  0
   16.2483   -3.0051    0.9434 H   0  0  0  0  0  0  0  0  0  0  0  0
   15.3259   -0.8389   -1.4906 C   0  0  0  0  0  0  0  0  0  0  0  0
   14.8703   -0.5040   -0.5635 H   0  0  0  0  0  0  0  0  0  0  0  0
   15.4598    1.9979   -0.7982 C   0  0  0  0  0  0  0  0  0  0  0  0
   15.3589    1.2677   -0.0012 H   0  0  0  0  0  0  0  0  0  0  0  0
   15.3902    3.3678   -0.5593 C   0  0  0  0  0  0  0  0  0  0  0  0
   15.2014    3.7485    0.4365 H   0  0  0  0  0  0  0  0  0  0  0  0
  1  2  1  0
  2  3  2  0
  3  4  1  0
  4  5  1  0
  4  6  2  0
  6  7  1  0
  7  8  2  0
  8  9  1  0
  8 10  1  0
 10 11  1  0
 10 12  2  0
 12 13  1  0
 12 14  1  0
 15 14  1  6
 15 16  1  0
 16 17  2  0
 17 18  1  0
 17 19  1  0
 19 20  1  0
 19 21  2  0
 21 22  1  0
 21 23  1  0
 23 24  1  0
 23 25  2  0
 25 26  1  0
 15 27  1  0
 27 28  2  0
 27 29  1  0
 29 30  1  0
 30 31  1  0
 31 32  1  0
 31 33  1  0
 31 34  1  0
 34 35  1  0
 34 36  1  0
 36 37  1  0
 36 38  1  0
 36 39  1  0
 39 40  1  0
 39 41  1  0
 29 42  1  0
 42 43  1  0
 43 44  1  0
 43 45  1  0
 42 46  2  0
 46 47  1  0
 14 48  2  0
 48 49  1  0
  6 50  1  0
 50 51  1  0
 50 52  2  0
 52 53  1  0
 52  2  1  0
 48  7  1  0
 46 15  1  0
 25 16  1  0
 39 34  1  0
M  CHG  1  46   1
M  END
>  <score>  (293) 
5.51981

$$$$

     RDKit          3D

 54 58  0  0  0  0  0  0  0  0999 V2000
   15.5704    5.3724   -1.3880 H   0  0  0  0  0  0  0  0  0  0  0  0
   15.5847    4.3037   -1.5950 C   0  0  0  0  0  0  0  0  0  0  0  0
   15.8202    3.8818   -2.8472 N   0  0  0  0  0  0  0  0  0  0  0  0
   15.8632    2.5543   -3.0870 C   0  0  0  0  0  0  0  0  0  0  0  0
   16.0422    2.2304   -4.1066 H   0  0  0  0  0  0  0  0  0  0  0  0
   15.6845    1.5718   -2.0953 C   0  0  0  0  0  0  0  0  0  0  0  0
   15.7731    0.1191   -2.4108 C   0  0  0  0  0  0  0  0  0  0  0  0
   16.3474   -0.3223   -3.6131 C   0  0  0  0  0  0  0  0  0  0  0  0
   16.7285    0.4028   -4.3251 H   0  0  0  0  0  0  0  0  0  0  0  0
   16.4322   -1.6899   -3.9110 C   0  0  0  0  0  0  0  0  0  0  0  0
   16.8666   -2.0072   -4.8545 H   0  0  0  0  0  0  0  0  0  0  0  0
   15.9457   -2.6454   -3.0084 C   0  0  0  0  0  0  0  0  0  0  0  0
   16.0058   -3.7014   -3.2604 H   0  0  0  0  0  0  0  0  0  0  0  0
   15.3793   -2.2439   -1.7863 C   0  0  0  0  0  0  0  0  0  0  0  0
   14.8128   -3.2509   -0.7855 C   0  0  2  0  0  0  0  0  0  0  0  0
   15.1708   -4.7175   -1.0723 C   0  0  0  0  0  0  0  0  0  0  0  0
   16.3894   -5.2396   -0.6083 C   0  0  0  0  0  0  0  0  0  0  0  0
   17.0683   -4.5894   -0.0656 H   0  0  0  0  0  0  0  0  0  0  0  0
   16.7290   -6.5828   -0.8018 C   0  0  0  0  0  0  0  0  0  0  0  0
   17.6731   -6.9559   -0.4173 H   0  0  0  0  0  0  0  0  0  0  0  0
   15.8538   -7.4415   -1.4713 C   0  0  0  0  0  0  0  0  0  0  0  0
   16.1220   -8.4867   -1.6111 H   0  0  0  0  0  0  0  0  0  0  0  0
   14.6423   -6.9415   -1.9600 C   0  0  0  0  0  0  0  0  0  0  0  0
   13.9720   -7.6142   -2.4876 H   0  0  0  0  0  0  0  0  0  0  0  0
   14.3022   -5.5907   -1.7665 C   0  0  0  0  0  0  0  0  0  0  0  0
   13.3530   -5.2355   -2.1579 H   0  0  0  0  0  0  0  0  0  0  0  0
   13.2999   -3.0304   -0.5986 C   0  0  0  0  0  0  0  0  0  0  0  0
   12.4235   -3.1112   -1.4566 O   0  0  0  0  0  0  0  0  0  0  0  0
   13.0241   -2.6535    0.6981 N   0  0  0  0  0  0  0  0  0  0  0  0
   11.7013   -2.7061    1.3268 C   0  0  0  0  0  0  0  0  0  0  0  0
   11.6253   -1.9633    2.1292 H   0  0  0  0  0  0  0  0  0  0  0  0
   10.9079   -2.4852    0.6016 H   0  0  0  0  0  0  0  0  0  0  0  0
   11.4785   -4.0842    1.8860 C   0  0  0  0  0  0  0  0  0  0  0  0
   11.2284   -5.1789    1.0671 C   0  0  0  0  0  0  0  0  0  0  0  0
   11.1837   -5.0549   -0.0043 H   0  0  0  0  0  0  0  0  0  0  0  0
   11.0486   -6.4490    1.6201 C   0  0  0  0  0  0  0  0  0  0  0  0
   10.8735   -7.2806    0.9533 H   0  0  0  0  0  0  0  0  0  0  0  0
   11.0856   -6.6845    2.9363 N   0  0  0  0  0  0  0  0  0  0  0  0
   11.3193   -5.6317    3.7326 C   0  0  0  0  0  0  0  0  0  0  0  0
   11.3632   -5.7849    4.8007 H   0  0  0  0  0  0  0  0  0  0  0  0
   11.5145   -4.3389    3.2520 C   0  0  0  0  0  0  0  0  0  0  0  0
   11.6992   -3.5496    3.9646 H   0  0  0  0  0  0  0  0  0  0  0  0
   14.2232   -2.6290    1.3641 C   0  0  0  0  0  0  0  0  0  0  0  0
   14.3933   -2.3585    2.6917 N   0  0  0  0  0  0  0  0  0  0  0  0
   15.3312   -2.3743    3.0915 H   0  0  0  0  0  0  0  0  0  0  0  0
   13.5899   -2.0794    3.2518 H   0  0  0  0  0  0  0  0  0  0  0  0
   15.2206   -2.8955    0.5908 N   0  0  0  0  0  4  0  0  0  0  0  0
   16.1883   -2.9098    0.9068 H   0  0  0  0  0  0  0  0  0  0  0  0
   15.2996   -0.8592   -1.5156 C   0  0  0  0  0  0  0  0  0  0  0  0
   14.8671   -0.5333   -0.5763 H   0  0  0  0  0  0  0  0  0  0  0  0
   15.4309    2.0270   -0.7964 C   0  0  0  0  0  0  0  0  0  0  0  0
   15.2934    1.3149    0.0081 H   0  0  0  0  0  0  0  0  0  0  0  0
   15.3704    3.4030   -0.5501 C   0  0  0  0  0  0  0  0  0  0  0  0
   15.1676    3.7878    0.4433 H   0  0  0  0  0  0  0  0  0  0  0  0
  1  2  1  0
  2  3  2  0
  3  4  1  0
  4  5  1  0
  4  6  2  0
  6  7  1  0
  7  8  2  0
  8  9  1  0
  8 10  1  0
 10 11  1  0
 10 12  2  0
 12 13  1  0
 12 14  1  0
 15 14  1  6
 15 16  1  0
 16 17  2  0
 17 18  1  0
 17 19  1  0
 19 20  1  0
 19 21  2  0
 21 22  1  0
 21 23  1  0
 23 24  1  0
 23 25  2  0
 25 26  1  0
 15 27  1  0
 27 28  2  0
 27 29  1  0
 29 30  1  0
 30 31  1  0
 30 32  1  0
 30 33  1  0
 33 34  2  0
 34 35  1  0
 34 36  1  0
 36 37  1  0
 36 38  2  0
 38 39  1  0
 39 40  1  0
 39 41  2  0
 41 42  1  0
 29 43  1  0
 43 44  1  0
 44 45  1  0
 44 46  1  0
 43 47  2  0
 47 48  1  0
 14 49  2  0
 49 50  1  0
  6 51  1  0
 51 52  1  0
 51 53  2  0
 53 54  1  0
 53  2  1  0
 49  7  1  0
 47 15  1  0
 25 16  1  0
 41 33  1  0
M  CHG  1  47   1
M  END
>  <score>  (294) 
5.51965

$$$$

     RDKit          3D

 66 71  0  0  0  0  0  0  0  0999 V2000
   15.5253    5.3106   -1.4221 H   0  0  0  0  0  0  0  0  0  0  0  0
   15.6017    4.2437   -1.6095 C   0  0  0  0  0  0  0  0  0  0  0  0
   15.8476    3.8219   -2.8593 N   0  0  0  0  0  0  0  0  0  0  0  0
   15.9286    2.4964   -3.0795 C   0  0  0  0  0  0  0  0  0  0  0  0
   16.1235    2.1595   -4.0930 H   0  0  0  0  0  0  0  0  0  0  0  0
   15.7601    1.5323   -2.0705 C   0  0  0  0  0  0  0  0  0  0  0  0
   15.8283    0.0897   -2.3715 C   0  0  0  0  0  0  0  0  0  0  0  0
   16.3355   -0.3611   -3.5978 C   0  0  0  0  0  0  0  0  0  0  0  0
   16.6840    0.3607   -4.3297 H   0  0  0  0  0  0  0  0  0  0  0  0
   16.4070   -1.7287   -3.8793 C   0  0  0  0  0  0  0  0  0  0  0  0
   16.8057   -2.0592   -4.8331 H   0  0  0  0  0  0  0  0  0  0  0  0
   15.9653   -2.6626   -2.9356 C   0  0  0  0  0  0  0  0  0  0  0  0
   16.0189   -3.7223   -3.1662 H   0  0  0  0  0  0  0  0  0  0  0  0
   15.4464   -2.2448   -1.6986 C   0  0  0  0  0  0  0  0  0  0  0  0
   14.8965   -3.2430   -0.6846 C   0  0  2  0  0  0  0  0  0  0  0  0
   15.2607   -4.6809   -0.9997 C   0  0  0  0  0  0  0  0  0  0  0  0
   16.4789   -5.2216   -0.5669 C   0  0  0  0  0  0  0  0  0  0  0  0
   17.1777   -4.5947   -0.0189 H   0  0  0  0  0  0  0  0  0  0  0  0
   16.7884   -6.5627   -0.8136 C   0  0  0  0  0  0  0  0  0  0  0  0
   17.7285   -6.9706   -0.4545 H   0  0  0  0  0  0  0  0  0  0  0  0
   15.8825   -7.3729   -1.5090 C   0  0  0  0  0  0  0  0  0  0  0  0
   16.1136   -8.4178   -1.6899 H   0  0  0  0  0  0  0  0  0  0  0  0
   14.6782   -6.8356   -1.9741 C   0  0  0  0  0  0  0  0  0  0  0  0
   13.9719   -7.4543   -2.5204 H   0  0  0  0  0  0  0  0  0  0  0  0
   14.3737   -5.4952   -1.7249 C   0  0  0  0  0  0  0  0  0  0  0  0
   13.4336   -5.0865   -2.0820 H   0  0  0  0  0  0  0  0  0  0  0  0
   13.3775   -3.0706   -0.5550 C   0  0  0  0  0  0  0  0  0  0  0  0
   12.5592   -3.2352   -1.4642 O   0  0  0  0  0  0  0  0  0  0  0  0
   13.0593   -2.6442    0.7237 N   0  0  0  0  0  0  0  0  0  0  0  0
   11.8364   -1.9663    1.0513 N   0  0  0  0  0  0  0  0  0  0  0  0
   11.6901   -0.7413    0.2352 C   0  0  0  0  0  0  0  0  0  0  0  0
   11.6738   -1.0327   -0.8219 H   0  0  0  0  0  0  0  0  0  0  0  0
   12.5612   -0.0958    0.3975 H   0  0  0  0  0  0  0  0  0  0  0  0
   10.4122    0.0506    0.5383 C   0  0  0  0  0  0  0  0  0  0  0  0
   10.2406    0.7352   -0.2945 H   0  0  0  0  0  0  0  0  0  0  0  0
   10.5711    0.6725    1.4132 H   0  0  0  0  0  0  0  0  0  0  0  0
    9.2315   -0.8260    0.7478 N   0  0  0  0  0  0  0  0  0  0  0  0
    7.9880   -0.4638    0.2072 C   0  0  0  0  0  0  0  0  0  0  0  0
    7.6278    0.8866    0.1549 C   0  0  0  0  0  0  0  0  0  0  0  0
    8.2800    1.6335    0.5943 H   0  0  0  0  0  0  0  0  0  0  0  0
    6.4444    1.2837   -0.4668 C   0  0  0  0  0  0  0  0  0  0  0  0
    6.1810    2.3340   -0.4666 H   0  0  0  0  0  0  0  0  0  0  0  0
    5.6160    0.3377   -1.0739 C   0  0  0  0  0  0  0  0  0  0  0  0
    4.7125    0.6683   -1.5785 H   0  0  0  0  0  0  0  0  0  0  0  0
    5.9524   -1.0238   -1.0064 C   0  0  0  0  0  0  0  0  0  0  0  0
    5.3198   -1.7721   -1.4762 H   0  0  0  0  0  0  0  0  0  0  0  0
    7.1186   -1.4253   -0.3292 C   0  0  0  0  0  0  0  0  0  0  0  0
    7.3841   -2.4709   -0.2070 H   0  0  0  0  0  0  0  0  0  0  0  0
    9.4346   -2.0205    1.5992 C   0  0  0  0  0  0  0  0  0  0  0  0
    8.5399   -2.6514    1.6067 H   0  0  0  0  0  0  0  0  0  0  0  0
    9.6354   -1.7054    2.6326 H   0  0  0  0  0  0  0  0  0  0  0  0
   10.6333   -2.8288    1.0820 C   0  0  0  0  0  0  0  0  0  0  0  0
   10.4138   -3.1856    0.0677 H   0  0  0  0  0  0  0  0  0  0  0  0
   10.8121   -3.6985    1.7291 H   0  0  0  0  0  0  0  0  0  0  0  0
   14.2653   -2.5294    1.4071 C   0  0  0  0  0  0  0  0  0  0  0  0
   14.4822   -2.1014    2.6874 N   0  0  0  0  0  0  0  0  0  0  0  0
   15.4044   -2.2889    3.0798 H   0  0  0  0  0  0  0  0  0  0  0  0
   13.6770   -2.0641    3.3109 H   0  0  0  0  0  0  0  0  0  0  0  0
   15.2826   -2.8969    0.6982 N   0  0  0  0  0  4  0  0  0  0  0  0
   16.2452   -2.9112    1.0403 H   0  0  0  0  0  0  0  0  0  0  0  0
   15.3787   -0.8628   -1.4408 C   0  0  0  0  0  0  0  0  0  0  0  0
   14.9579   -0.5184   -0.5011 H   0  0  0  0  0  0  0  0  0  0  0  0
   15.5276    1.9835   -0.7689 C   0  0  0  0  0  0  0  0  0  0  0  0
   15.4283    1.2721    0.0463 H   0  0  0  0  0  0  0  0  0  0  0  0
   15.4426    3.3560   -0.5431 C   0  0  0  0  0  0  0  0  0  0  0  0
   15.2559    3.7409    0.4523 H   0  0  0  0  0  0  0  0  0  0  0  0
  1  2  1  0
  2  3  2  0
  3  4  1  0
  4  5  1  0
  4  6  2  0
  6  7  1  0
  7  8  2  0
  8  9  1  0
  8 10  1  0
 10 11  1  0
 10 12  2  0
 12 13  1  0
 12 14  1  0
 15 14  1  6
 15 16  1  0
 16 17  2  0
 17 18  1  0
 17 19  1  0
 19 20  1  0
 19 21  2  0
 21 22  1  0
 21 23  1  0
 23 24  1  0
 23 25  2  0
 25 26  1  0
 15 27  1  0
 27 28  2  0
 27 29  1  0
 29 30  1  0
 30 31  1  0
 31 32  1  0
 31 33  1  0
 31 34  1  0
 34 35  1  0
 34 36  1  0
 34 37  1  0
 37 38  1  0
 38 39  2  0
 39 40  1  0
 39 41  1  0
 41 42  1  0
 41 43  2  0
 43 44  1  0
 43 45  1  0
 45 46  1  0
 45 47  2  0
 47 48  1  0
 37 49  1  0
 49 50  1  0
 49 51  1  0
 49 52  1  0
 52 53  1  0
 52 54  1  0
 29 55  1  0
 55 56  1  0
 56 57  1  0
 56 58  1  0
 55 59  2  0
 59 60  1  0
 14 61  2  0
 61 62  1  0
  6 63  1  0
 63 64  1  0
 63 65  2  0
 65 66  1  0
 65  2  1  0
 61  7  1  0
 59 15  1  0
 25 16  1  0
 52 30  1  0
 47 38  1  0
M  CHG  1  59   1
M  END
>  <score>  (295) 
5.51849

$$$$

     RDKit          3D

 56 59  0  0  0  0  0  0  0  0999 V2000
   15.5346    5.3247   -1.4113 H   0  0  0  0  0  0  0  0  0  0  0  0
   15.5874    4.2611   -1.6134 C   0  0  0  0  0  0  0  0  0  0  0  0
   15.8372    3.8538   -2.8665 N   0  0  0  0  0  0  0  0  0  0  0  0
   15.8937    2.5306   -3.0993 C   0  0  0  0  0  0  0  0  0  0  0  0
   16.0904    2.2019   -4.1150 H   0  0  0  0  0  0  0  0  0  0  0  0
   15.7058    1.5610   -2.0992 C   0  0  0  0  0  0  0  0  0  0  0  0
   15.7901    0.1229   -2.4047 C   0  0  0  0  0  0  0  0  0  0  0  0
   16.3311   -0.3089   -3.6216 C   0  0  0  0  0  0  0  0  0  0  0  0
   16.7068    0.4302   -4.3213 H   0  0  0  0  0  0  0  0  0  0  0  0
   16.4197   -1.6718   -3.9221 C   0  0  0  0  0  0  0  0  0  0  0  0
   16.8629   -1.9909   -4.8603 H   0  0  0  0  0  0  0  0  0  0  0  0
   15.9617   -2.6194   -3.0021 C   0  0  0  0  0  0  0  0  0  0  0  0
   16.0195   -3.6766   -3.2387 H   0  0  0  0  0  0  0  0  0  0  0  0
   15.4301   -2.2226   -1.7698 C   0  0  0  0  0  0  0  0  0  0  0  0
   14.8911   -3.2464   -0.7836 C   0  0  2  0  0  0  0  0  0  0  0  0
   15.2363   -4.6982   -1.0813 C   0  0  0  0  0  0  0  0  0  0  0  0
   16.4409   -5.2324   -0.6093 C   0  0  0  0  0  0  0  0  0  0  0  0
   17.1229   -4.5893   -0.0625 H   0  0  0  0  0  0  0  0  0  0  0  0
   16.7569   -6.5794   -0.8023 C   0  0  0  0  0  0  0  0  0  0  0  0
   17.6897   -6.9738   -0.4071 H   0  0  0  0  0  0  0  0  0  0  0  0
   15.8644   -7.4126   -1.4858 C   0  0  0  0  0  0  0  0  0  0  0  0
   16.0992   -8.4632   -1.6254 H   0  0  0  0  0  0  0  0  0  0  0  0
   14.6575   -6.8974   -1.9723 C   0  0  0  0  0  0  0  0  0  0  0  0
   13.9517   -7.5482   -2.4834 H   0  0  0  0  0  0  0  0  0  0  0  0
   14.3461   -5.5465   -1.7696 C   0  0  0  0  0  0  0  0  0  0  0  0
   13.3909   -5.1647   -2.1185 H   0  0  0  0  0  0  0  0  0  0  0  0
   13.3770   -3.0784   -0.6718 C   0  0  0  0  0  0  0  0  0  0  0  0
   12.5836   -3.2178   -1.6012 O   0  0  0  0  0  0  0  0  0  0  0  0
   13.0638   -2.7475    0.6339 N   0  0  0  0  0  0  0  0  0  0  0  0
   11.7271   -2.5273    1.1170 N   0  0  0  0  0  0  0  0  0  0  0  0
   11.4128   -1.1342    1.4076 C   0  0  0  0  0  0  0  0  0  0  0  0
   10.3923   -1.1159    1.7867 H   0  0  0  0  0  0  0  0  0  0  0  0
   12.1154   -0.8119    2.1810 H   0  0  0  0  0  0  0  0  0  0  0  0
   11.4731   -0.1574    0.2421 C   0  0  0  0  0  0  0  0  0  0  0  0
   10.7086   -0.3877   -0.5092 H   0  0  0  0  0  0  0  0  0  0  0  0
   12.4574   -0.2005   -0.2265 H   0  0  0  0  0  0  0  0  0  0  0  0
   11.2977    0.8562    0.6257 H   0  0  0  0  0  0  0  0  0  0  0  0
   11.2668   -3.4459    2.1750 C   0  0  0  0  0  0  0  0  0  0  0  0
   10.2917   -3.1284    2.5650 H   0  0  0  0  0  0  0  0  0  0  0  0
   11.9745   -3.4464    3.0106 H   0  0  0  0  0  0  0  0  0  0  0  0
   11.1480   -4.8292    1.5638 C   0  0  0  0  0  0  0  0  0  0  0  0
   12.1349   -5.1753    1.2431 H   0  0  0  0  0  0  0  0  0  0  0  0
   10.7435   -5.5390    2.2873 H   0  0  0  0  0  0  0  0  0  0  0  0
   10.4825   -4.7834    0.6963 H   0  0  0  0  0  0  0  0  0  0  0  0
   14.2638   -2.6555    1.3361 C   0  0  0  0  0  0  0  0  0  0  0  0
   14.4477   -2.3321    2.6526 N   0  0  0  0  0  0  0  0  0  0  0  0
   15.3960   -2.3308    3.0229 H   0  0  0  0  0  0  0  0  0  0  0  0
   13.6476   -2.1233    3.2512 H   0  0  0  0  0  0  0  0  0  0  0  0
   15.2945   -2.9199    0.5952 N   0  0  0  0  0  4  0  0  0  0  0  0
   16.2623   -2.9681    0.9249 H   0  0  0  0  0  0  0  0  0  0  0  0
   15.3343   -0.8441   -1.4923 C   0  0  0  0  0  0  0  0  0  0  0  0
   14.8734   -0.5173   -0.5641 H   0  0  0  0  0  0  0  0  0  0  0  0
   15.4586    1.9982   -0.7985 C   0  0  0  0  0  0  0  0  0  0  0  0
   15.3597    1.2744    0.0043 H   0  0  0  0  0  0  0  0  0  0  0  0
   15.3914    3.3672   -0.5589 C   0  0  0  0  0  0  0  0  0  0  0  0
   15.2032    3.7440    0.4390 H   0  0  0  0  0  0  0  0  0  0  0  0
  1  2  1  0
  2  3  2  0
  3  4  1  0
  4  5  1  0
  4  6  2  0
  6  7  1  0
  7  8  2  0
  8  9  1  0
  8 10  1  0
 10 11  1  0
 10 12  2  0
 12 13  1  0
 12 14  1  0
 15 14  1  6
 15 16  1  0
 16 17  2  0
 17 18  1  0
 17 19  1  0
 19 20  1  0
 19 21  2  0
 21 22  1  0
 21 23  1  0
 23 24  1  0
 23 25  2  0
 25 26  1  0
 15 27  1  0
 27 28  2  0
 27 29  1  0
 29 30  1  0
 30 31  1  0
 31 32  1  0
 31 33  1  0
 31 34  1  0
 34 35  1  0
 34 36  1  0
 34 37  1  0
 30 38  1  0
 38 39  1  0
 38 40  1  0
 38 41  1  0
 41 42  1  0
 41 43  1  0
 41 44  1  0
 29 45  1  0
 45 46  1  0
 46 47  1  0
 46 48  1  0
 45 49  2  0
 49 50  1  0
 14 51  2  0
 51 52  1  0
  6 53  1  0
 53 54  1  0
 53 55  2  0
 55 56  1  0
 55  2  1  0
 51  7  1  0
 49 15  1  0
 25 16  1  0
M  CHG  1  49   1
M  END
>  <score>  (296) 
5.5176

$$$$

     RDKit          3D

 57 61  0  0  0  0  0  0  0  0999 V2000
   15.5260    5.3163   -1.4164 H   0  0  0  0  0  0  0  0  0  0  0  0
   15.5835    4.2523   -1.6184 C   0  0  0  0  0  0  0  0  0  0  0  0
   15.8418    3.8447   -2.8703 N   0  0  0  0  0  0  0  0  0  0  0  0
   15.9027    2.5211   -3.1038 C   0  0  0  0  0  0  0  0  0  0  0  0
   16.1084    2.1848   -4.1159 H   0  0  0  0  0  0  0  0  0  0  0  0
   15.7141    1.5558   -2.0996 C   0  0  0  0  0  0  0  0  0  0  0  0
   15.7761    0.1209   -2.3917 C   0  0  0  0  0  0  0  0  0  0  0  0
   16.3236   -0.3134   -3.5997 C   0  0  0  0  0  0  0  0  0  0  0  0
   16.6931    0.4276   -4.3022 H   0  0  0  0  0  0  0  0  0  0  0  0
   16.4005   -1.6772   -3.8912 C   0  0  0  0  0  0  0  0  0  0  0  0
   16.8543   -2.0007   -4.8240 H   0  0  0  0  0  0  0  0  0  0  0  0
   15.9229   -2.6166   -2.9663 C   0  0  0  0  0  0  0  0  0  0  0  0
   15.9876   -3.6754   -3.1925 H   0  0  0  0  0  0  0  0  0  0  0  0
   15.3764   -2.2129   -1.7373 C   0  0  0  0  0  0  0  0  0  0  0  0
   14.8124   -3.2218   -0.7426 C   0  0  2  0  0  0  0  0  0  0  0  0
   15.1864   -4.6695   -1.0473 C   0  0  0  0  0  0  0  0  0  0  0  0
   16.4075   -5.1959   -0.5952 C   0  0  0  0  0  0  0  0  0  0  0  0
   17.0864   -4.5499   -0.0471 H   0  0  0  0  0  0  0  0  0  0  0  0
   16.7348   -6.5403   -0.8001 C   0  0  0  0  0  0  0  0  0  0  0  0
   17.6719   -6.9321   -0.4134 H   0  0  0  0  0  0  0  0  0  0  0  0
   15.8481   -7.3756   -1.4861 C   0  0  0  0  0  0  0  0  0  0  0  0
   16.0947   -8.4236   -1.6300 H   0  0  0  0  0  0  0  0  0  0  0  0
   14.6398   -6.8617   -1.9698 C   0  0  0  0  0  0  0  0  0  0  0  0
   13.9503   -7.5198   -2.4907 H   0  0  0  0  0  0  0  0  0  0  0  0
   14.3090   -5.5175   -1.7478 C   0  0  0  0  0  0  0  0  0  0  0  0
   13.3534   -5.1396   -2.0998 H   0  0  0  0  0  0  0  0  0  0  0  0
   13.2895   -3.0172   -0.5989 C   0  0  0  0  0  0  0  0  0  0  0  0
   12.4354   -3.1387   -1.4810 O   0  0  0  0  0  0  0  0  0  0  0  0
   13.0134   -2.6901    0.7109 N   0  0  0  0  0  0  0  0  0  0  0  0
   11.7509   -2.4547    1.2449 C   0  0  0  0  0  0  0  0  0  0  0  0
   11.3441   -3.1199    2.4003 C   0  0  0  0  0  0  0  0  0  0  0  0
   12.0273   -3.8198    2.8708 H   0  0  0  0  0  0  0  0  0  0  0  0
   10.0679   -2.9021    2.9259 C   0  0  0  0  0  0  0  0  0  0  0  0
    9.7541   -3.4274    3.8216 H   0  0  0  0  0  0  0  0  0  0  0  0
    9.2001   -2.0048    2.2952 C   0  0  0  0  0  0  0  0  0  0  0  0
    8.2232   -1.8128    2.7245 H   0  0  0  0  0  0  0  0  0  0  0  0
    9.5943   -1.3349    1.1238 C   0  0  0  0  0  0  0  0  0  0  0  0
    8.6530   -0.3842    0.4235 C   0  0  0  0  0  0  0  0  0  0  0  0
    7.6128   -0.7016    0.5630 H   0  0  0  0  0  0  0  0  0  0  0  0
    8.8369   -0.4021   -0.6561 H   0  0  0  0  0  0  0  0  0  0  0  0
    8.8585    0.9722    0.9539 N   0  0  0  0  0  0  0  0  0  0  0  0
    8.6538    0.9967    1.9536 H   0  0  0  0  0  0  0  0  0  0  0  0
    9.8235    1.2725    0.7976 H   0  0  0  0  0  0  0  0  0  0  0  0
   10.8841   -1.5630    0.6124 C   0  0  0  0  0  0  0  0  0  0  0  0
   11.2387   -1.0348   -0.2686 H   0  0  0  0  0  0  0  0  0  0  0  0
   14.2061   -2.6640    1.4053 C   0  0  0  0  0  0  0  0  0  0  0  0
   14.4032   -2.4056    2.7343 N   0  0  0  0  0  0  0  0  0  0  0  0
   13.6265   -2.0561    3.2952 H   0  0  0  0  0  0  0  0  0  0  0  0
   15.3617   -2.2705    3.0597 H   0  0  0  0  0  0  0  0  0  0  0  0
   15.2196   -2.9066    0.6422 N   0  0  0  0  0  4  0  0  0  0  0  0
   16.1784   -3.0084    0.9840 H   0  0  0  0  0  0  0  0  0  0  0  0
   15.2979   -0.8323   -1.4756 C   0  0  0  0  0  0  0  0  0  0  0  0
   14.8568   -0.4836   -0.5471 H   0  0  0  0  0  0  0  0  0  0  0  0
   15.4816    1.9892   -0.7996 C   0  0  0  0  0  0  0  0  0  0  0  0
   15.3821    1.2538   -0.0068 H   0  0  0  0  0  0  0  0  0  0  0  0
   15.4008    3.3572   -0.5620 C   0  0  0  0  0  0  0  0  0  0  0  0
   15.2131    3.7365    0.4340 H   0  0  0  0  0  0  0  0  0  0  0  0
  1  2  1  0
  2  3  2  0
  3  4  1  0
  4  5  1  0
  4  6  2  0
  6  7  1  0
  7  8  2  0
  8  9  1  0
  8 10  1  0
 10 11  1  0
 10 12  2  0
 12 13  1  0
 12 14  1  0
 15 14  1  6
 15 16  1  0
 16 17  2  0
 17 18  1  0
 17 19  1  0
 19 20  1  0
 19 21  2  0
 21 22  1  0
 21 23  1  0
 23 24  1  0
 23 25  2  0
 25 26  1  0
 15 27  1  0
 27 28  2  0
 27 29  1  0
 29 30  1  0
 30 31  2  0
 31 32  1  0
 31 33  1  0
 33 34  1  0
 33 35  2  0
 35 36  1  0
 35 37  1  0
 37 38  1  0
 38 39  1  0
 38 40  1  0
 38 41  1  0
 41 42  1  0
 41 43  1  0
 37 44  2  0
 44 45  1  0
 29 46  1  0
 46 47  1  0
 47 48  1  0
 47 49  1  0
 46 50  2  0
 50 51  1  0
 14 52  2  0
 52 53  1  0
  6 54  1  0
 54 55  1  0
 54 56  2  0
 56 57  1  0
 56  2  1  0
 52  7  1  0
 50 15  1  0
 25 16  1  0
 44 30  1  0
M  CHG  1  50   1
M  END
>  <score>  (297) 
5.51483

$$$$

     RDKit          3D

 57 62  0  0  0  0  0  0  0  0999 V2000
   15.5157    5.3197   -1.4191 H   0  0  0  0  0  0  0  0  0  0  0  0
   15.6014    4.2542   -1.6106 C   0  0  0  0  0  0  0  0  0  0  0  0
   15.8516    3.8405   -2.8619 N   0  0  0  0  0  0  0  0  0  0  0  0
   15.9462    2.5180   -3.0902 C   0  0  0  0  0  0  0  0  0  0  0  0
   16.1420    2.1866   -4.1054 H   0  0  0  0  0  0  0  0  0  0  0  0
   15.7853    1.5496   -2.0870 C   0  0  0  0  0  0  0  0  0  0  0  0
   15.8659    0.1139   -2.4025 C   0  0  0  0  0  0  0  0  0  0  0  0
   16.3593   -0.3301   -3.6380 C   0  0  0  0  0  0  0  0  0  0  0  0
   16.6903    0.3924   -4.3765 H   0  0  0  0  0  0  0  0  0  0  0  0
   16.4359   -1.6965   -3.9268 C   0  0  0  0  0  0  0  0  0  0  0  0
   16.8199   -2.0237   -4.8870 H   0  0  0  0  0  0  0  0  0  0  0  0
   16.0259   -2.6369   -2.9776 C   0  0  0  0  0  0  0  0  0  0  0  0
   16.0823   -3.6976   -3.2051 H   0  0  0  0  0  0  0  0  0  0  0  0
   15.5325   -2.2196   -1.7330 C   0  0  0  0  0  0  0  0  0  0  0  0
   15.0092   -3.2076   -0.7083 C   0  0  2  0  0  0  0  0  0  0  0  0
   15.3317   -4.6538   -1.0217 C   0  0  0  0  0  0  0  0  0  0  0  0
   16.5368   -5.2233   -0.5858 C   0  0  0  0  0  0  0  0  0  0  0  0
   17.2530   -4.6084   -0.0463 H   0  0  0  0  0  0  0  0  0  0  0  0
   16.8098   -6.5722   -0.8229 C   0  0  0  0  0  0  0  0  0  0  0  0
   17.7414   -6.9994   -0.4629 H   0  0  0  0  0  0  0  0  0  0  0  0
   15.8801   -7.3605   -1.5112 C   0  0  0  0  0  0  0  0  0  0  0  0
   16.0847   -8.4116   -1.6854 H   0  0  0  0  0  0  0  0  0  0  0  0
   14.6852   -6.7959   -1.9709 C   0  0  0  0  0  0  0  0  0  0  0  0
   13.9611   -7.4006   -2.5081 H   0  0  0  0  0  0  0  0  0  0  0  0
   14.4149   -5.4478   -1.7291 C   0  0  0  0  0  0  0  0  0  0  0  0
   13.4827   -5.0185   -2.0847 H   0  0  0  0  0  0  0  0  0  0  0  0
   13.5001   -2.9869   -0.5386 C   0  0  0  0  0  0  0  0  0  0  0  0
   12.6140   -3.1913   -1.3693 O   0  0  0  0  0  0  0  0  0  0  0  0
   13.2568   -2.6066    0.7650 N   0  0  0  0  0  0  0  0  0  0  0  0
   11.9839   -2.5138    1.3287 C   0  0  0  0  0  0  0  0  0  0  0  0
   11.0295   -1.6502    0.7616 C   0  0  0  0  0  0  0  0  0  0  0  0
   11.3299   -1.0245   -0.0787 H   0  0  0  0  0  0  0  0  0  0  0  0
    9.7701   -1.5848    1.2065 N   0  0  0  0  0  0  0  0  0  0  0  0
    9.4304   -2.4121    2.2081 C   0  0  0  0  0  0  0  0  0  0  0  0
    8.0992   -2.4226    2.5551 C   0  0  0  0  0  0  0  0  0  0  0  0
    7.5205   -1.7139    1.9984 H   0  0  0  0  0  0  0  0  0  0  0  0
    7.5953   -3.3126    3.5044 C   0  0  0  0  0  0  0  0  0  0  0  0
    6.5344   -3.3367    3.7321 H   0  0  0  0  0  0  0  0  0  0  0  0
    8.4828   -4.1650    4.1668 C   0  0  0  0  0  0  0  0  0  0  0  0
    8.1141   -4.8339    4.9326 H   0  0  0  0  0  0  0  0  0  0  0  0
    9.8465   -4.1642    3.8492 C   0  0  0  0  0  0  0  0  0  0  0  0
   10.5144   -4.8734    4.3345 H   0  0  0  0  0  0  0  0  0  0  0  0
   10.3207   -3.2932    2.8562 C   0  0  0  0  0  0  0  0  0  0  0  0
   11.6483   -3.2991    2.4346 C   0  0  0  0  0  0  0  0  0  0  0  0
   12.3993   -3.9305    2.9101 H   0  0  0  0  0  0  0  0  0  0  0  0
   14.4512   -2.6682    1.4456 C   0  0  0  0  0  0  0  0  0  0  0  0
   14.5839   -2.5011    2.7915 N   0  0  0  0  0  0  0  0  0  0  0  0
   13.7805   -2.1045    3.2770 H   0  0  0  0  0  0  0  0  0  0  0  0
   15.5096   -2.2203    3.1049 H   0  0  0  0  0  0  0  0  0  0  0  0
   15.4552   -2.8968    0.6671 N   0  0  0  0  0  4  0  0  0  0  0  0
   16.3898   -3.1083    1.0211 H   0  0  0  0  0  0  0  0  0  0  0  0
   15.4407   -0.8427   -1.4709 C   0  0  0  0  0  0  0  0  0  0  0  0
   15.0202   -0.5066   -0.5275 H   0  0  0  0  0  0  0  0  0  0  0  0
   15.5439    1.9897   -0.7823 C   0  0  0  0  0  0  0  0  0  0  0  0
   15.4431    1.2756    0.0311 H   0  0  0  0  0  0  0  0  0  0  0  0
   15.4491    3.3596   -0.5494 C   0  0  0  0  0  0  0  0  0  0  0  0
   15.2603    3.7371    0.4477 H   0  0  0  0  0  0  0  0  0  0  0  0
  1  2  1  0
  2  3  2  0
  3  4  1  0
  4  5  1  0
  4  6  2  0
  6  7  1  0
  7  8  2  0
  8  9  1  0
  8 10  1  0
 10 11  1  0
 10 12  2  0
 12 13  1  0
 12 14  1  0
 15 14  1  6
 15 16  1  0
 16 17  2  0
 17 18  1  0
 17 19  1  0
 19 20  1  0
 19 21  2  0
 21 22  1  0
 21 23  1  0
 23 24  1  0
 23 25  2  0
 25 26  1  0
 15 27  1  0
 27 28  2  0
 27 29  1  0
 29 30  1  0
 30 31  2  0
 31 32  1  0
 31 33  1  0
 33 34  2  0
 34 35  1  0
 35 36  1  0
 35 37  2  0
 37 38  1  0
 37 39  1  0
 39 40  1  0
 39 41  2  0
 41 42  1  0
 41 43  1  0
 43 44  2  0
 44 45  1  0
 29 46  1  0
 46 47  1  0
 47 48  1  0
 47 49  1  0
 46 50  2  0
 50 51  1  0
 14 52  2  0
 52 53  1  0
  6 54  1  0
 54 55  1  0
 54 56  2  0
 56 57  1  0
 56  2  1  0
 52  7  1  0
 50 15  1  0
 25 16  1  0
 44 30  1  0
 43 34  1  0
M  CHG  1  50   1
M  END
>  <score>  (298) 
5.51403

$$$$

     RDKit          3D

 52 56  0  0  0  0  0  0  0  0999 V2000
   15.5689    5.3719   -1.3869 H   0  0  0  0  0  0  0  0  0  0  0  0
   15.5824    4.3030   -1.5957 C   0  0  0  0  0  0  0  0  0  0  0  0
   15.8195    3.8806   -2.8476 N   0  0  0  0  0  0  0  0  0  0  0  0
   15.8638    2.5523   -3.0882 C   0  0  0  0  0  0  0  0  0  0  0  0
   16.0490    2.2192   -4.1046 H   0  0  0  0  0  0  0  0  0  0  0  0
   15.6869    1.5710   -2.0964 C   0  0  0  0  0  0  0  0  0  0  0  0
   15.7699    0.1178   -2.4102 C   0  0  0  0  0  0  0  0  0  0  0  0
   16.3489   -0.3216   -3.6091 C   0  0  0  0  0  0  0  0  0  0  0  0
   16.7214    0.4122   -4.3181 H   0  0  0  0  0  0  0  0  0  0  0  0
   16.4313   -1.6904   -3.9059 C   0  0  0  0  0  0  0  0  0  0  0  0
   16.8637   -2.0075   -4.8509 H   0  0  0  0  0  0  0  0  0  0  0  0
   15.9420   -2.6453   -3.0013 C   0  0  0  0  0  0  0  0  0  0  0  0
   16.0021   -3.7010   -3.2548 H   0  0  0  0  0  0  0  0  0  0  0  0
   15.3746   -2.2443   -1.7779 C   0  0  0  0  0  0  0  0  0  0  0  0
   14.7985   -3.2466   -0.7761 C   0  0  2  0  0  0  0  0  0  0  0  0
   15.1661   -4.7113   -1.0685 C   0  0  0  0  0  0  0  0  0  0  0  0
   16.3897   -5.2337   -0.6117 C   0  0  0  0  0  0  0  0  0  0  0  0
   17.0643   -4.5839   -0.0621 H   0  0  0  0  0  0  0  0  0  0  0  0
   16.7284   -6.5795   -0.8039 C   0  0  0  0  0  0  0  0  0  0  0  0
   17.6708   -6.9556   -0.4167 H   0  0  0  0  0  0  0  0  0  0  0  0
   15.8530   -7.4383   -1.4734 C   0  0  0  0  0  0  0  0  0  0  0  0
   16.1200   -8.4846   -1.6116 H   0  0  0  0  0  0  0  0  0  0  0  0
   14.6428   -6.9355   -1.9622 C   0  0  0  0  0  0  0  0  0  0  0  0
   13.9728   -7.6101   -2.4880 H   0  0  0  0  0  0  0  0  0  0  0  0
   14.3016   -5.5845   -1.7652 C   0  0  0  0  0  0  0  0  0  0  0  0
   13.3518   -5.2288   -2.1536 H   0  0  0  0  0  0  0  0  0  0  0  0
   13.2862   -3.0036   -0.5949 C   0  0  0  0  0  0  0  0  0  0  0  0
   12.4332   -3.0905   -1.4746 O   0  0  0  0  0  0  0  0  0  0  0  0
   13.0024   -2.6761    0.7164 N   0  0  0  0  0  0  0  0  0  0  0  0
   11.7461   -2.3433    1.2452 C   0  0  0  0  0  0  0  0  0  0  0  0
   11.1660   -3.1964    2.1868 C   0  0  0  0  0  0  0  0  0  0  0  0
   11.7033   -4.0886    2.4877 H   0  0  0  0  0  0  0  0  0  0  0  0
    9.9078   -2.9195    2.7288 C   0  0  0  0  0  0  0  0  0  0  0  0
    9.4659   -3.5889    3.4610 H   0  0  0  0  0  0  0  0  0  0  0  0
    9.2154   -1.7783    2.3206 C   0  0  0  0  0  0  0  0  0  0  0  0
    8.2589   -1.5306    2.7682 H   0  0  0  0  0  0  0  0  0  0  0  0
    9.7770   -0.9185    1.3708 C   0  0  0  0  0  0  0  0  0  0  0  0
    8.9241    0.5462    0.9500 Cl  0  0  0  0  0  0  0  0  0  0  0  0
   11.0521   -1.1861    0.8460 C   0  0  0  0  0  0  0  0  0  0  0  0
   11.7943   -0.0432   -0.2500 Cl  0  0  0  0  0  0  0  0  0  0  0  0
   14.2059   -2.6410    1.3787 C   0  0  0  0  0  0  0  0  0  0  0  0
   14.3960   -2.3388    2.6953 N   0  0  0  0  0  0  0  0  0  0  0  0
   13.5887   -2.1035    3.2694 H   0  0  0  0  0  0  0  0  0  0  0  0
   15.3364   -2.3549    3.0918 H   0  0  0  0  0  0  0  0  0  0  0  0
   15.2035   -2.9078    0.6022 N   0  0  0  0  0  4  0  0  0  0  0  0
   16.1746   -2.9144    0.9071 H   0  0  0  0  0  0  0  0  0  0  0  0
   15.2940   -0.8587   -1.5141 C   0  0  0  0  0  0  0  0  0  0  0  0
   14.8715   -0.5225   -0.5745 H   0  0  0  0  0  0  0  0  0  0  0  0
   15.4392    2.0246   -0.7981 C   0  0  0  0  0  0  0  0  0  0  0  0
   15.3005    1.3040   -0.0014 H   0  0  0  0  0  0  0  0  0  0  0  0
   15.3729    3.4004   -0.5525 C   0  0  0  0  0  0  0  0  0  0  0  0
   15.1675    3.7852    0.4392 H   0  0  0  0  0  0  0  0  0  0  0  0
  1  2  1  0
  2  3  2  0
  3  4  1  0
  4  5  1  0
  4  6  2  0
  6  7  1  0
  7  8  2  0
  8  9  1  0
  8 10  1  0
 10 11  1  0
 10 12  2  0
 12 13  1  0
 12 14  1  0
 15 14  1  6
 15 16  1  0
 16 17  2  0
 17 18  1  0
 17 19  1  0
 19 20  1  0
 19 21  2  0
 21 22  1  0
 21 23  1  0
 23 24  1  0
 23 25  2  0
 25 26  1  0
 15 27  1  0
 27 28  2  0
 27 29  1  0
 29 30  1  0
 30 31  2  0
 31 32  1  0
 31 33  1  0
 33 34  1  0
 33 35  2  0
 35 36  1  0
 35 37  1  0
 37 38  1  0
 37 39  2  0
 39 40  1  0
 29 41  1  0
 41 42  1  0
 42 43  1  0
 42 44  1  0
 41 45  2  0
 45 46  1  0
 14 47  2  0
 47 48  1  0
  6 49  1  0
 49 50  1  0
 49 51  2  0
 51 52  1  0
 51  2  1  0
 47  7  1  0
 45 15  1  0
 25 16  1  0
 39 30  1  0
M  CHG  1  45   1
M  END
>  <score>  (299) 
5.51403

$$$$

     RDKit          3D

 58 62  0  0  0  0  0  0  0  0999 V2000
   15.5476    5.3845   -1.4106 H   0  0  0  0  0  0  0  0  0  0  0  0
   15.6717    4.3250   -1.6138 C   0  0  0  0  0  0  0  0  0  0  0  0
   15.9421    3.9273   -2.8674 N   0  0  0  0  0  0  0  0  0  0  0  0
   16.0782    2.6086   -3.1052 C   0  0  0  0  0  0  0  0  0  0  0  0
   16.2815    2.2886   -4.1219 H   0  0  0  0  0  0  0  0  0  0  0  0
   15.9433    1.6306   -2.1092 C   0  0  0  0  0  0  0  0  0  0  0  0
   16.0305    0.1934   -2.4213 C   0  0  0  0  0  0  0  0  0  0  0  0
   16.4759   -0.3011   -3.6599 C   0  0  0  0  0  0  0  0  0  0  0  0
   16.8020    0.3880   -4.4322 H   0  0  0  0  0  0  0  0  0  0  0  0
   16.4849   -1.6823   -3.9109 C   0  0  0  0  0  0  0  0  0  0  0  0
   16.8147   -2.0618   -4.8731 H   0  0  0  0  0  0  0  0  0  0  0  0
   16.0535   -2.5762   -2.9248 C   0  0  0  0  0  0  0  0  0  0  0  0
   16.0363   -3.6443   -3.1253 H   0  0  0  0  0  0  0  0  0  0  0  0
   15.6162   -2.0992   -1.6813 C   0  0  0  0  0  0  0  0  0  0  0  0
   15.0170   -3.0078   -0.6335 C   0  0  2  0  0  0  0  0  0  0  0  0
   15.2801   -4.4750   -0.9278 C   0  0  0  0  0  0  0  0  0  0  0  0
   16.4854   -5.0610   -0.5228 C   0  0  0  0  0  0  0  0  0  0  0  0
   17.2059   -4.4623    0.0264 H   0  0  0  0  0  0  0  0  0  0  0  0
   16.7690   -6.3944   -0.8248 C   0  0  0  0  0  0  0  0  0  0  0  0
   17.7091   -6.8246   -0.4929 H   0  0  0  0  0  0  0  0  0  0  0  0
   15.8489   -7.1553   -1.5545 C   0  0  0  0  0  0  0  0  0  0  0  0
   16.0772   -8.1862   -1.8043 H   0  0  0  0  0  0  0  0  0  0  0  0
   14.6346   -6.5887   -1.9566 C   0  0  0  0  0  0  0  0  0  0  0  0
   13.9144   -7.1814   -2.5140 H   0  0  0  0  0  0  0  0  0  0  0  0
   14.3526   -5.2534   -1.6471 C   0  0  0  0  0  0  0  0  0  0  0  0
   13.4111   -4.8245   -1.9780 H   0  0  0  0  0  0  0  0  0  0  0  0
   13.5236   -2.6850   -0.5126 C   0  0  0  0  0  0  0  0  0  0  0  0
   12.6912   -2.8743   -1.4031 O   0  0  0  0  0  0  0  0  0  0  0  0
   13.2130   -2.2936    0.7712 N   0  0  0  0  0  0  0  0  0  0  0  0
   11.9961   -2.7145    1.2955 C   0  0  0  0  0  0  0  0  0  0  0  0
   10.8703   -2.6284    0.4766 C   0  0  0  0  0  0  0  0  0  0  0  0
   10.9431   -2.1037   -0.4700 H   0  0  0  0  0  0  0  0  0  0  0  0
    9.6944   -3.2622    0.8367 C   0  0  0  0  0  0  0  0  0  0  0  0
    8.8658   -3.2268    0.1313 H   0  0  0  0  0  0  0  0  0  0  0  0
    9.6226   -3.9477    2.0603 C   0  0  0  0  0  0  0  0  0  0  0  0
    8.0951   -4.8146    2.5062 S   0  0  0  0  0  0  0  0  0  0  0  0
    7.9380   -6.0350    1.7022 O   0  0  0  0  0  0  0  0  0  0  0  0
    7.9813   -5.0652    3.9522 O   0  0  0  0  0  0  0  0  0  0  0  0
    6.8247   -3.6564    1.9911 C   0  0  0  0  0  0  0  0  0  0  0  0
    7.2660   -2.8890    1.3514 H   0  0  0  0  0  0  0  0  0  0  0  0
    6.3860   -3.2031    2.8800 H   0  0  0  0  0  0  0  0  0  0  0  0
    6.0674   -4.2138    1.4405 H   0  0  0  0  0  0  0  0  0  0  0  0
   10.7292   -3.9804    2.9221 C   0  0  0  0  0  0  0  0  0  0  0  0
   10.6964   -4.4972    3.8807 H   0  0  0  0  0  0  0  0  0  0  0  0
   11.9135   -3.3687    2.5260 C   0  0  0  0  0  0  0  0  0  0  0  0
   12.7900   -3.4290    3.1605 H   0  0  0  0  0  0  0  0  0  0  0  0
   14.4105   -2.3264    1.4654 C   0  0  0  0  0  0  0  0  0  0  0  0
   14.5436   -2.0843    2.8016 N   0  0  0  0  0  0  0  0  0  0  0  0
   15.4710   -2.1217    3.2174 H   0  0  0  0  0  0  0  0  0  0  0  0
   13.8093   -1.5889    3.2967 H   0  0  0  0  0  0  0  0  0  0  0  0
   15.4299   -2.6540    0.7369 N   0  0  0  0  0  4  0  0  0  0  0  0
   16.3630   -2.8492    1.1110 H   0  0  0  0  0  0  0  0  0  0  0  0
   15.6066   -0.7223   -1.4560 C   0  0  0  0  0  0  0  0  0  0  0  0
   15.2266   -0.3555   -0.5089 H   0  0  0  0  0  0  0  0  0  0  0  0
   15.6777    2.0583   -0.8013 C   0  0  0  0  0  0  0  0  0  0  0  0
   15.5761    1.3429    0.0124 H   0  0  0  0  0  0  0  0  0  0  0  0
   15.5381    3.4207   -0.5588 C   0  0  0  0  0  0  0  0  0  0  0  0
   15.3254    3.7806    0.4413 H   0  0  0  0  0  0  0  0  0  0  0  0
  1  2  1  0
  2  3  2  0
  3  4  1  0
  4  5  1  0
  4  6  2  0
  6  7  1  0
  7  8  2  0
  8  9  1  0
  8 10  1  0
 10 11  1  0
 10 12  2  0
 12 13  1  0
 12 14  1  0
 15 14  1  6
 15 16  1  0
 16 17  2  0
 17 18  1  0
 17 19  1  0
 19 20  1  0
 19 21  2  0
 21 22  1  0
 21 23  1  0
 23 24  1  0
 23 25  2  0
 25 26  1  0
 15 27  1  0
 27 28  2  0
 27 29  1  0
 29 30  1  0
 30 31  2  0
 31 32  1  0
 31 33  1  0
 33 34  1  0
 33 35  2  0
 35 36  1  0
 36 37  2  0
 36 38  2  0
 36 39  1  0
 39 40  1  0
 39 41  1  0
 39 42  1  0
 35 43  1  0
 43 44  1  0
 43 45  2  0
 45 46  1  0
 29 47  1  0
 47 48  1  0
 48 49  1  0
 48 50  1  0
 47 51  2  0
 51 52  1  0
 14 53  2  0
 53 54  1  0
  6 55  1  0
 55 56  1  0
 55 57  2  0
 57 58  1  0
 57  2  1  0
 53  7  1  0
 51 15  1  0
 25 16  1  0
 45 30  1  0
M  CHG  1  51   1
M  END
>  <score>  (300) 
5.51116

$$$$

     RDKit          3D

 47 50  0  0  0  0  0  0  0  0999 V2000
   15.5407    5.3345   -1.4101 H   0  0  0  0  0  0  0  0  0  0  0  0
   15.5844    4.2680   -1.6105 C   0  0  0  0  0  0  0  0  0  0  0  0
   15.8373    3.8554   -2.8614 N   0  0  0  0  0  0  0  0  0  0  0  0
   15.8914    2.5310   -3.0970 C   0  0  0  0  0  0  0  0  0  0  0  0
   16.0837    2.2036   -4.1143 H   0  0  0  0  0  0  0  0  0  0  0  0
   15.7043    1.5615   -2.0952 C   0  0  0  0  0  0  0  0  0  0  0  0
   15.7739    0.1213   -2.3991 C   0  0  0  0  0  0  0  0  0  0  0  0
   16.3312   -0.3202   -3.6043 C   0  0  0  0  0  0  0  0  0  0  0  0
   16.7121    0.4080   -4.3148 H   0  0  0  0  0  0  0  0  0  0  0  0
   16.4068   -1.6859   -3.8952 C   0  0  0  0  0  0  0  0  0  0  0  0
   16.8570   -2.0113   -4.8284 H   0  0  0  0  0  0  0  0  0  0  0  0
   15.9182   -2.6263   -2.9798 C   0  0  0  0  0  0  0  0  0  0  0  0
   15.9817   -3.6841   -3.2165 H   0  0  0  0  0  0  0  0  0  0  0  0
   15.3620   -2.2193   -1.7582 C   0  0  0  0  0  0  0  0  0  0  0  0
   14.7942   -3.2179   -0.7574 C   0  0  2  0  0  0  0  0  0  0  0  0
   15.1561   -4.6778   -1.0442 C   0  0  0  0  0  0  0  0  0  0  0  0
   16.3801   -5.2007   -0.5905 C   0  0  0  0  0  0  0  0  0  0  0  0
   17.0655   -4.5544   -0.0511 H   0  0  0  0  0  0  0  0  0  0  0  0
   16.7201   -6.5427   -0.7947 C   0  0  0  0  0  0  0  0  0  0  0  0
   17.6667   -6.9214   -0.4183 H   0  0  0  0  0  0  0  0  0  0  0  0
   15.8422   -7.3899   -1.4747 C   0  0  0  0  0  0  0  0  0  0  0  0
   16.1083   -8.4334   -1.6269 H   0  0  0  0  0  0  0  0  0  0  0  0
   14.6311   -6.8848   -1.9605 C   0  0  0  0  0  0  0  0  0  0  0  0
   13.9576   -7.5500   -2.4940 H   0  0  0  0  0  0  0  0  0  0  0  0
   14.2886   -5.5388   -1.7472 C   0  0  0  0  0  0  0  0  0  0  0  0
   13.3353   -5.1767   -2.1233 H   0  0  0  0  0  0  0  0  0  0  0  0
   13.2782   -2.9779   -0.5845 C   0  0  0  0  0  0  0  0  0  0  0  0
   12.3426   -3.0501   -1.3671 O   0  0  0  0  0  0  0  0  0  0  0  0
   13.0839   -2.6667    0.7015 N   0  0  0  0  0  0  0  0  0  0  0  0
   11.6365   -2.1850    1.1863 S   0  0  0  0  0  0  0  0  0  0  0  0
   11.3477   -2.5589    2.5564 O   0  0  0  0  0  0  0  0  0  0  0  0
   10.5613   -2.3922    0.2239 O   0  0  0  0  0  0  0  0  0  0  0  0
   11.9864   -0.6161    1.2222 N   0  0  0  0  0  0  0  0  0  0  0  0
   11.0927   -0.1729    1.3780 H   0  0  0  0  0  0  0  0  0  0  0  0
   12.5640   -0.5293    2.0427 H   0  0  0  0  0  0  0  0  0  0  0  0
   14.2256   -2.5256    1.3825 C   0  0  0  0  0  0  0  0  0  0  0  0
   14.3168   -2.1350    2.6822 N   0  0  0  0  0  0  0  0  0  0  0  0
   13.4744   -2.1929    3.2439 H   0  0  0  0  0  0  0  0  0  0  0  0
   15.2115   -2.3225    3.1429 H   0  0  0  0  0  0  0  0  0  0  0  0
   15.2103   -2.8654    0.6249 N   0  0  0  0  0  4  0  0  0  0  0  0
   16.1728   -2.9716    0.9531 H   0  0  0  0  0  0  0  0  0  0  0  0
   15.2908   -0.8374   -1.4912 C   0  0  0  0  0  0  0  0  0  0  0  0
   14.8504   -0.4957   -0.5601 H   0  0  0  0  0  0  0  0  0  0  0  0
   15.4621    2.0032   -0.7949 C   0  0  0  0  0  0  0  0  0  0  0  0
   15.3451    1.2844    0.0103 H   0  0  0  0  0  0  0  0  0  0  0  0
   15.3903    3.3730   -0.5564 C   0  0  0  0  0  0  0  0  0  0  0  0
   15.1987    3.7520    0.4398 H   0  0  0  0  0  0  0  0  0  0  0  0
  1  2  1  0
  2  3  2  0
  3  4  1  0
  4  5  1  0
  4  6  2  0
  6  7  1  0
  7  8  2  0
  8  9  1  0
  8 10  1  0
 10 11  1  0
 10 12  2  0
 12 13  1  0
 12 14  1  0
 15 14  1  6
 15 16  1  0
 16 17  2  0
 17 18  1  0
 17 19  1  0
 19 20  1  0
 19 21  2  0
 21 22  1  0
 21 23  1  0
 23 24  1  0
 23 25  2  0
 25 26  1  0
 15 27  1  0
 27 28  2  0
 27 29  1  0
 29 30  1  0
 30 31  2  0
 30 32  2  0
 30 33  1  0
 33 34  1  0
 33 35  1  0
 29 36  1  0
 36 37  1  0
 37 38  1  0
 37 39  1  0
 36 40  2  0
 40 41  1  0
 14 42  2  0
 42 43  1  0
  6 44  1  0
 44 45  1  0
 44 46  2  0
 46 47  1  0
 46  2  1  0
 42  7  1  0
 40 15  1  0
 25 16  1  0
M  CHG  1  40   1
M  END
>  <score>  (301) 
5.51079

$$$$

     RDKit          3D

 64 68  0  0  0  0  0  0  0  0999 V2000
   15.5634    5.3525   -1.4039 H   0  0  0  0  0  0  0  0  0  0  0  0
   15.6366    4.2889   -1.6102 C   0  0  0  0  0  0  0  0  0  0  0  0
   15.8728    3.8885   -2.8684 N   0  0  0  0  0  0  0  0  0  0  0  0
   15.9708    2.5681   -3.1094 C   0  0  0  0  0  0  0  0  0  0  0  0
   16.1515    2.2444   -4.1290 H   0  0  0  0  0  0  0  0  0  0  0  0
   15.8388    1.5882   -2.1135 C   0  0  0  0  0  0  0  0  0  0  0  0
   15.9572    0.1554   -2.4449 C   0  0  0  0  0  0  0  0  0  0  0  0
   16.4203   -0.2808   -3.6969 C   0  0  0  0  0  0  0  0  0  0  0  0
   16.7233    0.4469   -4.4434 H   0  0  0  0  0  0  0  0  0  0  0  0
   16.4892   -1.6482   -3.9951 C   0  0  0  0  0  0  0  0  0  0  0  0
   16.8256   -1.9684   -4.9762 H   0  0  0  0  0  0  0  0  0  0  0  0
   16.1125   -2.5959   -3.0356 C   0  0  0  0  0  0  0  0  0  0  0  0
   16.1447   -3.6540   -3.2797 H   0  0  0  0  0  0  0  0  0  0  0  0
   15.6679   -2.1840   -1.7707 C   0  0  0  0  0  0  0  0  0  0  0  0
   15.1276   -3.1583   -0.7428 C   0  0  2  0  0  0  0  0  0  0  0  0
   15.4146   -4.6220   -1.0307 C   0  0  0  0  0  0  0  0  0  0  0  0
   16.5970   -5.2310   -0.5866 C   0  0  0  0  0  0  0  0  0  0  0  0
   17.3279   -4.6450   -0.0359 H   0  0  0  0  0  0  0  0  0  0  0  0
   16.8290   -6.5898   -0.8277 C   0  0  0  0  0  0  0  0  0  0  0  0
   17.7439   -7.0500   -0.4671 H   0  0  0  0  0  0  0  0  0  0  0  0
   15.8801   -7.3522   -1.5197 C   0  0  0  0  0  0  0  0  0  0  0  0
   16.0580   -8.4052   -1.7125 H   0  0  0  0  0  0  0  0  0  0  0  0
   14.6936   -6.7585   -1.9586 C   0  0  0  0  0  0  0  0  0  0  0  0
   13.9406   -7.3429   -2.4791 H   0  0  0  0  0  0  0  0  0  0  0  0
   14.4671   -5.4031   -1.7171 C   0  0  0  0  0  0  0  0  0  0  0  0
   13.5346   -4.9591   -2.0513 H   0  0  0  0  0  0  0  0  0  0  0  0
   13.6211   -2.9234   -0.6334 C   0  0  0  0  0  0  0  0  0  0  0  0
   12.7908   -3.0735   -1.5322 O   0  0  0  0  0  0  0  0  0  0  0  0
   13.3245   -2.6141    0.6691 N   0  0  0  0  0  0  0  0  0  0  0  0
   12.0751   -2.8290    1.2028 C   0  0  0  0  0  0  0  0  0  0  0  0
   10.9814   -2.3090    0.5179 C   0  0  0  0  0  0  0  0  0  0  0  0
   11.1295   -1.7448   -0.3973 H   0  0  0  0  0  0  0  0  0  0  0  0
    9.7128   -2.4616    1.0472 C   0  0  0  0  0  0  0  0  0  0  0  0
    8.8739   -1.9969    0.5370 H   0  0  0  0  0  0  0  0  0  0  0  0
    9.5379   -3.1077    2.2829 C   0  0  0  0  0  0  0  0  0  0  0  0
    8.2140   -2.9669    2.9825 C   0  0  0  0  0  0  0  0  0  0  0  0
    8.2206   -3.5471    4.4051 C   0  0  0  0  0  0  0  0  0  0  0  0
    8.6286   -4.5644    4.4117 H   0  0  0  0  0  0  0  0  0  0  0  0
    8.8304   -2.9193    5.0682 H   0  0  0  0  0  0  0  0  0  0  0  0
    7.1889   -3.5944    4.7756 H   0  0  0  0  0  0  0  0  0  0  0  0
    7.1197   -3.7073    2.2186 C   0  0  0  0  0  0  0  0  0  0  0  0
    7.3348   -4.7814    2.2140 H   0  0  0  0  0  0  0  0  0  0  0  0
    6.1548   -3.5594    2.7228 H   0  0  0  0  0  0  0  0  0  0  0  0
    7.0796   -3.3590    1.1811 H   0  0  0  0  0  0  0  0  0  0  0  0
    8.0088   -1.4378    3.0144 C   0  0  0  0  0  0  0  0  0  0  0  0
    7.0315   -1.1527    3.3956 H   0  0  0  0  0  0  0  0  0  0  0  0
    8.1087   -1.0102    2.0125 H   0  0  0  0  0  0  0  0  0  0  0  0
    8.7817   -0.9880    3.6461 H   0  0  0  0  0  0  0  0  0  0  0  0
   10.6398   -3.6851    2.9299 C   0  0  0  0  0  0  0  0  0  0  0  0
   10.5175   -4.1838    3.8845 H   0  0  0  0  0  0  0  0  0  0  0  0
   11.9126   -3.5482    2.3886 C   0  0  0  0  0  0  0  0  0  0  0  0
   12.7687   -3.9802    2.9045 H   0  0  0  0  0  0  0  0  0  0  0  0
   14.4937   -2.5828    1.3886 C   0  0  0  0  0  0  0  0  0  0  0  0
   14.6000   -2.3623    2.7344 N   0  0  0  0  0  0  0  0  0  0  0  0
   13.7998   -1.9896    3.2451 H   0  0  0  0  0  0  0  0  0  0  0  0
   15.5312   -2.2294    3.1176 H   0  0  0  0  0  0  0  0  0  0  0  0
   15.5190   -2.8170    0.6407 N   0  0  0  0  0  4  0  0  0  0  0  0
   16.4427   -3.0130    1.0220 H   0  0  0  0  0  0  0  0  0  0  0  0
   15.5822   -0.8096   -1.5036 C   0  0  0  0  0  0  0  0  0  0  0  0
   15.1847   -0.4827   -0.5483 H   0  0  0  0  0  0  0  0  0  0  0  0
   15.5841    2.0158   -0.8040 C   0  0  0  0  0  0  0  0  0  0  0  0
   15.4768    1.2989    0.0076 H   0  0  0  0  0  0  0  0  0  0  0  0
   15.4822    3.3839   -0.5578 C   0  0  0  0  0  0  0  0  0  0  0  0
   15.2889    3.7538    0.4423 H   0  0  0  0  0  0  0  0  0  0  0  0
  1  2  1  0
  2  3  2  0
  3  4  1  0
  4  5  1  0
  4  6  2  0
  6  7  1  0
  7  8  2  0
  8  9  1  0
  8 10  1  0
 10 11  1  0
 10 12  2  0
 12 13  1  0
 12 14  1  0
 15 14  1  6
 15 16  1  0
 16 17  2  0
 17 18  1  0
 17 19  1  0
 19 20  1  0
 19 21  2  0
 21 22  1  0
 21 23  1  0
 23 24  1  0
 23 25  2  0
 25 26  1  0
 15 27  1  0
 27 28  2  0
 27 29  1  0
 29 30  1  0
 30 31  2  0
 31 32  1  0
 31 33  1  0
 33 34  1  0
 33 35  2  0
 35 36  1  0
 36 37  1  0
 37 38  1  0
 37 39  1  0
 37 40  1  0
 36 41  1  0
 41 42  1  0
 41 43  1  0
 41 44  1  0
 36 45  1  0
 45 46  1  0
 45 47  1  0
 45 48  1  0
 35 49  1  0
 49 50  1  0
 49 51  2  0
 51 52  1  0
 29 53  1  0
 53 54  1  0
 54 55  1  0
 54 56  1  0
 53 57  2  0
 57 58  1  0
 14 59  2  0
 59 60  1  0
  6 61  1  0
 61 62  1  0
 61 63  2  0
 63 64  1  0
 63  2  1  0
 59  7  1  0
 57 15  1  0
 25 16  1  0
 51 30  1  0
M  CHG  1  57   1
M  END
>  <score>  (302) 
5.51049

$$$$

     RDKit          3D

 53 57  0  0  0  0  0  0  0  0999 V2000
    7.3906    1.0599    1.0722 H   0  0  0  0  0  0  0  0  0  0  0  0
    7.9944    0.1852    1.2342 C   0  0  0  0  0  0  0  0  0  0  0  0
    8.1756   -0.3535    2.4552 N   0  0  0  0  0  0  0  0  0  0  0  0
    9.0782   -1.3476    2.5718 C   0  0  0  0  0  0  0  0  0  0  0  0
    9.3459   -1.7116    3.5631 H   0  0  0  0  0  0  0  0  0  0  0  0
    9.7800   -1.8218    1.4574 C   0  0  0  0  0  0  0  0  0  0  0  0
   10.9205   -2.6629    1.5921 C   0  0  0  0  0  0  0  0  0  0  0  0
   12.0179   -3.1302    1.4230 C   0  0  0  0  0  0  0  0  0  0  0  0
   13.2402   -3.3727    0.9365 N   0  0  0  0  0  0  0  0  0  0  0  0
   13.5006   -3.2546   -0.4173 C   0  0  0  0  0  0  0  0  0  0  0  0
   12.6763   -3.2138   -1.3349 O   0  0  0  0  0  0  0  0  0  0  0  0
   15.0145   -3.2674   -0.6266 C   0  0  1  0  0  0  0  0  0  0  0  0
   15.3812   -4.6973   -0.9924 C   0  0  0  0  0  0  0  0  0  0  0  0
   16.5845   -5.2600   -0.5539 C   0  0  0  0  0  0  0  0  0  0  0  0
   17.2817   -4.6488    0.0143 H   0  0  0  0  0  0  0  0  0  0  0  0
   16.8764   -6.5997   -0.8235 C   0  0  0  0  0  0  0  0  0  0  0  0
   17.8084   -7.0215   -0.4636 H   0  0  0  0  0  0  0  0  0  0  0  0
   15.9718   -7.3881   -1.5421 C   0  0  0  0  0  0  0  0  0  0  0  0
   16.1949   -8.4311   -1.7346 H   0  0  0  0  0  0  0  0  0  0  0  0
   14.7744   -6.8360   -1.9977 C   0  0  0  0  0  0  0  0  0  0  0  0
   14.0667   -7.4455   -2.5494 H   0  0  0  0  0  0  0  0  0  0  0  0
   14.4867   -5.4966   -1.7357 C   0  0  0  0  0  0  0  0  0  0  0  0
   13.5474   -5.0819   -2.0920 H   0  0  0  0  0  0  0  0  0  0  0  0
   15.4873   -2.2397   -1.6545 C   0  0  0  0  0  0  0  0  0  0  0  0
   15.9645   -2.6604   -2.9063 C   0  0  0  0  0  0  0  0  0  0  0  0
   16.0091   -3.7244   -3.1233 H   0  0  0  0  0  0  0  0  0  0  0  0
   16.3840   -1.7357   -3.8674 C   0  0  0  0  0  0  0  0  0  0  0  0
   16.7645   -2.0848   -4.8230 H   0  0  0  0  0  0  0  0  0  0  0  0
   16.3260   -0.3663   -3.5893 C   0  0  0  0  0  0  0  0  0  0  0  0
   16.6624    0.3450   -4.3363 H   0  0  0  0  0  0  0  0  0  0  0  0
   15.8407    0.0937   -2.3555 C   0  0  0  0  0  0  0  0  0  0  0  0
   15.7770    1.5389   -2.0586 C   0  0  0  0  0  0  0  0  0  0  0  0
   15.9434    2.5008   -3.0694 C   0  0  0  0  0  0  0  0  0  0  0  0
   16.1293    2.1609   -4.0822 H   0  0  0  0  0  0  0  0  0  0  0  0
   15.8703    3.8278   -2.8540 N   0  0  0  0  0  0  0  0  0  0  0  0
   15.6323    4.2549   -1.6038 C   0  0  0  0  0  0  0  0  0  0  0  0
   15.5675    5.3232   -1.4162 H   0  0  0  0  0  0  0  0  0  0  0  0
   15.4648    3.3702   -0.5345 C   0  0  0  0  0  0  0  0  0  0  0  0
   15.2791    3.7561    0.4623 H   0  0  0  0  0  0  0  0  0  0  0  0
   15.5441    1.9964   -0.7582 C   0  0  0  0  0  0  0  0  0  0  0  0
   15.4370    1.2931    0.0630 H   0  0  0  0  0  0  0  0  0  0  0  0
   15.4185   -0.8551   -1.4043 C   0  0  0  0  0  0  0  0  0  0  0  0
   15.0284   -0.5043   -0.4544 H   0  0  0  0  0  0  0  0  0  0  0  0
   15.4263   -2.9597    0.7582 N   0  0  0  0  0  4  0  0  0  0  0  0
   16.3961   -2.8030    1.0464 H   0  0  0  0  0  0  0  0  0  0  0  0
   14.4233   -3.0291    1.5717 C   0  0  0  0  0  0  0  0  0  0  0  0
   14.5495   -2.6674    2.8836 N   0  0  0  0  0  0  0  0  0  0  0  0
   15.4080   -2.1778    3.1223 H   0  0  0  0  0  0  0  0  0  0  0  0
   13.6960   -2.3544    3.3407 H   0  0  0  0  0  0  0  0  0  0  0  0
    9.5086   -1.3240    0.1800 C   0  0  0  0  0  0  0  0  0  0  0  0
   10.0454   -1.6713   -0.7057 H   0  0  0  0  0  0  0  0  0  0  0  0
    8.5934   -0.2892    0.0797 C   0  0  0  0  0  0  0  0  0  0  0  0
    8.3603    0.2074   -0.8568 H   0  0  0  0  0  0  0  0  0  0  0  0
  1  2  1  0
  2  3  2  0
  3  4  1  0
  4  5  1  0
  4  6  2  0
  6  7  1  0
  7  8  3  0
  8  9  1  0
  9 10  1  0
 10 11  2  0
 10 12  1  0
 12 13  1  6
 13 14  2  0
 14 15  1  0
 14 16  1  0
 16 17  1  0
 16 18  2  0
 18 19  1  0
 18 20  1  0
 20 21  1  0
 20 22  2  0
 22 23  1  0
 12 24  1  0
 24 25  2  0
 25 26  1  0
 25 27  1  0
 27 28  1  0
 27 29  2  0
 29 30  1  0
 29 31  1  0
 31 32  1  0
 32 33  2  0
 33 34  1  0
 33 35  1  0
 35 36  2  0
 36 37  1  0
 36 38  1  0
 38 39  1  0
 38 40  2  0
 40 41  1  0
 31 42  2  0
 42 43  1  0
 12 44  1  0
 44 45  1  0
 44 46  2  0
 46 47  1  0
 47 48  1  0
 47 49  1  0
  6 50  1  0
 50 51  1  0
 50 52  2  0
 52 53  1  0
 52  2  1  0
 46  9  1  0
 22 13  1  0
 42 24  1  0
 40 32  1  0
M  CHG  1  44   1
M  END
>  <score>  (303) 
5.50919

$$$$

     RDKit          3D

 48 51  0  0  0  0  0  0  0  0999 V2000
   15.5468    5.3432   -1.3999 H   0  0  0  0  0  0  0  0  0  0  0  0
   15.5853    4.2762   -1.6085 C   0  0  0  0  0  0  0  0  0  0  0  0
   15.8270    3.8613   -2.8622 N   0  0  0  0  0  0  0  0  0  0  0  0
   15.8846    2.5349   -3.0957 C   0  0  0  0  0  0  0  0  0  0  0  0
   16.0810    2.1950   -4.1074 H   0  0  0  0  0  0  0  0  0  0  0  0
   15.7004    1.5628   -2.0985 C   0  0  0  0  0  0  0  0  0  0  0  0
   15.7751    0.1197   -2.4022 C   0  0  0  0  0  0  0  0  0  0  0  0
   16.3302   -0.3158   -3.6082 C   0  0  0  0  0  0  0  0  0  0  0  0
   16.7049    0.4306   -4.3017 H   0  0  0  0  0  0  0  0  0  0  0  0
   16.4182   -1.6815   -3.9028 C   0  0  0  0  0  0  0  0  0  0  0  0
   16.8603   -2.0015   -4.8417 H   0  0  0  0  0  0  0  0  0  0  0  0
   15.9400   -2.6316   -2.9889 C   0  0  0  0  0  0  0  0  0  0  0  0
   16.0004   -3.6903   -3.2297 H   0  0  0  0  0  0  0  0  0  0  0  0
   15.3826   -2.2318   -1.7619 C   0  0  0  0  0  0  0  0  0  0  0  0
   14.8214   -3.2469   -0.7617 C   0  0  2  0  0  0  0  0  0  0  0  0
   15.1908   -4.7001   -1.0679 C   0  0  0  0  0  0  0  0  0  0  0  0
   16.4096   -5.2250   -0.6070 C   0  0  0  0  0  0  0  0  0  0  0  0
   17.0847   -4.5758   -0.0560 H   0  0  0  0  0  0  0  0  0  0  0  0
   16.7418   -6.5704   -0.8056 C   0  0  0  0  0  0  0  0  0  0  0  0
   17.6764   -6.9600   -0.4115 H   0  0  0  0  0  0  0  0  0  0  0  0
   15.8582   -7.4152   -1.4833 C   0  0  0  0  0  0  0  0  0  0  0  0
   16.1045   -8.4653   -1.6186 H   0  0  0  0  0  0  0  0  0  0  0  0
   14.6486   -6.9084   -1.9691 C   0  0  0  0  0  0  0  0  0  0  0  0
   13.9611   -7.5709   -2.4878 H   0  0  0  0  0  0  0  0  0  0  0  0
   14.3174   -5.5592   -1.7643 C   0  0  0  0  0  0  0  0  0  0  0  0
   13.3633   -5.1846   -2.1233 H   0  0  0  0  0  0  0  0  0  0  0  0
   13.3061   -3.0335   -0.5929 C   0  0  0  0  0  0  0  0  0  0  0  0
   12.4864   -3.1049   -1.5074 O   0  0  0  0  0  0  0  0  0  0  0  0
   13.0121   -2.6865    0.7171 N   0  0  0  0  0  0  0  0  0  0  0  0
   11.7787   -2.0768    1.1542 O   0  0  0  0  0  0  0  0  0  0  0  0
   11.1059   -2.6414    2.2090 C   0  0  0  0  0  0  0  0  0  0  0  0
   11.4513   -3.6281    2.8453 O   0  0  0  0  0  0  0  0  0  0  0  0
    9.7924   -2.0391    2.6158 C   0  0  0  0  0  0  0  0  0  0  0  0
    9.8522   -1.7817    3.6709 H   0  0  0  0  0  0  0  0  0  0  0  0
    9.5883   -1.1284    2.0608 H   0  0  0  0  0  0  0  0  0  0  0  0
    8.9871   -2.7552    2.4502 H   0  0  0  0  0  0  0  0  0  0  0  0
   14.2380   -2.6111    1.3731 C   0  0  0  0  0  0  0  0  0  0  0  0
   14.4449   -2.2469    2.6785 N   0  0  0  0  0  0  0  0  0  0  0  0
   13.6400   -2.0988    3.2849 H   0  0  0  0  0  0  0  0  0  0  0  0
   15.3778   -2.3456    3.0799 H   0  0  0  0  0  0  0  0  0  0  0  0
   15.2397   -2.9284    0.6170 N   0  0  0  0  0  4  0  0  0  0  0  0
   16.2149   -2.9621    0.9264 H   0  0  0  0  0  0  0  0  0  0  0  0
   15.3063   -0.8469   -1.4943 C   0  0  0  0  0  0  0  0  0  0  0  0
   14.8687   -0.5020   -0.5633 H   0  0  0  0  0  0  0  0  0  0  0  0
   15.4568    2.0037   -0.7998 C   0  0  0  0  0  0  0  0  0  0  0  0
   15.3460    1.2670   -0.0100 H   0  0  0  0  0  0  0  0  0  0  0  0
   15.3885    3.3772   -0.5577 C   0  0  0  0  0  0  0  0  0  0  0  0
   15.1889    3.7631    0.4353 H   0  0  0  0  0  0  0  0  0  0  0  0
  1  2  1  0
  2  3  2  0
  3  4  1  0
  4  5  1  0
  4  6  2  0
  6  7  1  0
  7  8  2  0
  8  9  1  0
  8 10  1  0
 10 11  1  0
 10 12  2  0
 12 13  1  0
 12 14  1  0
 15 14  1  6
 15 16  1  0
 16 17  2  0
 17 18  1  0
 17 19  1  0
 19 20  1  0
 19 21  2  0
 21 22  1  0
 21 23  1  0
 23 24  1  0
 23 25  2  0
 25 26  1  0
 15 27  1  0
 27 28  2  0
 27 29  1  0
 29 30  1  0
 30 31  1  0
 31 32  2  0
 31 33  1  0
 33 34  1  0
 33 35  1  0
 33 36  1  0
 29 37  1  0
 37 38  1  0
 38 39  1  0
 38 40  1  0
 37 41  2  0
 41 42  1  0
 14 43  2  0
 43 44  1  0
  6 45  1  0
 45 46  1  0
 45 47  2  0
 47 48  1  0
 47  2  1  0
 43  7  1  0
 41 15  1  0
 25 16  1  0
M  CHG  1  41   1
M  END
>  <score>  (304) 
5.50802

$$$$

     RDKit          3D

 52 56  0  0  0  0  0  0  0  0999 V2000
   15.5692    5.3719   -1.3871 H   0  0  0  0  0  0  0  0  0  0  0  0
   15.5826    4.3030   -1.5955 C   0  0  0  0  0  0  0  0  0  0  0  0
   15.8191    3.8804   -2.8474 N   0  0  0  0  0  0  0  0  0  0  0  0
   15.8638    2.5523   -3.0882 C   0  0  0  0  0  0  0  0  0  0  0  0
   16.0486    2.2201   -4.1049 H   0  0  0  0  0  0  0  0  0  0  0  0
   15.6868    1.5711   -2.0963 C   0  0  0  0  0  0  0  0  0  0  0  0
   15.7696    0.1182   -2.4109 C   0  0  0  0  0  0  0  0  0  0  0  0
   16.3492   -0.3216   -3.6095 C   0  0  0  0  0  0  0  0  0  0  0  0
   16.7226    0.4113   -4.3187 H   0  0  0  0  0  0  0  0  0  0  0  0
   16.4314   -1.6904   -3.9060 C   0  0  0  0  0  0  0  0  0  0  0  0
   16.8639   -2.0078   -4.8509 H   0  0  0  0  0  0  0  0  0  0  0  0
   15.9419   -2.6450   -3.0011 C   0  0  0  0  0  0  0  0  0  0  0  0
   16.0026   -3.7007   -3.2549 H   0  0  0  0  0  0  0  0  0  0  0  0
   15.3734   -2.2438   -1.7780 C   0  0  0  0  0  0  0  0  0  0  0  0
   14.7965   -3.2459   -0.7759 C   0  0  2  0  0  0  0  0  0  0  0  0
   15.1653   -4.7107   -1.0682 C   0  0  0  0  0  0  0  0  0  0  0  0
   16.3891   -5.2333   -0.6114 C   0  0  0  0  0  0  0  0  0  0  0  0
   17.0644   -4.5841   -0.0621 H   0  0  0  0  0  0  0  0  0  0  0  0
   16.7282   -6.5794   -0.8039 C   0  0  0  0  0  0  0  0  0  0  0  0
   17.6708   -6.9555   -0.4168 H   0  0  0  0  0  0  0  0  0  0  0  0
   15.8531   -7.4384   -1.4733 C   0  0  0  0  0  0  0  0  0  0  0  0
   16.1201   -8.4848   -1.6115 H   0  0  0  0  0  0  0  0  0  0  0  0
   14.6429   -6.9357   -1.9622 C   0  0  0  0  0  0  0  0  0  0  0  0
   13.9728   -7.6104   -2.4878 H   0  0  0  0  0  0  0  0  0  0  0  0
   14.3016   -5.5846   -1.7652 C   0  0  0  0  0  0  0  0  0  0  0  0
   13.3518   -5.2295   -2.1538 H   0  0  0  0  0  0  0  0  0  0  0  0
   13.2835   -3.0033   -0.5960 C   0  0  0  0  0  0  0  0  0  0  0  0
   12.4310   -3.0916   -1.4763 O   0  0  0  0  0  0  0  0  0  0  0  0
   12.9966   -2.6733    0.7129 N   0  0  0  0  0  0  0  0  0  0  0  0
   11.7229   -2.4758    1.2607 C   0  0  0  0  0  0  0  0  0  0  0  0
   11.3227   -3.1949    2.3885 C   0  0  0  0  0  0  0  0  0  0  0  0
   12.0092   -3.9047    2.8362 H   0  0  0  0  0  0  0  0  0  0  0  0
   10.0440   -3.0211    2.9297 C   0  0  0  0  0  0  0  0  0  0  0  0
    9.7329   -3.5964    3.7960 H   0  0  0  0  0  0  0  0  0  0  0  0
    9.1608   -2.1066    2.3492 C   0  0  0  0  0  0  0  0  0  0  0  0
    8.1706   -1.9626    2.7667 H   0  0  0  0  0  0  0  0  0  0  0  0
    9.5545   -1.3673    1.2298 C   0  0  0  0  0  0  0  0  0  0  0  0
    8.4502   -0.2167    0.5170 Cl  0  0  0  0  0  0  0  0  0  0  0  0
   10.8317   -1.5617    0.6869 C   0  0  0  0  0  0  0  0  0  0  0  0
   11.1514   -0.9818   -0.1704 H   0  0  0  0  0  0  0  0  0  0  0  0
   14.1983   -2.6538    1.3815 C   0  0  0  0  0  0  0  0  0  0  0  0
   14.3939   -2.3526    2.6977 N   0  0  0  0  0  0  0  0  0  0  0  0
   13.6010   -2.0382    3.2537 H   0  0  0  0  0  0  0  0  0  0  0  0
   15.3354   -2.3787    3.0925 H   0  0  0  0  0  0  0  0  0  0  0  0
   15.1977   -2.9111    0.6043 N   0  0  0  0  0  4  0  0  0  0  0  0
   16.1685   -2.9136    0.9098 H   0  0  0  0  0  0  0  0  0  0  0  0
   15.2930   -0.8583   -1.5151 C   0  0  0  0  0  0  0  0  0  0  0  0
   14.8713   -0.5229   -0.5753 H   0  0  0  0  0  0  0  0  0  0  0  0
   15.4392    2.0248   -0.7976 C   0  0  0  0  0  0  0  0  0  0  0  0
   15.3011    1.3052   -0.0001 H   0  0  0  0  0  0  0  0  0  0  0  0
   15.3731    3.4006   -0.5522 C   0  0  0  0  0  0  0  0  0  0  0  0
   15.1682    3.7856    0.4395 H   0  0  0  0  0  0  0  0  0  0  0  0
  1  2  1  0
  2  3  2  0
  3  4  1  0
  4  5  1  0
  4  6  2  0
  6  7  1  0
  7  8  2  0
  8  9  1  0
  8 10  1  0
 10 11  1  0
 10 12  2  0
 12 13  1  0
 12 14  1  0
 15 14  1  6
 15 16  1  0
 16 17  2  0
 17 18  1  0
 17 19  1  0
 19 20  1  0
 19 21  2  0
 21 22  1  0
 21 23  1  0
 23 24  1  0
 23 25  2  0
 25 26  1  0
 15 27  1  0
 27 28  2  0
 27 29  1  0
 29 30  1  0
 30 31  2  0
 31 32  1  0
 31 33  1  0
 33 34  1  0
 33 35  2  0
 35 36  1  0
 35 37  1  0
 37 38  1  0
 37 39  2  0
 39 40  1  0
 29 41  1  0
 41 42  1  0
 42 43  1  0
 42 44  1  0
 41 45  2  0
 45 46  1  0
 14 47  2  0
 47 48  1  0
  6 49  1  0
 49 50  1  0
 49 51  2  0
 51 52  1  0
 51  2  1  0
 47  7  1  0
 45 15  1  0
 25 16  1  0
 39 30  1  0
M  CHG  1  45   1
M  END
>  <score>  (305) 
5.50665

$$$$

     RDKit          3D

 54 58  0  0  0  0  0  0  0  0999 V2000
   15.5469    5.3420   -1.3992 H   0  0  0  0  0  0  0  0  0  0  0  0
   15.5873    4.2769   -1.6083 C   0  0  0  0  0  0  0  0  0  0  0  0
   15.8275    3.8642   -2.8627 N   0  0  0  0  0  0  0  0  0  0  0  0
   15.8844    2.5382   -3.0967 C   0  0  0  0  0  0  0  0  0  0  0  0
   16.0792    2.1963   -4.1087 H   0  0  0  0  0  0  0  0  0  0  0  0
   15.7020    1.5678   -2.0977 C   0  0  0  0  0  0  0  0  0  0  0  0
   15.7761    0.1242   -2.4003 C   0  0  0  0  0  0  0  0  0  0  0  0
   16.3292   -0.3181   -3.6052 C   0  0  0  0  0  0  0  0  0  0  0  0
   16.7066    0.4253   -4.2989 H   0  0  0  0  0  0  0  0  0  0  0  0
   16.4134   -1.6847   -3.8969 C   0  0  0  0  0  0  0  0  0  0  0  0
   16.8626   -2.0051   -4.8308 H   0  0  0  0  0  0  0  0  0  0  0  0
   15.9281   -2.6303   -2.9838 C   0  0  0  0  0  0  0  0  0  0  0  0
   15.9891   -3.6900   -3.2160 H   0  0  0  0  0  0  0  0  0  0  0  0
   15.3614   -2.2203   -1.7641 C   0  0  0  0  0  0  0  0  0  0  0  0
   14.7700   -3.2187   -0.7656 C   0  0  2  0  0  0  0  0  0  0  0  0
   15.1514   -4.6826   -1.0532 C   0  0  0  0  0  0  0  0  0  0  0  0
   16.3782   -5.2051   -0.5949 C   0  0  0  0  0  0  0  0  0  0  0  0
   17.0638   -4.5590   -0.0547 H   0  0  0  0  0  0  0  0  0  0  0  0
   16.7249   -6.5489   -0.7990 C   0  0  0  0  0  0  0  0  0  0  0  0
   17.6649   -6.9390   -0.4177 H   0  0  0  0  0  0  0  0  0  0  0  0
   15.8532   -7.3997   -1.4814 C   0  0  0  0  0  0  0  0  0  0  0  0
   16.1035   -8.4490   -1.6168 H   0  0  0  0  0  0  0  0  0  0  0  0
   14.6409   -6.8991   -1.9645 C   0  0  0  0  0  0  0  0  0  0  0  0
   13.9630   -7.5659   -2.4891 H   0  0  0  0  0  0  0  0  0  0  0  0
   14.2932   -5.5531   -1.7534 C   0  0  0  0  0  0  0  0  0  0  0  0
   13.3424   -5.1830   -2.1243 H   0  0  0  0  0  0  0  0  0  0  0  0
   13.2438   -2.9742   -0.6009 C   0  0  0  0  0  0  0  0  0  0  0  0
   12.3473   -3.0740   -1.4342 O   0  0  0  0  0  0  0  0  0  0  0  0
   12.9887   -2.6866    0.7103 N   0  0  0  0  0  0  0  0  0  0  0  0
   11.7676   -2.3019    1.1864 C   0  0  0  0  0  0  0  0  0  0  0  0
   11.2828   -1.1732    0.6675 N   0  0  0  0  0  0  0  0  0  0  0  0
   10.1062   -0.7227    1.1279 C   0  0  0  0  0  0  0  0  0  0  0  0
    9.7469    0.2544    0.8083 H   0  0  0  0  0  0  0  0  0  0  0  0
    9.3569   -1.4271    2.0786 C   0  0  0  0  0  0  0  0  0  0  0  0
    8.4410   -0.9867    2.4429 H   0  0  0  0  0  0  0  0  0  0  0  0
    9.8363   -2.6318    2.5878 C   0  0  0  0  0  0  0  0  0  0  0  0
    9.2817   -3.1943    3.3379 H   0  0  0  0  0  0  0  0  0  0  0  0
   11.0718   -3.0792    2.1298 C   0  0  0  0  0  0  0  0  0  0  0  0
   11.5909   -4.3952    2.6146 C   0  0  0  0  0  0  0  0  0  0  0  0
   12.1023   -4.8997    1.7910 H   0  0  0  0  0  0  0  0  0  0  0  0
   12.2863   -4.2503    3.4473 H   0  0  0  0  0  0  0  0  0  0  0  0
   10.7542   -5.0186    2.9453 H   0  0  0  0  0  0  0  0  0  0  0  0
   14.1703   -2.6131    1.3833 C   0  0  0  0  0  0  0  0  0  0  0  0
   14.3578   -2.2987    2.6958 N   0  0  0  0  0  0  0  0  0  0  0  0
   13.5668   -2.0687    3.2946 H   0  0  0  0  0  0  0  0  0  0  0  0
   15.3042   -2.3211    3.0728 H   0  0  0  0  0  0  0  0  0  0  0  0
   15.1767   -2.8934    0.6233 N   0  0  0  0  0  4  0  0  0  0  0  0
   16.1401   -2.9493    0.9639 H   0  0  0  0  0  0  0  0  0  0  0  0
   15.2977   -0.8372   -1.4937 C   0  0  0  0  0  0  0  0  0  0  0  0
   14.8546   -0.4945   -0.5631 H   0  0  0  0  0  0  0  0  0  0  0  0
   15.4533    2.0072   -0.8001 C   0  0  0  0  0  0  0  0  0  0  0  0
   15.3453    1.2671   -0.0134 H   0  0  0  0  0  0  0  0  0  0  0  0
   15.3868    3.3793   -0.5586 C   0  0  0  0  0  0  0  0  0  0  0  0
   15.1876    3.7617    0.4339 H   0  0  0  0  0  0  0  0  0  0  0  0
  1  2  1  0
  2  3  2  0
  3  4  1  0
  4  5  1  0
  4  6  2  0
  6  7  1  0
  7  8  2  0
  8  9  1  0
  8 10  1  0
 10 11  1  0
 10 12  2  0
 12 13  1  0
 12 14  1  0
 15 14  1  6
 15 16  1  0
 16 17  2  0
 17 18  1  0
 17 19  1  0
 19 20  1  0
 19 21  2  0
 21 22  1  0
 21 23  1  0
 23 24  1  0
 23 25  2  0
 25 26  1  0
 15 27  1  0
 27 28  2  0
 27 29  1  0
 29 30  1  0
 30 31  2  0
 31 32  1  0
 32 33  1  0
 32 34  2  0
 34 35  1  0
 34 36  1  0
 36 37  1  0
 36 38  2  0
 38 39  1  0
 39 40  1  0
 39 41  1  0
 39 42  1  0
 29 43  1  0
 43 44  1  0
 44 45  1  0
 44 46  1  0
 43 47  2  0
 47 48  1  0
 14 49  2  0
 49 50  1  0
  6 51  1  0
 51 52  1  0
 51 53  2  0
 53 54  1  0
 53  2  1  0
 49  7  1  0
 47 15  1  0
 25 16  1  0
 38 30  1  0
M  CHG  1  47   1
M  END
>  <score>  (306) 
5.50663

$$$$

     RDKit          3D

 49 53  0  0  0  0  0  0  0  0999 V2000
   15.5459    5.3414   -1.3998 H   0  0  0  0  0  0  0  0  0  0  0  0
   15.5863    4.2762   -1.6088 C   0  0  0  0  0  0  0  0  0  0  0  0
   15.8270    3.8633   -2.8629 N   0  0  0  0  0  0  0  0  0  0  0  0
   15.8854    2.5376   -3.0974 C   0  0  0  0  0  0  0  0  0  0  0  0
   16.0824    2.1944   -4.1080 H   0  0  0  0  0  0  0  0  0  0  0  0
   15.7029    1.5677   -2.0981 C   0  0  0  0  0  0  0  0  0  0  0  0
   15.7779    0.1253   -2.4004 C   0  0  0  0  0  0  0  0  0  0  0  0
   16.3303   -0.3144   -3.6060 C   0  0  0  0  0  0  0  0  0  0  0  0
   16.7041    0.4311   -4.2993 H   0  0  0  0  0  0  0  0  0  0  0  0
   16.4158   -1.6814   -3.8988 C   0  0  0  0  0  0  0  0  0  0  0  0
   16.8610   -2.0049   -4.8340 H   0  0  0  0  0  0  0  0  0  0  0  0
   15.9351   -2.6271   -2.9829 C   0  0  0  0  0  0  0  0  0  0  0  0
   15.9908   -3.6866   -3.2170 H   0  0  0  0  0  0  0  0  0  0  0  0
   15.3766   -2.2195   -1.7592 C   0  0  0  0  0  0  0  0  0  0  0  0
   14.7907   -3.2249   -0.7671 C   0  0  2  0  0  0  0  0  0  0  0  0
   15.1653   -4.6840   -1.0662 C   0  0  0  0  0  0  0  0  0  0  0  0
   16.3879   -5.2075   -0.6036 C   0  0  0  0  0  0  0  0  0  0  0  0
   17.0659   -4.5597   -0.0558 H   0  0  0  0  0  0  0  0  0  0  0  0
   16.7284   -6.5522   -0.8017 C   0  0  0  0  0  0  0  0  0  0  0  0
   17.6659   -6.9427   -0.4149 H   0  0  0  0  0  0  0  0  0  0  0  0
   15.8527   -7.4002   -1.4826 C   0  0  0  0  0  0  0  0  0  0  0  0
   16.1016   -8.4492   -1.6174 H   0  0  0  0  0  0  0  0  0  0  0  0
   14.6408   -6.8979   -1.9669 C   0  0  0  0  0  0  0  0  0  0  0  0
   13.9604   -7.5645   -2.4881 H   0  0  0  0  0  0  0  0  0  0  0  0
   14.2988   -5.5507   -1.7598 C   0  0  0  0  0  0  0  0  0  0  0  0
   13.3453   -5.1788   -2.1215 H   0  0  0  0  0  0  0  0  0  0  0  0
   13.2698   -2.9893   -0.6117 C   0  0  0  0  0  0  0  0  0  0  0  0
   12.3937   -3.1183   -1.4657 O   0  0  0  0  0  0  0  0  0  0  0  0
   13.0153   -2.7101    0.7055 N   0  0  0  0  0  0  0  0  0  0  0  0
   11.7603   -2.5975    1.2247 C   0  0  0  0  0  0  0  0  0  0  0  0
   10.7391   -2.2191    0.5030 N   0  0  0  0  0  0  0  0  0  0  0  0
    9.6714   -2.2570    1.3487 N   0  0  0  0  0  0  0  0  0  0  0  0
    8.7439   -1.9007    1.0987 H   0  0  0  0  0  0  0  0  0  0  0  0
   10.0070   -2.7736    2.5952 C   0  0  0  0  0  0  0  0  0  0  0  0
    9.3506   -3.0022    3.4297 H   0  0  0  0  0  0  0  0  0  0  0  0
   11.3514   -2.9813    2.5415 C   0  0  0  0  0  0  0  0  0  0  0  0
   11.9953   -3.4171    3.2971 H   0  0  0  0  0  0  0  0  0  0  0  0
   14.1881   -2.7041    1.4034 C   0  0  0  0  0  0  0  0  0  0  0  0
   14.3565   -2.4512    2.7318 N   0  0  0  0  0  0  0  0  0  0  0  0
   13.6073   -1.9833    3.2353 H   0  0  0  0  0  0  0  0  0  0  0  0
   15.3150   -2.3185    3.0538 H   0  0  0  0  0  0  0  0  0  0  0  0
   15.1939   -2.9288    0.6286 N   0  0  0  0  0  4  0  0  0  0  0  0
   16.1618   -2.9625    0.9593 H   0  0  0  0  0  0  0  0  0  0  0  0
   15.3053   -0.8365   -1.4909 C   0  0  0  0  0  0  0  0  0  0  0  0
   14.8620   -0.4905   -0.5628 H   0  0  0  0  0  0  0  0  0  0  0  0
   15.4569    2.0058   -0.8003 C   0  0  0  0  0  0  0  0  0  0  0  0
   15.3496    1.2632   -0.0158 H   0  0  0  0  0  0  0  0  0  0  0  0
   15.3881    3.3782   -0.5582 C   0  0  0  0  0  0  0  0  0  0  0  0
   15.1888    3.7632    0.4332 H   0  0  0  0  0  0  0  0  0  0  0  0
  1  2  1  0
  2  3  2  0
  3  4  1  0
  4  5  1  0
  4  6  2  0
  6  7  1  0
  7  8  2  0
  8  9  1  0
  8 10  1  0
 10 11  1  0
 10 12  2  0
 12 13  1  0
 12 14  1  0
 15 14  1  6
 15 16  1  0
 16 17  2  0
 17 18  1  0
 17 19  1  0
 19 20  1  0
 19 21  2  0
 21 22  1  0
 21 23  1  0
 23 24  1  0
 23 25  2  0
 25 26  1  0
 15 27  1  0
 27 28  2  0
 27 29  1  0
 29 30  1  0
 30 31  2  0
 31 32  1  0
 32 33  1  0
 32 34  1  0
 34 35  1  0
 34 36  2  0
 36 37  1  0
 29 38  1  0
 38 39  1  0
 39 40  1  0
 39 41  1  0
 38 42  2  0
 42 43  1  0
 14 44  2  0
 44 45  1  0
  6 46  1  0
 46 47  1  0
 46 48  2  0
 48 49  1  0
 48  2  1  0
 44  7  1  0
 42 15  1  0
 25 16  1  0
 36 30  1  0
M  CHG  1  42   1
M  END
>  <score>  (307) 
5.50079

$$$$

     RDKit          3D

 53 57  0  0  0  0  0  0  0  0999 V2000
   15.5669    5.3707   -1.3870 H   0  0  0  0  0  0  0  0  0  0  0  0
   15.5835    4.3017   -1.5975 C   0  0  0  0  0  0  0  0  0  0  0  0
   15.8188    3.8795   -2.8509 N   0  0  0  0  0  0  0  0  0  0  0  0
   15.8667    2.5509   -3.0888 C   0  0  0  0  0  0  0  0  0  0  0  0
   16.0516    2.2164   -4.1035 H   0  0  0  0  0  0  0  0  0  0  0  0
   15.6882    1.5697   -2.0978 C   0  0  0  0  0  0  0  0  0  0  0  0
   15.7701    0.1186   -2.4104 C   0  0  0  0  0  0  0  0  0  0  0  0
   16.3446   -0.3209   -3.6102 C   0  0  0  0  0  0  0  0  0  0  0  0
   16.7207    0.4148   -4.3140 H   0  0  0  0  0  0  0  0  0  0  0  0
   16.4319   -1.6899   -3.9048 C   0  0  0  0  0  0  0  0  0  0  0  0
   16.8638   -2.0058   -4.8501 H   0  0  0  0  0  0  0  0  0  0  0  0
   15.9423   -2.6446   -3.0000 C   0  0  0  0  0  0  0  0  0  0  0  0
   16.0011   -3.7014   -3.2503 H   0  0  0  0  0  0  0  0  0  0  0  0
   15.3706   -2.2407   -1.7790 C   0  0  0  0  0  0  0  0  0  0  0  0
   14.7972   -3.2441   -0.7777 C   0  0  2  0  0  0  0  0  0  0  0  0
   15.1661   -4.7086   -1.0681 C   0  0  0  0  0  0  0  0  0  0  0  0
   16.3894   -5.2310   -0.6090 C   0  0  0  0  0  0  0  0  0  0  0  0
   17.0653   -4.5818   -0.0612 H   0  0  0  0  0  0  0  0  0  0  0  0
   16.7300   -6.5760   -0.8051 C   0  0  0  0  0  0  0  0  0  0  0  0
   17.6700   -6.9555   -0.4159 H   0  0  0  0  0  0  0  0  0  0  0  0
   15.8541   -7.4353   -1.4740 C   0  0  0  0  0  0  0  0  0  0  0  0
   16.1177   -8.4826   -1.6118 H   0  0  0  0  0  0  0  0  0  0  0  0
   14.6434   -6.9328   -1.9621 C   0  0  0  0  0  0  0  0  0  0  0  0
   13.9718   -7.6055   -2.4877 H   0  0  0  0  0  0  0  0  0  0  0  0
   14.3026   -5.5821   -1.7652 C   0  0  0  0  0  0  0  0  0  0  0  0
   13.3524   -5.2239   -2.1492 H   0  0  0  0  0  0  0  0  0  0  0  0
   13.2844   -3.0012   -0.5974 C   0  0  0  0  0  0  0  0  0  0  0  0
   12.4311   -3.0942   -1.4781 O   0  0  0  0  0  0  0  0  0  0  0  0
   12.9975   -2.6773    0.7145 N   0  0  0  0  0  0  0  0  0  0  0  0
   11.7226   -2.4758    1.2639 C   0  0  0  0  0  0  0  0  0  0  0  0
   11.3207   -3.1941    2.3922 C   0  0  0  0  0  0  0  0  0  0  0  0
   12.0147   -3.9021    2.8351 H   0  0  0  0  0  0  0  0  0  0  0  0
   10.0422   -3.0173    2.9303 C   0  0  0  0  0  0  0  0  0  0  0  0
    9.7328   -3.5942    3.7962 H   0  0  0  0  0  0  0  0  0  0  0  0
    9.1608   -2.1001    2.3505 C   0  0  0  0  0  0  0  0  0  0  0  0
    8.1742   -1.9691    2.7819 H   0  0  0  0  0  0  0  0  0  0  0  0
    9.5547   -1.3562    1.2272 C   0  0  0  0  0  0  0  0  0  0  0  0
    8.6542   -0.4074    0.6445 C   0  0  0  0  0  0  0  0  0  0  0  0
    7.8971    0.3482    0.1773 N   0  0  0  0  0  0  0  0  0  0  0  0
   10.8354   -1.5591    0.6845 C   0  0  0  0  0  0  0  0  0  0  0  0
   11.1737   -0.9866   -0.1737 H   0  0  0  0  0  0  0  0  0  0  0  0
   14.2006   -2.6541    1.3805 C   0  0  0  0  0  0  0  0  0  0  0  0
   14.3948   -2.3567    2.6994 N   0  0  0  0  0  0  0  0  0  0  0  0
   13.6029   -2.0366    3.2558 H   0  0  0  0  0  0  0  0  0  0  0  0
   15.3390   -2.3728    3.0893 H   0  0  0  0  0  0  0  0  0  0  0  0
   15.2003   -2.9128    0.6050 N   0  0  0  0  0  4  0  0  0  0  0  0
   16.1706   -2.9193    0.9146 H   0  0  0  0  0  0  0  0  0  0  0  0
   15.2947   -0.8556   -1.5130 C   0  0  0  0  0  0  0  0  0  0  0  0
   14.8696   -0.5212   -0.5746 H   0  0  0  0  0  0  0  0  0  0  0  0
   15.4405    2.0216   -0.7994 C   0  0  0  0  0  0  0  0  0  0  0  0
   15.3070    1.2989   -0.0038 H   0  0  0  0  0  0  0  0  0  0  0  0
   15.3756    3.3984   -0.5526 C   0  0  0  0  0  0  0  0  0  0  0  0
   15.1688    3.7847    0.4395 H   0  0  0  0  0  0  0  0  0  0  0  0
  1  2  1  0
  2  3  2  0
  3  4  1  0
  4  5  1  0
  4  6  2  0
  6  7  1  0
  7  8  2  0
  8  9  1  0
  8 10  1  0
 10 11  1  0
 10 12  2  0
 12 13  1  0
 12 14  1  0
 15 14  1  6
 15 16  1  0
 16 17  2  0
 17 18  1  0
 17 19  1  0
 19 20  1  0
 19 21  2  0
 21 22  1  0
 21 23  1  0
 23 24  1  0
 23 25  2  0
 25 26  1  0
 15 27  1  0
 27 28  2  0
 27 29  1  0
 29 30  1  0
 30 31  2  0
 31 32  1  0
 31 33  1  0
 33 34  1  0
 33 35  2  0
 35 36  1  0
 35 37  1  0
 37 38  1  0
 38 39  3  0
 37 40  2  0
 40 41  1  0
 29 42  1  0
 42 43  1  0
 43 44  1  0
 43 45  1  0
 42 46  2  0
 46 47  1  0
 14 48  2  0
 48 49  1  0
  6 50  1  0
 50 51  1  0
 50 52  2  0
 52 53  1  0
 52  2  1  0
 48  7  1  0
 46 15  1  0
 25 16  1  0
 40 30  1  0
M  CHG  1  46   1
M  END
>  <score>  (308) 
5.50024

$$$$

     RDKit          3D

 53 57  0  0  0  0  0  0  0  0999 V2000
   15.5743    5.3159   -1.4088 H   0  0  0  0  0  0  0  0  0  0  0  0
   15.6284    4.2477   -1.5998 C   0  0  0  0  0  0  0  0  0  0  0  0
   15.8512    3.8289   -2.8537 N   0  0  0  0  0  0  0  0  0  0  0  0
   15.9167    2.5030   -3.0814 C   0  0  0  0  0  0  0  0  0  0  0  0
   16.0923    2.1671   -4.0980 H   0  0  0  0  0  0  0  0  0  0  0  0
   15.7634    1.5345   -2.0735 C   0  0  0  0  0  0  0  0  0  0  0  0
   15.8510    0.0917   -2.3818 C   0  0  0  0  0  0  0  0  0  0  0  0
   16.3276   -0.3420   -3.6263 C   0  0  0  0  0  0  0  0  0  0  0  0
   16.6427    0.3885   -4.3634 H   0  0  0  0  0  0  0  0  0  0  0  0
   16.4042   -1.7036   -3.9306 C   0  0  0  0  0  0  0  0  0  0  0  0
   16.7653   -2.0138   -4.9056 H   0  0  0  0  0  0  0  0  0  0  0  0
   16.0146   -2.6550   -2.9836 C   0  0  0  0  0  0  0  0  0  0  0  0
   16.0662   -3.7109   -3.2352 H   0  0  0  0  0  0  0  0  0  0  0  0
   15.5447   -2.2599   -1.7203 C   0  0  0  0  0  0  0  0  0  0  0  0
   15.0556   -3.2899   -0.7052 C   0  0  2  0  0  0  0  0  0  0  0  0
   15.4336   -4.7270   -1.0442 C   0  0  0  0  0  0  0  0  0  0  0  0
   16.6318   -5.3049   -0.5905 C   0  0  0  0  0  0  0  0  0  0  0  0
   17.3388   -4.7033   -0.0254 H   0  0  0  0  0  0  0  0  0  0  0  0
   16.9042   -6.6572   -0.8333 C   0  0  0  0  0  0  0  0  0  0  0  0
   17.8279   -7.0894   -0.4609 H   0  0  0  0  0  0  0  0  0  0  0  0
   15.9854   -7.4468   -1.5339 C   0  0  0  0  0  0  0  0  0  0  0  0
   16.1832   -8.5019   -1.7017 H   0  0  0  0  0  0  0  0  0  0  0  0
   14.7989   -6.8747   -2.0031 C   0  0  0  0  0  0  0  0  0  0  0  0
   14.0734   -7.4738   -2.5413 H   0  0  0  0  0  0  0  0  0  0  0  0
   14.5314   -5.5252   -1.7665 C   0  0  0  0  0  0  0  0  0  0  0  0
   13.5974   -5.0948   -2.1200 H   0  0  0  0  0  0  0  0  0  0  0  0
   13.5308   -3.2014   -0.5110 C   0  0  0  0  0  0  0  0  0  0  0  0
   12.6686   -3.2461   -1.3851 O   0  0  0  0  0  0  0  0  0  0  0  0
   13.2585   -3.0558    0.8311 N   0  0  0  0  0  0  0  0  0  0  0  0
   11.9561   -2.9175    1.3915 O   0  0  0  0  0  0  0  0  0  0  0  0
   11.3482   -1.7176    1.1131 C   0  0  0  0  0  0  0  0  0  0  0  0
   12.0303   -0.6499    0.4987 C   0  0  0  0  0  0  0  0  0  0  0  0
   13.0603   -0.7899    0.2017 H   0  0  0  0  0  0  0  0  0  0  0  0
   11.4097    0.5748    0.2449 C   0  0  0  0  0  0  0  0  0  0  0  0
   11.9550    1.3883   -0.2325 H   0  0  0  0  0  0  0  0  0  0  0  0
   10.0701    0.7271    0.6000 C   0  0  0  0  0  0  0  0  0  0  0  0
    9.5523    1.6648    0.4311 H   0  0  0  0  0  0  0  0  0  0  0  0
    9.3647   -0.3278    1.1777 C   0  0  0  0  0  0  0  0  0  0  0  0
    7.6761   -0.0986    1.4563 Cl  0  0  0  0  0  0  0  0  0  0  0  0
   10.0035   -1.5438    1.4570 C   0  0  0  0  0  0  0  0  0  0  0  0
    9.4561   -2.3631    1.9145 H   0  0  0  0  0  0  0  0  0  0  0  0
   14.4602   -2.8820    1.4852 C   0  0  0  0  0  0  0  0  0  0  0  0
   14.5922   -2.6200    2.8208 N   0  0  0  0  0  0  0  0  0  0  0  0
   13.7600   -2.3154    3.3183 H   0  0  0  0  0  0  0  0  0  0  0  0
   15.4938   -2.2756    3.1480 H   0  0  0  0  0  0  0  0  0  0  0  0
   15.4688   -2.9673    0.6758 N   0  0  0  0  0  4  0  0  0  0  0  0
   16.4424   -2.9499    0.9826 H   0  0  0  0  0  0  0  0  0  0  0  0
   15.4578   -0.8792   -1.4425 C   0  0  0  0  0  0  0  0  0  0  0  0
   15.0660   -0.5498   -0.4850 H   0  0  0  0  0  0  0  0  0  0  0  0
   15.5342    1.9828   -0.7697 C   0  0  0  0  0  0  0  0  0  0  0  0
   15.4333    1.2739    0.0478 H   0  0  0  0  0  0  0  0  0  0  0  0
   15.4604    3.3561   -0.5375 C   0  0  0  0  0  0  0  0  0  0  0  0
   15.2815    3.7428    0.4583 H   0  0  0  0  0  0  0  0  0  0  0  0
  1  2  1  0
  2  3  2  0
  3  4  1  0
  4  5  1  0
  4  6  2  0
  6  7  1  0
  7  8  2  0
  8  9  1  0
  8 10  1  0
 10 11  1  0
 10 12  2  0
 12 13  1  0
 12 14  1  0
 15 14  1  6
 15 16  1  0
 16 17  2  0
 17 18  1  0
 17 19  1  0
 19 20  1  0
 19 21  2  0
 21 22  1  0
 21 23  1  0
 23 24  1  0
 23 25  2  0
 25 26  1  0
 15 27  1  0
 27 28  2  0
 27 29  1  0
 29 30  1  0
 30 31  1  0
 31 32  2  0
 32 33  1  0
 32 34  1  0
 34 35  1  0
 34 36  2  0
 36 37  1  0
 36 38  1  0
 38 39  1  0
 38 40  2  0
 40 41  1  0
 29 42  1  0
 42 43  1  0
 43 44  1  0
 43 45  1  0
 42 46  2  0
 46 47  1  0
 14 48  2  0
 48 49  1  0
  6 50  1  0
 50 51  1  0
 50 52  2  0
 52 53  1  0
 52  2  1  0
 48  7  1  0
 46 15  1  0
 25 16  1  0
 40 31  1  0
M  CHG  1  46   1
M  END
>  <score>  (309) 
5.50018

$$$$

     RDKit          3D

 50 54  0  0  0  0  0  0  0  0999 V2000
    8.2554   -2.0716    2.6148 H   0  0  0  0  0  0  0  0  0  0  0  0
    9.2709   -2.2354    2.2686 C   0  0  0  0  0  0  0  0  0  0  0  0
   10.1018   -3.0060    2.9963 N   0  0  0  0  0  0  0  0  0  0  0  0
   11.3507   -3.1390    2.4977 C   0  0  0  0  0  0  0  0  0  0  0  0
   12.0679   -3.7488    3.0322 H   0  0  0  0  0  0  0  0  0  0  0  0
   11.7467   -2.5457    1.2667 C   0  0  0  0  0  0  0  0  0  0  0  0
   12.9996   -2.7124    0.7215 N   0  0  0  0  0  0  0  0  0  0  0  0
   13.2495   -2.9937   -0.6005 C   0  0  0  0  0  0  0  0  0  0  0  0
   12.3599   -3.1227   -1.4401 O   0  0  0  0  0  0  0  0  0  0  0  0
   14.7742   -3.2200   -0.7705 C   0  0  1  0  0  0  0  0  0  0  0  0
   15.1576   -4.6811   -1.0590 C   0  0  0  0  0  0  0  0  0  0  0  0
   16.3824   -5.2034   -0.5988 C   0  0  0  0  0  0  0  0  0  0  0  0
   17.0662   -4.5582   -0.0543 H   0  0  0  0  0  0  0  0  0  0  0  0
   16.7282   -6.5485   -0.8016 C   0  0  0  0  0  0  0  0  0  0  0  0
   17.6643   -6.9429   -0.4156 H   0  0  0  0  0  0  0  0  0  0  0  0
   15.8542   -7.3989   -1.4825 C   0  0  0  0  0  0  0  0  0  0  0  0
   16.1009   -8.4501   -1.6165 H   0  0  0  0  0  0  0  0  0  0  0  0
   14.6427   -6.8979   -1.9658 C   0  0  0  0  0  0  0  0  0  0  0  0
   13.9621   -7.5639   -2.4878 H   0  0  0  0  0  0  0  0  0  0  0  0
   14.2972   -5.5508   -1.7567 C   0  0  0  0  0  0  0  0  0  0  0  0
   13.3456   -5.1789   -2.1209 H   0  0  0  0  0  0  0  0  0  0  0  0
   15.3613   -2.2173   -1.7649 C   0  0  0  0  0  0  0  0  0  0  0  0
   15.9302   -2.6280   -2.9824 C   0  0  0  0  0  0  0  0  0  0  0  0
   15.9894   -3.6884   -3.2167 H   0  0  0  0  0  0  0  0  0  0  0  0
   16.4161   -1.6826   -3.8964 C   0  0  0  0  0  0  0  0  0  0  0  0
   16.8611   -2.0059   -4.8317 H   0  0  0  0  0  0  0  0  0  0  0  0
   16.3289   -0.3158   -3.6066 C   0  0  0  0  0  0  0  0  0  0  0  0
   16.7039    0.4335   -4.2961 H   0  0  0  0  0  0  0  0  0  0  0  0
   15.7783    0.1260   -2.4012 C   0  0  0  0  0  0  0  0  0  0  0  0
   15.7042    1.5679   -2.0993 C   0  0  0  0  0  0  0  0  0  0  0  0
   15.8859    2.5380   -3.0974 C   0  0  0  0  0  0  0  0  0  0  0  0
   16.0830    2.1910   -4.1072 H   0  0  0  0  0  0  0  0  0  0  0  0
   15.8253    3.8645   -2.8645 N   0  0  0  0  0  0  0  0  0  0  0  0
   15.5870    4.2771   -1.6092 C   0  0  0  0  0  0  0  0  0  0  0  0
   15.5458    5.3428   -1.3979 H   0  0  0  0  0  0  0  0  0  0  0  0
   15.3890    3.3783   -0.5591 C   0  0  0  0  0  0  0  0  0  0  0  0
   15.1876    3.7624    0.4329 H   0  0  0  0  0  0  0  0  0  0  0  0
   15.4567    2.0055   -0.8015 C   0  0  0  0  0  0  0  0  0  0  0  0
   15.3520    1.2603   -0.0185 H   0  0  0  0  0  0  0  0  0  0  0  0
   15.3018   -0.8338   -1.4932 C   0  0  0  0  0  0  0  0  0  0  0  0
   14.8619   -0.4854   -0.5637 H   0  0  0  0  0  0  0  0  0  0  0  0
   15.1833   -2.8998    0.6160 N   0  0  0  0  0  4  0  0  0  0  0  0
   16.1448   -2.9578    0.9556 H   0  0  0  0  0  0  0  0  0  0  0  0
   14.1830   -2.6602    1.3888 C   0  0  0  0  0  0  0  0  0  0  0  0
   14.3641   -2.3935    2.7136 N   0  0  0  0  0  0  0  0  0  0  0  0
   15.3220   -2.3157    3.0463 H   0  0  0  0  0  0  0  0  0  0  0  0
   13.5964   -2.0055    3.2617 H   0  0  0  0  0  0  0  0  0  0  0  0
   10.9027   -1.8077    0.5366 N   0  0  0  0  0  0  0  0  0  0  0  0
    9.6714   -1.6320    1.0601 C   0  0  0  0  0  0  0  0  0  0  0  0
    8.9567   -0.9945    0.5493 H   0  0  0  0  0  0  0  0  0  0  0  0
  1  2  1  0
  2  3  2  0
  3  4  1  0
  4  5  1  0
  4  6  2  0
  6  7  1  0
  7  8  1  0
  8  9  2  0
  8 10  1  0
 10 11  1  6
 11 12  2  0
 12 13  1  0
 12 14  1  0
 14 15  1  0
 14 16  2  0
 16 17  1  0
 16 18  1  0
 18 19  1  0
 18 20  2  0
 20 21  1  0
 10 22  1  0
 22 23  2  0
 23 24  1  0
 23 25  1  0
 25 26  1  0
 25 27  2  0
 27 28  1  0
 27 29  1  0
 29 30  1  0
 30 31  2  0
 31 32  1  0
 31 33  1  0
 33 34  2  0
 34 35  1  0
 34 36  1  0
 36 37  1  0
 36 38  2  0
 38 39  1  0
 29 40  2  0
 40 41  1  0
 10 42  1  0
 42 43  1  0
 42 44  2  0
 44 45  1  0
 45 46  1  0
 45 47  1  0
  6 48  1  0
 48 49  2  0
 49 50  1  0
 49  2  1  0
 44  7  1  0
 20 11  1  0
 40 22  1  0
 38 30  1  0
M  CHG  1  42   1
M  END
>  <score>  (310) 
5.49968

$$$$

     RDKit          3D

 51 55  0  0  0  0  0  0  0  0999 V2000
   15.5702    5.3720   -1.3882 H   0  0  0  0  0  0  0  0  0  0  0  0
   15.5847    4.3031   -1.5952 C   0  0  0  0  0  0  0  0  0  0  0  0
   15.8203    3.8811   -2.8472 N   0  0  0  0  0  0  0  0  0  0  0  0
   15.8633    2.5537   -3.0868 C   0  0  0  0  0  0  0  0  0  0  0  0
   16.0425    2.2300   -4.1063 H   0  0  0  0  0  0  0  0  0  0  0  0
   15.6844    1.5713   -2.0952 C   0  0  0  0  0  0  0  0  0  0  0  0
   15.7727    0.1189   -2.4104 C   0  0  0  0  0  0  0  0  0  0  0  0
   16.3470   -0.3224   -3.6126 C   0  0  0  0  0  0  0  0  0  0  0  0
   16.7280    0.4032   -4.3241 H   0  0  0  0  0  0  0  0  0  0  0  0
   16.4318   -1.6902   -3.9096 C   0  0  0  0  0  0  0  0  0  0  0  0
   16.8659   -2.0079   -4.8536 H   0  0  0  0  0  0  0  0  0  0  0  0
   15.9450   -2.6453   -3.0058 C   0  0  0  0  0  0  0  0  0  0  0  0
   16.0055   -3.7010   -3.2606 H   0  0  0  0  0  0  0  0  0  0  0  0
   15.3793   -2.2439   -1.7819 C   0  0  0  0  0  0  0  0  0  0  0  0
   14.8071   -3.2495   -0.7801 C   0  0  2  0  0  0  0  0  0  0  0  0
   15.1674   -4.7162   -1.0705 C   0  0  0  0  0  0  0  0  0  0  0  0
   16.3879   -5.2387   -0.6081 C   0  0  0  0  0  0  0  0  0  0  0  0
   17.0684   -4.5893   -0.0656 H   0  0  0  0  0  0  0  0  0  0  0  0
   16.7288   -6.5820   -0.8021 C   0  0  0  0  0  0  0  0  0  0  0  0
   17.6730   -6.9558   -0.4176 H   0  0  0  0  0  0  0  0  0  0  0  0
   15.8542   -7.4413   -1.4715 C   0  0  0  0  0  0  0  0  0  0  0  0
   16.1220   -8.4867   -1.6115 H   0  0  0  0  0  0  0  0  0  0  0  0
   14.6431   -6.9408   -1.9611 C   0  0  0  0  0  0  0  0  0  0  0  0
   13.9724   -7.6136   -2.4883 H   0  0  0  0  0  0  0  0  0  0  0  0
   14.3018   -5.5900   -1.7673 C   0  0  0  0  0  0  0  0  0  0  0  0
   13.3526   -5.2357   -2.1591 H   0  0  0  0  0  0  0  0  0  0  0  0
   13.2937   -3.0124   -0.6026 C   0  0  0  0  0  0  0  0  0  0  0  0
   12.4453   -3.0962   -1.4904 O   0  0  0  0  0  0  0  0  0  0  0  0
   12.9954   -2.6783    0.7105 N   0  0  0  0  0  0  0  0  0  0  0  0
   11.7056   -2.4994    1.2797 C   0  0  0  0  0  0  0  0  0  0  0  0
   10.7444   -1.6091    0.7365 C   0  0  0  0  0  0  0  0  0  0  0  0
   11.0440   -1.0322   -0.1268 H   0  0  0  0  0  0  0  0  0  0  0  0
    9.5019   -1.4335    1.2273 N   0  0  0  0  0  0  0  0  0  0  0  0
    9.1835   -2.1535    2.3099 C   0  0  0  0  0  0  0  0  0  0  0  0
    8.1913   -2.0355    2.7233 H   0  0  0  0  0  0  0  0  0  0  0  0
   10.0635   -3.0545    2.9170 C   0  0  0  0  0  0  0  0  0  0  0  0
    9.7285   -3.6137    3.7780 H   0  0  0  0  0  0  0  0  0  0  0  0
   11.3479   -3.2346    2.4081 C   0  0  0  0  0  0  0  0  0  0  0  0
   12.0480   -3.9374    2.8630 H   0  0  0  0  0  0  0  0  0  0  0  0
   14.2098   -2.6580    1.3762 C   0  0  0  0  0  0  0  0  0  0  0  0
   14.4005   -2.3555    2.6985 N   0  0  0  0  0  0  0  0  0  0  0  0
   15.3388   -2.3844    3.0998 H   0  0  0  0  0  0  0  0  0  0  0  0
   13.6071   -2.0318    3.2507 H   0  0  0  0  0  0  0  0  0  0  0  0
   15.2138   -2.9151    0.6013 N   0  0  0  0  0  4  0  0  0  0  0  0
   16.1870   -2.9071    0.9065 H   0  0  0  0  0  0  0  0  0  0  0  0
   15.2996   -0.8589   -1.5145 C   0  0  0  0  0  0  0  0  0  0  0  0
   14.8669   -0.5308   -0.5765 H   0  0  0  0  0  0  0  0  0  0  0  0
   15.4310    2.0266   -0.7964 C   0  0  0  0  0  0  0  0  0  0  0  0
   15.2936    1.3144    0.0082 H   0  0  0  0  0  0  0  0  0  0  0  0
   15.3705    3.4026   -0.5502 C   0  0  0  0  0  0  0  0  0  0  0  0
   15.1674    3.7878    0.4432 H   0  0  0  0  0  0  0  0  0  0  0  0
  1  2  1  0
  2  3  2  0
  3  4  1  0
  4  5  1  0
  4  6  2  0
  6  7  1  0
  7  8  2  0
  8  9  1  0
  8 10  1  0
 10 11  1  0
 10 12  2  0
 12 13  1  0
 12 14  1  0
 15 14  1  6
 15 16  1  0
 16 17  2  0
 17 18  1  0
 17 19  1  0
 19 20  1  0
 19 21  2  0
 21 22  1  0
 21 23  1  0
 23 24  1  0
 23 25  2  0
 25 26  1  0
 15 27  1  0
 27 28  2  0
 27 29  1  0
 29 30  1  0
 30 31  2  0
 31 32  1  0
 31 33  1  0
 33 34  2  0
 34 35  1  0
 34 36  1  0
 36 37  1  0
 36 38  2  0
 38 39  1  0
 29 40  1  0
 40 41  1  0
 41 42  1  0
 41 43  1  0
 40 44  2  0
 44 45  1  0
 14 46  2  0
 46 47  1  0
  6 48  1  0
 48 49  1  0
 48 50  2  0
 50 51  1  0
 50  2  1  0
 46  7  1  0
 44 15  1  0
 25 16  1  0
 38 30  1  0
M  CHG  1  44   1
M  END
>  <score>  (311) 
5.49792

$$$$

     RDKit          3D

 60 64  0  0  0  0  0  0  0  0999 V2000
   15.5366    5.3263   -1.4097 H   0  0  0  0  0  0  0  0  0  0  0  0
   15.5849    4.2620   -1.6128 C   0  0  0  0  0  0  0  0  0  0  0  0
   15.8358    3.8520   -2.8652 N   0  0  0  0  0  0  0  0  0  0  0  0
   15.8912    2.5279   -3.0990 C   0  0  0  0  0  0  0  0  0  0  0  0
   16.0922    2.1934   -4.1124 H   0  0  0  0  0  0  0  0  0  0  0  0
   15.7029    1.5589   -2.0977 C   0  0  0  0  0  0  0  0  0  0  0  0
   15.7770    0.1194   -2.3980 C   0  0  0  0  0  0  0  0  0  0  0  0
   16.3258   -0.3130   -3.6095 C   0  0  0  0  0  0  0  0  0  0  0  0
   16.7011    0.4280   -4.3071 H   0  0  0  0  0  0  0  0  0  0  0  0
   16.4084   -1.6765   -3.9095 C   0  0  0  0  0  0  0  0  0  0  0  0
   16.8598   -1.9985   -4.8438 H   0  0  0  0  0  0  0  0  0  0  0  0
   15.9425   -2.6246   -2.9905 C   0  0  0  0  0  0  0  0  0  0  0  0
   16.0042   -3.6820   -3.2262 H   0  0  0  0  0  0  0  0  0  0  0  0
   15.4060   -2.2283   -1.7561 C   0  0  0  0  0  0  0  0  0  0  0  0
   14.8586   -3.2517   -0.7642 C   0  0  2  0  0  0  0  0  0  0  0  0
   15.2171   -4.6995   -1.0724 C   0  0  0  0  0  0  0  0  0  0  0  0
   16.4287   -5.2288   -0.6082 C   0  0  0  0  0  0  0  0  0  0  0  0
   17.1038   -4.5808   -0.0571 H   0  0  0  0  0  0  0  0  0  0  0  0
   16.7496   -6.5749   -0.8032 C   0  0  0  0  0  0  0  0  0  0  0  0
   17.6847   -6.9649   -0.4095 H   0  0  0  0  0  0  0  0  0  0  0  0
   15.8597   -7.4106   -1.4873 C   0  0  0  0  0  0  0  0  0  0  0  0
   16.1002   -8.4600   -1.6247 H   0  0  0  0  0  0  0  0  0  0  0  0
   14.6519   -6.8967   -1.9742 C   0  0  0  0  0  0  0  0  0  0  0  0
   13.9538   -7.5532   -2.4873 H   0  0  0  0  0  0  0  0  0  0  0  0
   14.3317   -5.5483   -1.7646 C   0  0  0  0  0  0  0  0  0  0  0  0
   13.3771   -5.1676   -2.1153 H   0  0  0  0  0  0  0  0  0  0  0  0
   13.3414   -3.0651   -0.6261 C   0  0  0  0  0  0  0  0  0  0  0  0
   12.5381   -3.1593   -1.5578 O   0  0  0  0  0  0  0  0  0  0  0  0
   13.0488   -2.7053    0.6827 N   0  0  0  0  0  0  0  0  0  0  0  0
   11.8319   -2.0851    1.1282 N   0  0  0  0  0  0  0  0  0  0  0  0
   11.6386   -0.6959    0.6576 C   0  0  0  0  0  0  0  0  0  0  0  0
   11.2422   -0.0851    1.4535 H   0  0  0  0  0  0  0  0  0  0  0  0
   12.5934   -0.2553    0.3725 H   0  0  0  0  0  0  0  0  0  0  0  0
   10.6746   -0.5923   -0.5125 C   0  0  0  0  0  0  0  0  0  0  0  0
   11.1323   -1.0083   -1.4129 H   0  0  0  0  0  0  0  0  0  0  0  0
   10.4668    0.4596   -0.7242 H   0  0  0  0  0  0  0  0  0  0  0  0
    9.3804   -1.3303   -0.1799 C   0  0  0  0  0  0  0  0  0  0  0  0
    8.9118   -0.8774    0.7022 H   0  0  0  0  0  0  0  0  0  0  0  0
    8.4444   -1.1987   -1.3687 C   0  0  0  0  0  0  0  0  0  0  0  0
    8.9222   -1.6035   -2.2642 H   0  0  0  0  0  0  0  0  0  0  0  0
    7.5130   -1.7389   -1.1912 H   0  0  0  0  0  0  0  0  0  0  0  0
    8.2102   -0.1461   -1.5452 H   0  0  0  0  0  0  0  0  0  0  0  0
    9.6965   -2.8036    0.1044 C   0  0  0  0  0  0  0  0  0  0  0  0
   10.1735   -3.2461   -0.7742 H   0  0  0  0  0  0  0  0  0  0  0  0
    8.7728   -3.3586    0.2854 H   0  0  0  0  0  0  0  0  0  0  0  0
   10.6407   -2.9399    1.3057 C   0  0  0  0  0  0  0  0  0  0  0  0
   10.9351   -3.9903    1.4099 H   0  0  0  0  0  0  0  0  0  0  0  0
   10.1273   -2.6489    2.2271 H   0  0  0  0  0  0  0  0  0  0  0  0
   14.2599   -2.6358    1.3603 C   0  0  0  0  0  0  0  0  0  0  0  0
   14.4583   -2.2743    2.6674 N   0  0  0  0  0  0  0  0  0  0  0  0
   15.3953   -2.3432    3.0607 H   0  0  0  0  0  0  0  0  0  0  0  0
   13.6522   -2.1337    3.2752 H   0  0  0  0  0  0  0  0  0  0  0  0
   15.2726   -2.9325    0.6155 N   0  0  0  0  0  4  0  0  0  0  0  0
   16.2414   -2.9851    0.9459 H   0  0  0  0  0  0  0  0  0  0  0  0
   15.3144   -0.8466   -1.4866 C   0  0  0  0  0  0  0  0  0  0  0  0
   14.8675   -0.5077   -0.5568 H   0  0  0  0  0  0  0  0  0  0  0  0
   15.4634    1.9968   -0.7976 C   0  0  0  0  0  0  0  0  0  0  0  0
   15.3611    1.2660   -0.0016 H   0  0  0  0  0  0  0  0  0  0  0  0
   15.3912    3.3670   -0.5593 C   0  0  0  0  0  0  0  0  0  0  0  0
   15.2022    3.7480    0.4358 H   0  0  0  0  0  0  0  0  0  0  0  0
  1  2  1  0
  2  3  2  0
  3  4  1  0
  4  5  1  0
  4  6  2  0
  6  7  1  0
  7  8  2  0
  8  9  1  0
  8 10  1  0
 10 11  1  0
 10 12  2  0
 12 13  1  0
 12 14  1  0
 15 14  1  6
 15 16  1  0
 16 17  2  0
 17 18  1  0
 17 19  1  0
 19 20  1  0
 19 21  2  0
 21 22  1  0
 21 23  1  0
 23 24  1  0
 23 25  2  0
 25 26  1  0
 15 27  1  0
 27 28  2  0
 27 29  1  0
 29 30  1  0
 30 31  1  0
 31 32  1  0
 31 33  1  0
 31 34  1  0
 34 35  1  0
 34 36  1  0
 34 37  1  0
 37 38  1  0
 37 39  1  0
 39 40  1  0
 39 41  1  0
 39 42  1  0
 37 43  1  0
 43 44  1  0
 43 45  1  0
 43 46  1  0
 46 47  1  0
 46 48  1  0
 29 49  1  0
 49 50  1  0
 50 51  1  0
 50 52  1  0
 49 53  2  0
 53 54  1  0
 14 55  2  0
 55 56  1  0
  6 57  1  0
 57 58  1  0
 57 59  2  0
 59 60  1  0
 59  2  1  0
 55  7  1  0
 53 15  1  0
 25 16  1  0
 46 30  1  0
M  CHG  1  53   1
M  END
>  <score>  (312) 
5.4956

$$$$

     RDKit          3D

 50 53  0  0  0  0  0  0  0  0999 V2000
   15.5497    5.3465   -1.3967 H   0  0  0  0  0  0  0  0  0  0  0  0
   15.5867    4.2802   -1.6072 C   0  0  0  0  0  0  0  0  0  0  0  0
   15.8239    3.8653   -2.8614 N   0  0  0  0  0  0  0  0  0  0  0  0
   15.8813    2.5384   -3.0950 C   0  0  0  0  0  0  0  0  0  0  0  0
   16.0775    2.1962   -4.1059 H   0  0  0  0  0  0  0  0  0  0  0  0
   15.6973    1.5660   -2.0984 C   0  0  0  0  0  0  0  0  0  0  0  0
   15.7732    0.1206   -2.4036 C   0  0  0  0  0  0  0  0  0  0  0  0
   16.3285   -0.3167   -3.6099 C   0  0  0  0  0  0  0  0  0  0  0  0
   16.7057    0.4329   -4.2974 H   0  0  0  0  0  0  0  0  0  0  0  0
   16.4204   -1.6821   -3.9066 C   0  0  0  0  0  0  0  0  0  0  0  0
   16.8637   -1.9999   -4.8439 H   0  0  0  0  0  0  0  0  0  0  0  0
   15.9451   -2.6342   -2.9971 C   0  0  0  0  0  0  0  0  0  0  0  0
   16.0005   -3.6941   -3.2305 H   0  0  0  0  0  0  0  0  0  0  0  0
   15.3922   -2.2325   -1.7744 C   0  0  0  0  0  0  0  0  0  0  0  0
   14.8462   -3.2530   -0.7776 C   0  0  2  0  0  0  0  0  0  0  0  0
   15.2007   -4.7075   -1.0796 C   0  0  0  0  0  0  0  0  0  0  0  0
   16.4110   -5.2295   -0.6091 C   0  0  0  0  0  0  0  0  0  0  0  0
   17.0808   -4.5762   -0.0569 H   0  0  0  0  0  0  0  0  0  0  0  0
   16.7433   -6.5737   -0.8040 C   0  0  0  0  0  0  0  0  0  0  0  0
   17.6771   -6.9629   -0.4099 H   0  0  0  0  0  0  0  0  0  0  0  0
   15.8608   -7.4187   -1.4836 C   0  0  0  0  0  0  0  0  0  0  0  0
   16.1039   -8.4688   -1.6166 H   0  0  0  0  0  0  0  0  0  0  0  0
   14.6495   -6.9161   -1.9694 C   0  0  0  0  0  0  0  0  0  0  0  0
   13.9596   -7.5772   -2.4874 H   0  0  0  0  0  0  0  0  0  0  0  0
   14.3198   -5.5663   -1.7681 C   0  0  0  0  0  0  0  0  0  0  0  0
   13.3653   -5.1882   -2.1219 H   0  0  0  0  0  0  0  0  0  0  0  0
   13.3314   -3.0619   -0.6307 C   0  0  0  0  0  0  0  0  0  0  0  0
   12.5260   -3.1481   -1.5618 O   0  0  0  0  0  0  0  0  0  0  0  0
   13.0319   -2.7005    0.6752 N   0  0  0  0  0  0  0  0  0  0  0  0
   11.7965   -2.1080    1.1112 N   0  0  0  0  0  0  0  0  0  0  0  0
   11.8973   -0.6401    1.2158 C   0  0  0  0  0  0  0  0  0  0  0  0
   12.4591   -0.2221    0.3720 H   0  0  0  0  0  0  0  0  0  0  0  0
   12.4320   -0.3775    2.1303 H   0  0  0  0  0  0  0  0  0  0  0  0
   10.9086   -0.1805    1.2378 H   0  0  0  0  0  0  0  0  0  0  0  0
   11.0692   -2.8431    2.1695 C   0  0  0  0  0  0  0  0  0  0  0  0
    9.9997   -2.8690    1.9641 H   0  0  0  0  0  0  0  0  0  0  0  0
   11.2116   -2.3843    3.1444 H   0  0  0  0  0  0  0  0  0  0  0  0
   11.4228   -3.8753    2.2219 H   0  0  0  0  0  0  0  0  0  0  0  0
   14.2540   -2.6324    1.3491 C   0  0  0  0  0  0  0  0  0  0  0  0
   14.4469   -2.2875    2.6639 N   0  0  0  0  0  0  0  0  0  0  0  0
   15.3833   -2.3466    3.0677 H   0  0  0  0  0  0  0  0  0  0  0  0
   13.6351   -2.1767    3.2681 H   0  0  0  0  0  0  0  0  0  0  0  0
   15.2676   -2.9284    0.5993 N   0  0  0  0  0  4  0  0  0  0  0  0
   16.2407   -2.9690    0.9233 H   0  0  0  0  0  0  0  0  0  0  0  0
   15.3071   -0.8491   -1.4985 C   0  0  0  0  0  0  0  0  0  0  0  0
   14.8645   -0.5099   -0.5665 H   0  0  0  0  0  0  0  0  0  0  0  0
   15.4514    2.0071   -0.8007 C   0  0  0  0  0  0  0  0  0  0  0  0
   15.3456    1.2643   -0.0164 H   0  0  0  0  0  0  0  0  0  0  0  0
   15.3863    3.3817   -0.5575 C   0  0  0  0  0  0  0  0  0  0  0  0
   15.1850    3.7684    0.4336 H   0  0  0  0  0  0  0  0  0  0  0  0
  1  2  1  0
  2  3  2  0
  3  4  1  0
  4  5  1  0
  4  6  2  0
  6  7  1  0
  7  8  2  0
  8  9  1  0
  8 10  1  0
 10 11  1  0
 10 12  2  0
 12 13  1  0
 12 14  1  0
 15 14  1  6
 15 16  1  0
 16 17  2  0
 17 18  1  0
 17 19  1  0
 19 20  1  0
 19 21  2  0
 21 22  1  0
 21 23  1  0
 23 24  1  0
 23 25  2  0
 25 26  1  0
 15 27  1  0
 27 28  2  0
 27 29  1  0
 29 30  1  0
 30 31  1  0
 31 32  1  0
 31 33  1  0
 31 34  1  0
 30 35  1  0
 35 36  1  0
 35 37  1  0
 35 38  1  0
 29 39  1  0
 39 40  1  0
 40 41  1  0
 40 42  1  0
 39 43  2  0
 43 44  1  0
 14 45  2  0
 45 46  1  0
  6 47  1  0
 47 48  1  0
 47 49  2  0
 49 50  1  0
 49  2  1  0
 45  7  1  0
 43 15  1  0
 25 16  1  0
M  CHG  1  43   1
M  END
>  <score>  (313) 
5.49494

$$$$

     RDKit          3D

 61 65  0  0  0  0  0  0  0  0999 V2000
   15.5612    5.3637   -1.3896 H   0  0  0  0  0  0  0  0  0  0  0  0
   15.5852    4.2950   -1.6008 C   0  0  0  0  0  0  0  0  0  0  0  0
   15.8190    3.8745   -2.8550 N   0  0  0  0  0  0  0  0  0  0  0  0
   15.8721    2.5467   -3.0907 C   0  0  0  0  0  0  0  0  0  0  0  0
   16.0607    2.2084   -4.1036 H   0  0  0  0  0  0  0  0  0  0  0  0
   15.6916    1.5691   -2.0984 C   0  0  0  0  0  0  0  0  0  0  0  0
   15.7707    0.1203   -2.4096 C   0  0  0  0  0  0  0  0  0  0  0  0
   16.3381   -0.3183   -3.6119 C   0  0  0  0  0  0  0  0  0  0  0  0
   16.7151    0.4243   -4.3059 H   0  0  0  0  0  0  0  0  0  0  0  0
   16.4303   -1.6853   -3.9082 C   0  0  0  0  0  0  0  0  0  0  0  0
   16.8643   -2.0032   -4.8504 H   0  0  0  0  0  0  0  0  0  0  0  0
   15.9493   -2.6411   -3.0049 C   0  0  0  0  0  0  0  0  0  0  0  0
   16.0017   -3.7006   -3.2452 H   0  0  0  0  0  0  0  0  0  0  0  0
   15.3885   -2.2372   -1.7847 C   0  0  0  0  0  0  0  0  0  0  0  0
   14.8345   -3.2478   -0.7855 C   0  0  2  0  0  0  0  0  0  0  0  0
   15.1856   -4.7111   -1.0807 C   0  0  0  0  0  0  0  0  0  0  0  0
   16.3997   -5.2343   -0.6114 C   0  0  0  0  0  0  0  0  0  0  0  0
   17.0701   -4.5798   -0.0600 H   0  0  0  0  0  0  0  0  0  0  0  0
   16.7353   -6.5782   -0.8054 C   0  0  0  0  0  0  0  0  0  0  0  0
   17.6727   -6.9596   -0.4127 H   0  0  0  0  0  0  0  0  0  0  0  0
   15.8566   -7.4311   -1.4775 C   0  0  0  0  0  0  0  0  0  0  0  0
   16.1123   -8.4781   -1.6131 H   0  0  0  0  0  0  0  0  0  0  0  0
   14.6449   -6.9298   -1.9637 C   0  0  0  0  0  0  0  0  0  0  0  0
   13.9668   -7.5977   -2.4879 H   0  0  0  0  0  0  0  0  0  0  0  0
   14.3102   -5.5785   -1.7693 C   0  0  0  0  0  0  0  0  0  0  0  0
   13.3569   -5.2114   -2.1394 H   0  0  0  0  0  0  0  0  0  0  0  0
   13.3268   -3.0113   -0.6275 C   0  0  0  0  0  0  0  0  0  0  0  0
   12.4754   -3.1134   -1.5122 O   0  0  0  0  0  0  0  0  0  0  0  0
   13.0656   -2.6245    0.6723 N   0  0  0  0  0  0  0  0  0  0  0  0
   11.8097   -2.2080    1.1796 O   0  0  0  0  0  0  0  0  0  0  0  0
   11.0949   -3.3260    1.7114 C   0  0  0  0  0  0  0  0  0  0  0  0
   11.6658   -3.8218    2.5047 H   0  0  0  0  0  0  0  0  0  0  0  0
   10.8982   -4.0577    0.9219 H   0  0  0  0  0  0  0  0  0  0  0  0
    9.7877   -2.8200    2.2750 C   0  0  0  0  0  0  0  0  0  0  0  0
   10.0025   -2.1199    3.0932 H   0  0  0  0  0  0  0  0  0  0  0  0
    9.2514   -2.2737    1.4911 H   0  0  0  0  0  0  0  0  0  0  0  0
    8.9648   -3.9397    2.7658 N   0  0  0  0  0  0  0  0  0  0  0  0
    7.5736   -3.5621    3.0241 C   0  0  0  0  0  0  0  0  0  0  0  0
    7.5384   -2.5730    3.4886 H   0  0  0  0  0  0  0  0  0  0  0  0
    6.9811   -3.5243    2.1024 H   0  0  0  0  0  0  0  0  0  0  0  0
    7.0663   -4.6295    3.9802 C   0  0  0  0  0  0  0  0  0  0  0  0
    6.3730   -4.1973    4.7097 H   0  0  0  0  0  0  0  0  0  0  0  0
    6.5584   -5.4176    3.4205 H   0  0  0  0  0  0  0  0  0  0  0  0
    8.2943   -5.2407    4.6496 C   0  0  0  0  0  0  0  0  0  0  0  0
    8.3161   -5.0009    5.7168 H   0  0  0  0  0  0  0  0  0  0  0  0
    8.2739   -6.3304    4.5370 H   0  0  0  0  0  0  0  0  0  0  0  0
    9.5091   -4.6445    3.9419 C   0  0  0  0  0  0  0  0  0  0  0  0
   10.0176   -3.9338    4.6019 H   0  0  0  0  0  0  0  0  0  0  0  0
   10.2324   -5.4194    3.6589 H   0  0  0  0  0  0  0  0  0  0  0  0
   14.2663   -2.5997    1.3567 C   0  0  0  0  0  0  0  0  0  0  0  0
   14.4292   -2.3134    2.6903 N   0  0  0  0  0  0  0  0  0  0  0  0
   13.6073   -2.1156    3.2637 H   0  0  0  0  0  0  0  0  0  0  0  0
   15.3561   -2.3424    3.1088 H   0  0  0  0  0  0  0  0  0  0  0  0
   15.2645   -2.9130    0.5928 N   0  0  0  0  0  4  0  0  0  0  0  0
   16.2359   -2.9481    0.9044 H   0  0  0  0  0  0  0  0  0  0  0  0
   15.3032   -0.8538   -1.5106 C   0  0  0  0  0  0  0  0  0  0  0  0
   14.8685   -0.5182   -0.5738 H   0  0  0  0  0  0  0  0  0  0  0  0
   15.4438    2.0162   -0.8002 C   0  0  0  0  0  0  0  0  0  0  0  0
   15.3202    1.2831   -0.0107 H   0  0  0  0  0  0  0  0  0  0  0  0
   15.3806    3.3930   -0.5538 C   0  0  0  0  0  0  0  0  0  0  0  0
   15.1732    3.7813    0.4371 H   0  0  0  0  0  0  0  0  0  0  0  0
  1  2  1  0
  2  3  2  0
  3  4  1  0
  4  5  1  0
  4  6  2  0
  6  7  1  0
  7  8  2  0
  8  9  1  0
  8 10  1  0
 10 11  1  0
 10 12  2  0
 12 13  1  0
 12 14  1  0
 15 14  1  6
 15 16  1  0
 16 17  2  0
 17 18  1  0
 17 19  1  0
 19 20  1  0
 19 21  2  0
 21 22  1  0
 21 23  1  0
 23 24  1  0
 23 25  2  0
 25 26  1  0
 15 27  1  0
 27 28  2  0
 27 29  1  0
 29 30  1  0
 30 31  1  0
 31 32  1  0
 31 33  1  0
 31 34  1  0
 34 35  1  0
 34 36  1  0
 34 37  1  0
 37 38  1  0
 38 39  1  0
 38 40  1  0
 38 41  1  0
 41 42  1  0
 41 43  1  0
 41 44  1  0
 44 45  1  0
 44 46  1  0
 44 47  1  0
 47 48  1  0
 47 49  1  0
 29 50  1  0
 50 51  1  0
 51 52  1  0
 51 53  1  0
 50 54  2  0
 54 55  1  0
 14 56  2  0
 56 57  1  0
  6 58  1  0
 58 59  1  0
 58 60  2  0
 60 61  1  0
 60  2  1  0
 56  7  1  0
 54 15  1  0
 25 16  1  0
 47 37  1  0
M  CHG  1  54   1
M  END
>  <score>  (314) 
5.49484

$$$$

     RDKit          3D

 45 48  0  0  0  0  0  0  0  0999 V2000
   15.5697    5.3720   -1.3876 H   0  0  0  0  0  0  0  0  0  0  0  0
   15.5832    4.3030   -1.5952 C   0  0  0  0  0  0  0  0  0  0  0  0
   15.8194    3.8803   -2.8469 N   0  0  0  0  0  0  0  0  0  0  0  0
   15.8634    2.5527   -3.0878 C   0  0  0  0  0  0  0  0  0  0  0  0
   16.0465    2.2236   -4.1058 H   0  0  0  0  0  0  0  0  0  0  0  0
   15.6859    1.5714   -2.0955 C   0  0  0  0  0  0  0  0  0  0  0  0
   15.7707    0.1188   -2.4109 C   0  0  0  0  0  0  0  0  0  0  0  0
   16.3487   -0.3215   -3.6107 C   0  0  0  0  0  0  0  0  0  0  0  0
   16.7247    0.4082   -4.3214 H   0  0  0  0  0  0  0  0  0  0  0  0
   16.4315   -1.6894   -3.9086 C   0  0  0  0  0  0  0  0  0  0  0  0
   16.8646   -2.0085   -4.8520 H   0  0  0  0  0  0  0  0  0  0  0  0
   15.9435   -2.6444   -3.0062 C   0  0  0  0  0  0  0  0  0  0  0  0
   16.0046   -3.7002   -3.2586 H   0  0  0  0  0  0  0  0  0  0  0  0
   15.3768   -2.2448   -1.7839 C   0  0  0  0  0  0  0  0  0  0  0  0
   14.8115   -3.2539   -0.7827 C   0  0  2  0  0  0  0  0  0  0  0  0
   15.1744   -4.7170   -1.0724 C   0  0  0  0  0  0  0  0  0  0  0  0
   16.3932   -5.2381   -0.6101 C   0  0  0  0  0  0  0  0  0  0  0  0
   17.0675   -4.5863   -0.0629 H   0  0  0  0  0  0  0  0  0  0  0  0
   16.7295   -6.5824   -0.8027 C   0  0  0  0  0  0  0  0  0  0  0  0
   17.6723   -6.9559   -0.4165 H   0  0  0  0  0  0  0  0  0  0  0  0
   15.8537   -7.4402   -1.4727 C   0  0  0  0  0  0  0  0  0  0  0  0
   16.1209   -8.4860   -1.6114 H   0  0  0  0  0  0  0  0  0  0  0  0
   14.6433   -6.9385   -1.9616 C   0  0  0  0  0  0  0  0  0  0  0  0
   13.9723   -7.6115   -2.4878 H   0  0  0  0  0  0  0  0  0  0  0  0
   14.3043   -5.5879   -1.7666 C   0  0  0  0  0  0  0  0  0  0  0  0
   13.3539   -5.2320   -2.1553 H   0  0  0  0  0  0  0  0  0  0  0  0
   13.2974   -3.0433   -0.5905 C   0  0  0  0  0  0  0  0  0  0  0  0
   12.4224   -3.0967   -1.4487 O   0  0  0  0  0  0  0  0  0  0  0  0
   13.0232   -2.6693    0.7059 N   0  0  0  0  0  0  0  0  0  0  0  0
   11.7000   -2.5275    1.3053 C   0  0  0  0  0  0  0  0  0  0  0  0
   10.9413   -2.2849    0.5533 H   0  0  0  0  0  0  0  0  0  0  0  0
   11.6904   -1.7133    2.0361 H   0  0  0  0  0  0  0  0  0  0  0  0
   11.2815   -4.0648    2.1050 Cl  0  0  0  0  0  0  0  0  0  0  0  0
   14.2214   -2.6323    1.3679 C   0  0  0  0  0  0  0  0  0  0  0  0
   14.3935   -2.3437    2.6881 N   0  0  0  0  0  0  0  0  0  0  0  0
   13.5784   -2.1566    3.2677 H   0  0  0  0  0  0  0  0  0  0  0  0
   15.3321   -2.3489    3.0870 H   0  0  0  0  0  0  0  0  0  0  0  0
   15.2169   -2.8965    0.5921 N   0  0  0  0  0  4  0  0  0  0  0  0
   16.1837   -2.9161    0.9080 H   0  0  0  0  0  0  0  0  0  0  0  0
   15.2954   -0.8590   -1.5161 C   0  0  0  0  0  0  0  0  0  0  0  0
   14.8714   -0.5246   -0.5763 H   0  0  0  0  0  0  0  0  0  0  0  0
   15.4364    2.0255   -0.7967 C   0  0  0  0  0  0  0  0  0  0  0  0
   15.2984    1.3085    0.0037 H   0  0  0  0  0  0  0  0  0  0  0  0
   15.3722    3.4014   -0.5515 C   0  0  0  0  0  0  0  0  0  0  0  0
   15.1682    3.7872    0.4405 H   0  0  0  0  0  0  0  0  0  0  0  0
  1  2  1  0
  2  3  2  0
  3  4  1  0
  4  5  1  0
  4  6  2  0
  6  7  1  0
  7  8  2  0
  8  9  1  0
  8 10  1  0
 10 11  1  0
 10 12  2  0
 12 13  1  0
 12 14  1  0
 15 14  1  6
 15 16  1  0
 16 17  2  0
 17 18  1  0
 17 19  1  0
 19 20  1  0
 19 21  2  0
 21 22  1  0
 21 23  1  0
 23 24  1  0
 23 25  2  0
 25 26  1  0
 15 27  1  0
 27 28  2  0
 27 29  1  0
 29 30  1  0
 30 31  1  0
 30 32  1  0
 30 33  1  0
 29 34  1  0
 34 35  1  0
 35 36  1  0
 35 37  1  0
 34 38  2  0
 38 39  1  0
 14 40  2  0
 40 41  1  0
  6 42  1  0
 42 43  1  0
 42 44  2  0
 44 45  1  0
 44  2  1  0
 40  7  1  0
 38 15  1  0
 25 16  1  0
M  CHG  1  38   1
M  END
>  <score>  (315) 
5.49359

$$$$

     RDKit          3D

 52 55  0  0  0  0  0  0  0  0999 V2000
    7.1989   -3.3690    2.7750 H   0  0  0  0  0  0  0  0  0  0  0  0
    7.6144   -2.4941    2.6374 O   0  0  0  0  0  0  0  0  0  0  0  0
    8.6842   -2.7146    1.8103 C   0  0  0  0  0  0  0  0  0  0  0  0
    8.9812   -3.8374    1.4331 O   0  0  0  0  0  0  0  0  0  0  0  0
    9.5150   -1.5567    1.2908 C   0  0  0  0  0  0  0  0  0  0  0  0
    9.0275   -0.4287    1.2108 O   0  0  0  0  0  0  0  0  0  0  0  0
   10.8544   -1.7135    0.7099 C   0  0  0  0  0  0  0  0  0  0  0  0
   11.1431   -1.1047   -0.1387 H   0  0  0  0  0  0  0  0  0  0  0  0
   11.7604   -2.5626    1.2624 C   0  0  0  0  0  0  0  0  0  0  0  0
   11.4827   -3.2582    2.3722 O   0  0  0  0  0  0  0  0  0  0  0  0
   12.2912   -3.7304    2.6318 H   0  0  0  0  0  0  0  0  0  0  0  0
   13.0098   -2.7180    0.7380 N   0  0  0  0  0  0  0  0  0  0  0  0
   13.2612   -3.0347   -0.5684 C   0  0  0  0  0  0  0  0  0  0  0  0
   12.3784   -3.1253   -1.4231 O   0  0  0  0  0  0  0  0  0  0  0  0
   14.7863   -3.2325   -0.7362 C   0  0  1  0  0  0  0  0  0  0  0  0
   15.1695   -4.6821   -1.0420 C   0  0  0  0  0  0  0  0  0  0  0  0
   16.3959   -5.2039   -0.5918 C   0  0  0  0  0  0  0  0  0  0  0  0
   17.0789   -4.5580   -0.0480 H   0  0  0  0  0  0  0  0  0  0  0  0
   16.7305   -6.5472   -0.7970 C   0  0  0  0  0  0  0  0  0  0  0  0
   17.6738   -6.9312   -0.4169 H   0  0  0  0  0  0  0  0  0  0  0  0
   15.8482   -7.3893   -1.4796 C   0  0  0  0  0  0  0  0  0  0  0  0
   16.1040   -8.4350   -1.6266 H   0  0  0  0  0  0  0  0  0  0  0  0
   14.6385   -6.8812   -1.9649 C   0  0  0  0  0  0  0  0  0  0  0  0
   13.9565   -7.5417   -2.4927 H   0  0  0  0  0  0  0  0  0  0  0  0
   14.3010   -5.5373   -1.7472 C   0  0  0  0  0  0  0  0  0  0  0  0
   13.3479   -5.1668   -2.1142 H   0  0  0  0  0  0  0  0  0  0  0  0
   15.3554   -2.2225   -1.7374 C   0  0  0  0  0  0  0  0  0  0  0  0
   15.9114   -2.6246   -2.9656 C   0  0  0  0  0  0  0  0  0  0  0  0
   15.9800   -3.6810   -3.2034 H   0  0  0  0  0  0  0  0  0  0  0  0
   16.3983   -1.6852   -3.8860 C   0  0  0  0  0  0  0  0  0  0  0  0
   16.8519   -2.0109   -4.8179 H   0  0  0  0  0  0  0  0  0  0  0  0
   16.3255   -0.3201   -3.5973 C   0  0  0  0  0  0  0  0  0  0  0  0
   16.7044    0.4106   -4.3067 H   0  0  0  0  0  0  0  0  0  0  0  0
   15.7702    0.1187   -2.3916 C   0  0  0  0  0  0  0  0  0  0  0  0
   15.7059    1.5596   -2.0951 C   0  0  0  0  0  0  0  0  0  0  0  0
   15.8936    2.5280   -3.0983 C   0  0  0  0  0  0  0  0  0  0  0  0
   16.0901    2.1977   -4.1144 H   0  0  0  0  0  0  0  0  0  0  0  0
   15.8383    3.8522   -2.8630 N   0  0  0  0  0  0  0  0  0  0  0  0
   15.5839    4.2646   -1.6123 C   0  0  0  0  0  0  0  0  0  0  0  0
   15.5371    5.3301   -1.4109 H   0  0  0  0  0  0  0  0  0  0  0  0
   15.3924    3.3695   -0.5584 C   0  0  0  0  0  0  0  0  0  0  0  0
   15.2014    3.7483    0.4374 H   0  0  0  0  0  0  0  0  0  0  0  0
   15.4672    2.0004   -0.7957 C   0  0  0  0  0  0  0  0  0  0  0  0
   15.3545    1.2763    0.0048 H   0  0  0  0  0  0  0  0  0  0  0  0
   15.2870   -0.8383   -1.4778 C   0  0  0  0  0  0  0  0  0  0  0  0
   14.8523   -0.4859   -0.5482 H   0  0  0  0  0  0  0  0  0  0  0  0
   15.1948   -2.9213    0.6541 N   0  0  0  0  0  4  0  0  0  0  0  0
   16.1643   -2.9606    0.9745 H   0  0  0  0  0  0  0  0  0  0  0  0
   14.1890   -2.7014    1.4368 C   0  0  0  0  0  0  0  0  0  0  0  0
   14.3763   -2.4532    2.7706 N   0  0  0  0  0  0  0  0  0  0  0  0
   15.3330   -2.2789    3.0831 H   0  0  0  0  0  0  0  0  0  0  0  0
   13.6096   -2.0326    3.2972 H   0  0  0  0  0  0  0  0  0  0  0  0
  1  2  1  0
  2  3  1  0
  3  4  2  0
  3  5  1  0
  5  6  2  0
  5  7  1  0
  7  8  1  0
  7  9  2  3
  9 10  1  0
 10 11  1  0
  9 12  1  0
 12 13  1  0
 13 14  2  0
 13 15  1  0
 15 16  1  6
 16 17  2  0
 17 18  1  0
 17 19  1  0
 19 20  1  0
 19 21  2  0
 21 22  1  0
 21 23  1  0
 23 24  1  0
 23 25  2  0
 25 26  1  0
 15 27  1  0
 27 28  2  0
 28 29  1  0
 28 30  1  0
 30 31  1  0
 30 32  2  0
 32 33  1  0
 32 34  1  0
 34 35  1  0
 35 36  2  0
 36 37  1  0
 36 38  1  0
 38 39  2  0
 39 40  1  0
 39 41  1  0
 41 42  1  0
 41 43  2  0
 43 44  1  0
 34 45  2  0
 45 46  1  0
 15 47  1  0
 47 48  1  0
 47 49  2  0
 49 50  1  0
 50 51  1  0
 50 52  1  0
 49 12  1  0
 25 16  1  0
 45 27  1  0
 43 35  1  0
M  CHG  1  47   1
M  END
>  <score>  (316) 
5.4931

$$$$

     RDKit          3D

 61 65  0  0  0  0  0  0  0  0999 V2000
   15.5387    5.3291   -1.4213 H   0  0  0  0  0  0  0  0  0  0  0  0
   15.6129    4.2619   -1.6092 C   0  0  0  0  0  0  0  0  0  0  0  0
   15.8600    3.8351   -2.8575 N   0  0  0  0  0  0  0  0  0  0  0  0
   15.9377    2.5085   -3.0758 C   0  0  0  0  0  0  0  0  0  0  0  0
   16.1282    2.1690   -4.0892 H   0  0  0  0  0  0  0  0  0  0  0  0
   15.7672    1.5483   -2.0640 C   0  0  0  0  0  0  0  0  0  0  0  0
   15.8196    0.1031   -2.3542 C   0  0  0  0  0  0  0  0  0  0  0  0
   16.3304   -0.3746   -3.5699 C   0  0  0  0  0  0  0  0  0  0  0  0
   16.6969    0.3298   -4.3102 H   0  0  0  0  0  0  0  0  0  0  0  0
   16.3771   -1.7488   -3.8295 C   0  0  0  0  0  0  0  0  0  0  0  0
   16.7737   -2.1078   -4.7746 H   0  0  0  0  0  0  0  0  0  0  0  0
   15.9064   -2.6577   -2.8750 C   0  0  0  0  0  0  0  0  0  0  0  0
   15.9369   -3.7223   -3.0893 H   0  0  0  0  0  0  0  0  0  0  0  0
   15.3818   -2.2103   -1.6489 C   0  0  0  0  0  0  0  0  0  0  0  0
   14.7963   -3.1807   -0.6265 C   0  0  2  0  0  0  0  0  0  0  0  0
   15.1716   -4.6221   -0.9409 C   0  0  0  0  0  0  0  0  0  0  0  0
   16.4052   -5.1479   -0.5253 C   0  0  0  0  0  0  0  0  0  0  0  0
   17.0974   -4.5169    0.0257 H   0  0  0  0  0  0  0  0  0  0  0  0
   16.7449   -6.4774   -0.7994 C   0  0  0  0  0  0  0  0  0  0  0  0
   17.6976   -6.8724   -0.4590 H   0  0  0  0  0  0  0  0  0  0  0  0
   15.8546   -7.2943   -1.5049 C   0  0  0  0  0  0  0  0  0  0  0  0
   16.1078   -8.3308   -1.7068 H   0  0  0  0  0  0  0  0  0  0  0  0
   14.6387   -6.7717   -1.9570 C   0  0  0  0  0  0  0  0  0  0  0  0
   13.9523   -7.3959   -2.5211 H   0  0  0  0  0  0  0  0  0  0  0  0
   14.3023   -5.4419   -1.6801 C   0  0  0  0  0  0  0  0  0  0  0  0
   13.3581   -5.0417   -2.0363 H   0  0  0  0  0  0  0  0  0  0  0  0
   13.2749   -2.9760   -0.4972 C   0  0  0  0  0  0  0  0  0  0  0  0
   12.4555   -3.1523   -1.3989 O   0  0  0  0  0  0  0  0  0  0  0  0
   12.9367   -2.6207    0.8046 N   0  0  0  0  0  0  0  0  0  0  0  0
   11.6078   -2.5182    1.3096 C   0  0  0  0  0  0  0  0  0  0  0  0
   10.5878   -1.7886    0.6434 C   0  0  0  0  0  0  0  0  0  0  0  0
   10.8419   -1.2687   -0.2782 H   0  0  0  0  0  0  0  0  0  0  0  0
    9.3124   -1.7239    1.0606 N   0  0  0  0  0  0  0  0  0  0  0  0
    8.9707   -2.4046    2.1550 C   0  0  0  0  0  0  0  0  0  0  0  0
    7.6499   -2.3409    2.5048 O   0  0  0  0  0  0  0  0  0  0  0  0
    7.1840   -3.3517    3.3987 C   0  0  0  0  0  0  0  0  0  0  0  0
    7.8229   -3.3930    4.2894 H   0  0  0  0  0  0  0  0  0  0  0  0
    5.7746   -2.9698    3.8382 C   0  0  0  0  0  0  0  0  0  0  0  0
    5.6684   -1.8939    4.0014 H   0  0  0  0  0  0  0  0  0  0  0  0
    5.5377   -3.4733    4.7721 H   0  0  0  0  0  0  0  0  0  0  0  0
    5.0481   -3.2607    3.0837 H   0  0  0  0  0  0  0  0  0  0  0  0
    7.2079   -4.7036    2.6762 C   0  0  0  0  0  0  0  0  0  0  0  0
    6.8354   -5.5009    3.3250 H   0  0  0  0  0  0  0  0  0  0  0  0
    8.2393   -4.9369    2.3904 H   0  0  0  0  0  0  0  0  0  0  0  0
    6.5912   -4.6788    1.7696 H   0  0  0  0  0  0  0  0  0  0  0  0
    9.9109   -3.1565    2.8713 C   0  0  0  0  0  0  0  0  0  0  0  0
    9.5725   -3.7089    3.7339 H   0  0  0  0  0  0  0  0  0  0  0  0
   11.2491   -3.2050    2.4701 C   0  0  0  0  0  0  0  0  0  0  0  0
   11.9942   -3.7904    3.0104 H   0  0  0  0  0  0  0  0  0  0  0  0
   14.1407   -2.6293    1.5131 C   0  0  0  0  0  0  0  0  0  0  0  0
   14.3716   -2.4353    2.8491 N   0  0  0  0  0  0  0  0  0  0  0  0
   13.6202   -2.0523    3.4198 H   0  0  0  0  0  0  0  0  0  0  0  0
   15.3405   -2.2868    3.1375 H   0  0  0  0  0  0  0  0  0  0  0  0
   15.1707   -2.8594    0.7644 N   0  0  0  0  0  4  0  0  0  0  0  0
   16.1091   -3.0126    1.1401 H   0  0  0  0  0  0  0  0  0  0  0  0
   15.3436   -0.8264   -1.4139 C   0  0  0  0  0  0  0  0  0  0  0  0
   14.9257   -0.4608   -0.4816 H   0  0  0  0  0  0  0  0  0  0  0  0
   15.5366    2.0049   -0.7634 C   0  0  0  0  0  0  0  0  0  0  0  0
   15.4370    1.2941    0.0523 H   0  0  0  0  0  0  0  0  0  0  0  0
   15.4510    3.3781   -0.5412 C   0  0  0  0  0  0  0  0  0  0  0  0
   15.2624    3.7711    0.4507 H   0  0  0  0  0  0  0  0  0  0  0  0
  1  2  1  0
  2  3  2  0
  3  4  1  0
  4  5  1  0
  4  6  2  0
  6  7  1  0
  7  8  2  0
  8  9  1  0
  8 10  1  0
 10 11  1  0
 10 12  2  0
 12 13  1  0
 12 14  1  0
 15 14  1  6
 15 16  1  0
 16 17  2  0
 17 18  1  0
 17 19  1  0
 19 20  1  0
 19 21  2  0
 21 22  1  0
 21 23  1  0
 23 24  1  0
 23 25  2  0
 25 26  1  0
 15 27  1  0
 27 28  2  0
 27 29  1  0
 29 30  1  0
 30 31  2  0
 31 32  1  0
 31 33  1  0
 33 34  2  0
 34 35  1  0
 35 36  1  0
 36 37  1  0
 36 38  1  0
 38 39  1  0
 38 40  1  0
 38 41  1  0
 36 42  1  0
 42 43  1  0
 42 44  1  0
 42 45  1  0
 34 46  1  0
 46 47  1  0
 46 48  2  0
 48 49  1  0
 29 50  1  0
 50 51  1  0
 51 52  1  0
 51 53  1  0
 50 54  2  0
 54 55  1  0
 14 56  2  0
 56 57  1  0
  6 58  1  0
 58 59  1  0
 58 60  2  0
 60 61  1  0
 60  2  1  0
 56  7  1  0
 54 15  1  0
 25 16  1  0
 48 30  1  0
M  CHG  1  54   1
M  END
>  <score>  (317) 
5.49007

$$$$

     RDKit          3D

 49 53  0  0  0  0  0  0  0  0999 V2000
   15.5490    5.3458   -1.3969 H   0  0  0  0  0  0  0  0  0  0  0  0
   15.5860    4.2797   -1.6071 C   0  0  0  0  0  0  0  0  0  0  0  0
   15.8244    3.8658   -2.8615 N   0  0  0  0  0  0  0  0  0  0  0  0
   15.8820    2.5392   -3.0962 C   0  0  0  0  0  0  0  0  0  0  0  0
   16.0792    2.1938   -4.1065 H   0  0  0  0  0  0  0  0  0  0  0  0
   15.7003    1.5683   -2.0986 C   0  0  0  0  0  0  0  0  0  0  0  0
   15.7750    0.1243   -2.4038 C   0  0  0  0  0  0  0  0  0  0  0  0
   16.3311   -0.3156   -3.6081 C   0  0  0  0  0  0  0  0  0  0  0  0
   16.7055    0.4340   -4.2982 H   0  0  0  0  0  0  0  0  0  0  0  0
   16.4186   -1.6825   -3.9024 C   0  0  0  0  0  0  0  0  0  0  0  0
   16.8623   -2.0036   -4.8386 H   0  0  0  0  0  0  0  0  0  0  0  0
   15.9384   -2.6305   -2.9892 C   0  0  0  0  0  0  0  0  0  0  0  0
   15.9952   -3.6903   -3.2238 H   0  0  0  0  0  0  0  0  0  0  0  0
   15.3786   -2.2238   -1.7672 C   0  0  0  0  0  0  0  0  0  0  0  0
   14.8049   -3.2278   -0.7702 C   0  0  2  0  0  0  0  0  0  0  0  0
   15.1750   -4.6886   -1.0670 C   0  0  0  0  0  0  0  0  0  0  0  0
   16.3953   -5.2140   -0.6054 C   0  0  0  0  0  0  0  0  0  0  0  0
   17.0715   -4.5665   -0.0550 H   0  0  0  0  0  0  0  0  0  0  0  0
   16.7336   -6.5605   -0.8026 C   0  0  0  0  0  0  0  0  0  0  0  0
   17.6693   -6.9520   -0.4133 H   0  0  0  0  0  0  0  0  0  0  0  0
   15.8558   -7.4084   -1.4827 C   0  0  0  0  0  0  0  0  0  0  0  0
   16.1029   -8.4591   -1.6162 H   0  0  0  0  0  0  0  0  0  0  0  0
   14.6451   -6.9058   -1.9670 C   0  0  0  0  0  0  0  0  0  0  0  0
   13.9619   -7.5718   -2.4869 H   0  0  0  0  0  0  0  0  0  0  0  0
   14.3070   -5.5564   -1.7615 C   0  0  0  0  0  0  0  0  0  0  0  0
   13.3536   -5.1847   -2.1231 H   0  0  0  0  0  0  0  0  0  0  0  0
   13.2869   -3.0056   -0.6163 C   0  0  0  0  0  0  0  0  0  0  0  0
   12.4492   -3.1408   -1.5094 O   0  0  0  0  0  0  0  0  0  0  0  0
   13.0009   -2.6728    0.6948 N   0  0  0  0  0  0  0  0  0  0  0  0
   11.7260   -2.6168    1.2722 C   0  0  0  0  0  0  0  0  0  0  0  0
   11.2993   -3.3086    2.8383 S   0  0  0  0  0  0  0  0  0  0  0  0
    9.6297   -2.8095    2.6334 C   0  0  0  0  0  0  0  0  0  0  0  0
    8.8632   -3.0254    3.3714 H   0  0  0  0  0  0  0  0  0  0  0  0
    9.4234   -2.1373    1.4570 C   0  0  0  0  0  0  0  0  0  0  0  0
    8.4578   -1.7375    1.1723 H   0  0  0  0  0  0  0  0  0  0  0  0
   10.6454   -2.0358    0.6655 C   0  0  0  0  0  0  0  0  0  0  0  0
   10.7238   -1.5360   -0.2915 H   0  0  0  0  0  0  0  0  0  0  0  0
   14.2025   -2.6500    1.3756 C   0  0  0  0  0  0  0  0  0  0  0  0
   14.4011   -2.3878    2.7042 N   0  0  0  0  0  0  0  0  0  0  0  0
   13.6328   -2.0141    3.2593 H   0  0  0  0  0  0  0  0  0  0  0  0
   15.3580   -2.3387    3.0567 H   0  0  0  0  0  0  0  0  0  0  0  0
   15.2128   -2.9024    0.6134 N   0  0  0  0  0  4  0  0  0  0  0  0
   16.1807   -2.9639    0.9457 H   0  0  0  0  0  0  0  0  0  0  0  0
   15.3043   -0.8404   -1.4976 C   0  0  0  0  0  0  0  0  0  0  0  0
   14.8664   -0.4958   -0.5658 H   0  0  0  0  0  0  0  0  0  0  0  0
   15.4548    2.0079   -0.8005 C   0  0  0  0  0  0  0  0  0  0  0  0
   15.3462    1.2639   -0.0171 H   0  0  0  0  0  0  0  0  0  0  0  0
   15.3872    3.3809   -0.5583 C   0  0  0  0  0  0  0  0  0  0  0  0
   15.1857    3.7661    0.4325 H   0  0  0  0  0  0  0  0  0  0  0  0
  1  2  1  0
  2  3  2  0
  3  4  1  0
  4  5  1  0
  4  6  2  0
  6  7  1  0
  7  8  2  0
  8  9  1  0
  8 10  1  0
 10 11  1  0
 10 12  2  0
 12 13  1  0
 12 14  1  0
 15 14  1  6
 15 16  1  0
 16 17  2  0
 17 18  1  0
 17 19  1  0
 19 20  1  0
 19 21  2  0
 21 22  1  0
 21 23  1  0
 23 24  1  0
 23 25  2  0
 25 26  1  0
 15 27  1  0
 27 28  2  0
 27 29  1  0
 29 30  1  0
 30 31  1  0
 31 32  1  0
 32 33  1  0
 32 34  2  0
 34 35  1  0
 34 36  1  0
 36 37  1  0
 29 38  1  0
 38 39  1  0
 39 40  1  0
 39 41  1  0
 38 42  2  0
 42 43  1  0
 14 44  2  0
 44 45  1  0
  6 46  1  0
 46 47  1  0
 46 48  2  0
 48 49  1  0
 48  2  1  0
 44  7  1  0
 42 15  1  0
 25 16  1  0
 36 30  2  0
M  CHG  1  42   1
M  END
>  <score>  (318) 
5.48846

$$$$

     RDKit          3D

 56 60  0  0  0  0  0  0  0  0999 V2000
   15.5236    5.3372   -1.4207 H   0  0  0  0  0  0  0  0  0  0  0  0
   15.6015    4.2697   -1.6090 C   0  0  0  0  0  0  0  0  0  0  0  0
   15.8491    3.8465   -2.8582 N   0  0  0  0  0  0  0  0  0  0  0  0
   15.9245    2.5196   -3.0803 C   0  0  0  0  0  0  0  0  0  0  0  0
   16.1179    2.1791   -4.0924 H   0  0  0  0  0  0  0  0  0  0  0  0
   15.7524    1.5535   -2.0747 C   0  0  0  0  0  0  0  0  0  0  0  0
   15.8137    0.1077   -2.3799 C   0  0  0  0  0  0  0  0  0  0  0  0
   16.3333   -0.3566   -3.5982 C   0  0  0  0  0  0  0  0  0  0  0  0
   16.7050    0.3555   -4.3271 H   0  0  0  0  0  0  0  0  0  0  0  0
   16.3883   -1.7265   -3.8805 C   0  0  0  0  0  0  0  0  0  0  0  0
   16.8006   -2.0664   -4.8255 H   0  0  0  0  0  0  0  0  0  0  0  0
   15.9241   -2.6532   -2.9427 C   0  0  0  0  0  0  0  0  0  0  0  0
   15.9718   -3.7150   -3.1698 H   0  0  0  0  0  0  0  0  0  0  0  0
   15.4021   -2.2212   -1.7128 C   0  0  0  0  0  0  0  0  0  0  0  0
   14.8408   -3.2021   -0.6963 C   0  0  2  0  0  0  0  0  0  0  0  0
   15.1971   -4.6493   -0.9995 C   0  0  0  0  0  0  0  0  0  0  0  0
   16.4217   -5.1797   -0.5658 C   0  0  0  0  0  0  0  0  0  0  0  0
   17.1187   -4.5414   -0.0306 H   0  0  0  0  0  0  0  0  0  0  0  0
   16.7480   -6.5164   -0.8064 C   0  0  0  0  0  0  0  0  0  0  0  0
   17.6948   -6.9072   -0.4461 H   0  0  0  0  0  0  0  0  0  0  0  0
   15.8540   -7.3393   -1.4992 C   0  0  0  0  0  0  0  0  0  0  0  0
   16.1012   -8.3822   -1.6740 H   0  0  0  0  0  0  0  0  0  0  0  0
   14.6432   -6.8149   -1.9661 C   0  0  0  0  0  0  0  0  0  0  0  0
   13.9493   -7.4483   -2.5104 H   0  0  0  0  0  0  0  0  0  0  0  0
   14.3190   -5.4755   -1.7223 C   0  0  0  0  0  0  0  0  0  0  0  0
   13.3768   -5.0805   -2.0928 H   0  0  0  0  0  0  0  0  0  0  0  0
   13.3218   -2.9897   -0.5512 C   0  0  0  0  0  0  0  0  0  0  0  0
   12.4588   -3.1245   -1.4181 O   0  0  0  0  0  0  0  0  0  0  0  0
   13.0507   -2.6726    0.7598 N   0  0  0  0  0  0  0  0  0  0  0  0
   11.7838   -2.4635    1.2813 C   0  0  0  0  0  0  0  0  0  0  0  0
   10.8704   -1.6498    0.6099 C   0  0  0  0  0  0  0  0  0  0  0  0
   11.1562   -1.1851   -0.3243 H   0  0  0  0  0  0  0  0  0  0  0  0
    9.6099   -1.3984    1.1621 C   0  0  0  0  0  0  0  0  0  0  0  0
    8.9359   -0.7000    0.6731 H   0  0  0  0  0  0  0  0  0  0  0  0
    9.2252   -2.0590    2.3374 C   0  0  0  0  0  0  0  0  0  0  0  0
    8.2367   -1.9185    2.7616 H   0  0  0  0  0  0  0  0  0  0  0  0
   10.1017   -2.9493    2.9647 C   0  0  0  0  0  0  0  0  0  0  0  0
    9.6387   -3.7286    3.9989 O   0  0  0  0  0  0  0  0  0  0  0  0
   10.3425   -4.9750    4.1823 C   0  0  0  0  0  0  0  0  0  0  0  0
   10.8913   -5.4206    3.0191 F   0  0  0  0  0  0  0  0  0  0  0  0
   11.3367   -4.8300    5.0961 F   0  0  0  0  0  0  0  0  0  0  0  0
    9.4729   -5.9265    4.6090 F   0  0  0  0  0  0  0  0  0  0  0  0
   11.4025   -3.0930    2.4590 C   0  0  0  0  0  0  0  0  0  0  0  0
   12.1108   -3.7485    2.9528 H   0  0  0  0  0  0  0  0  0  0  0  0
   14.2393   -2.6710    1.4596 C   0  0  0  0  0  0  0  0  0  0  0  0
   14.4088   -2.4729    2.8029 N   0  0  0  0  0  0  0  0  0  0  0  0
   15.3556   -2.2537    3.1149 H   0  0  0  0  0  0  0  0  0  0  0  0
   13.6202   -2.1036    3.3344 H   0  0  0  0  0  0  0  0  0  0  0  0
   15.2535   -2.8767    0.6870 N   0  0  0  0  0  4  0  0  0  0  0  0
   16.2090   -2.9912    1.0378 H   0  0  0  0  0  0  0  0  0  0  0  0
   15.3400   -0.8390   -1.4575 C   0  0  0  0  0  0  0  0  0  0  0  0
   14.8999   -0.4899   -0.5283 H   0  0  0  0  0  0  0  0  0  0  0  0
   15.5196    2.0075   -0.7729 C   0  0  0  0  0  0  0  0  0  0  0  0
   15.4149    1.2983    0.0429 H   0  0  0  0  0  0  0  0  0  0  0  0
   15.4374    3.3804   -0.5442 C   0  0  0  0  0  0  0  0  0  0  0  0
   15.2462    3.7632    0.4515 H   0  0  0  0  0  0  0  0  0  0  0  0
  1  2  1  0
  2  3  2  0
  3  4  1  0
  4  5  1  0
  4  6  2  0
  6  7  1  0
  7  8  2  0
  8  9  1  0
  8 10  1  0
 10 11  1  0
 10 12  2  0
 12 13  1  0
 12 14  1  0
 15 14  1  6
 15 16  1  0
 16 17  2  0
 17 18  1  0
 17 19  1  0
 19 20  1  0
 19 21  2  0
 21 22  1  0
 21 23  1  0
 23 24  1  0
 23 25  2  0
 25 26  1  0
 15 27  1  0
 27 28  2  0
 27 29  1  0
 29 30  1  0
 30 31  2  0
 31 32  1  0
 31 33  1  0
 33 34  1  0
 33 35  2  0
 35 36  1  0
 35 37  1  0
 37 38  1  0
 38 39  1  0
 39 40  1  0
 39 41  1  0
 39 42  1  0
 37 43  2  0
 43 44  1  0
 29 45  1  0
 45 46  1  0
 46 47  1  0
 46 48  1  0
 45 49  2  0
 49 50  1  0
 14 51  2  0
 51 52  1  0
  6 53  1  0
 53 54  1  0
 53 55  2  0
 55 56  1  0
 55  2  1  0
 51  7  1  0
 49 15  1  0
 25 16  1  0
 43 30  1  0
M  CHG  1  49   1
M  END
>  <score>  (319) 
5.4878

$$$$

     RDKit          3D

 58 62  0  0  0  0  0  0  0  0999 V2000
   15.5420    5.3410   -1.4012 H   0  0  0  0  0  0  0  0  0  0  0  0
   15.6109    4.2759   -1.6045 C   0  0  0  0  0  0  0  0  0  0  0  0
   15.8508    3.8668   -2.8592 N   0  0  0  0  0  0  0  0  0  0  0  0
   15.9400    2.5445   -3.0965 C   0  0  0  0  0  0  0  0  0  0  0  0
   16.1261    2.2154   -4.1135 H   0  0  0  0  0  0  0  0  0  0  0  0
   15.7914    1.5693   -2.0998 C   0  0  0  0  0  0  0  0  0  0  0  0
   15.8876    0.1316   -2.4245 C   0  0  0  0  0  0  0  0  0  0  0  0
   16.3821   -0.3308   -3.6557 C   0  0  0  0  0  0  0  0  0  0  0  0
   16.7186    0.3834   -4.3998 H   0  0  0  0  0  0  0  0  0  0  0  0
   16.4421   -1.7058   -3.9342 C   0  0  0  0  0  0  0  0  0  0  0  0
   16.8108   -2.0499   -4.8964 H   0  0  0  0  0  0  0  0  0  0  0  0
   16.0212   -2.6373   -2.9761 C   0  0  0  0  0  0  0  0  0  0  0  0
   16.0500   -3.7009   -3.2023 H   0  0  0  0  0  0  0  0  0  0  0  0
   15.5370   -2.1959   -1.7342 C   0  0  0  0  0  0  0  0  0  0  0  0
   14.9501   -3.1315   -0.6960 C   0  0  2  0  0  0  0  0  0  0  0  0
   15.2454   -4.6015   -0.9747 C   0  0  0  0  0  0  0  0  0  0  0  0
   16.4587   -5.1653   -0.5477 C   0  0  0  0  0  0  0  0  0  0  0  0
   17.1681   -4.5475   -0.0053 H   0  0  0  0  0  0  0  0  0  0  0  0
   16.7641   -6.5079   -0.7986 C   0  0  0  0  0  0  0  0  0  0  0  0
   17.7085   -6.9224   -0.4536 H   0  0  0  0  0  0  0  0  0  0  0  0
   15.8533   -7.3097   -1.4945 C   0  0  0  0  0  0  0  0  0  0  0  0
   16.0840   -8.3539   -1.6872 H   0  0  0  0  0  0  0  0  0  0  0  0
   14.6468   -6.7609   -1.9461 C   0  0  0  0  0  0  0  0  0  0  0  0
   13.9462   -7.3825   -2.4982 H   0  0  0  0  0  0  0  0  0  0  0  0
   14.3454   -5.4144   -1.6879 C   0  0  0  0  0  0  0  0  0  0  0  0
   13.4103   -4.9970   -2.0477 H   0  0  0  0  0  0  0  0  0  0  0  0
   13.4625   -2.7694   -0.5796 C   0  0  0  0  0  0  0  0  0  0  0  0
   12.6041   -2.9133   -1.4466 O   0  0  0  0  0  0  0  0  0  0  0  0
   13.2154   -2.1842    0.6450 N   0  0  0  0  0  0  0  0  0  0  0  0
   11.8831   -2.1292    1.2308 C   0  0  0  0  0  0  0  0  0  0  0  0
   11.9044   -1.5778    2.1781 H   0  0  0  0  0  0  0  0  0  0  0  0
   11.1535   -1.6397    0.5679 H   0  0  0  0  0  0  0  0  0  0  0  0
   11.5270   -3.5658    1.4768 C   0  0  0  0  0  0  0  0  0  0  0  0
   11.6457   -4.0757    2.7719 C   0  0  0  0  0  0  0  0  0  0  0  0
   11.8952   -3.4218    3.5989 H   0  0  0  0  0  0  0  0  0  0  0  0
   11.4973   -5.4343    3.0109 C   0  0  0  0  0  0  0  0  0  0  0  0
   11.6071   -5.8114    4.0214 H   0  0  0  0  0  0  0  0  0  0  0  0
   11.2474   -6.3094    1.9536 C   0  0  0  0  0  0  0  0  0  0  0  0
   11.0797   -7.7503    2.2735 C   0  0  0  0  0  0  0  0  0  0  0  0
   11.0469   -8.3547    1.3647 H   0  0  0  0  0  0  0  0  0  0  0  0
   11.9133   -8.0837    2.9083 H   0  0  0  0  0  0  0  0  0  0  0  0
   10.1304   -7.8664    2.8033 H   0  0  0  0  0  0  0  0  0  0  0  0
   11.1272   -5.8149    0.6487 C   0  0  0  0  0  0  0  0  0  0  0  0
   10.9710   -6.4868   -0.1912 H   0  0  0  0  0  0  0  0  0  0  0  0
   11.2347   -4.4398    0.4156 C   0  0  0  0  0  0  0  0  0  0  0  0
   11.1373   -4.0699   -0.5995 H   0  0  0  0  0  0  0  0  0  0  0  0
   14.3663   -2.3577    1.3808 C   0  0  0  0  0  0  0  0  0  0  0  0
   14.4701   -2.2042    2.7306 N   0  0  0  0  0  0  0  0  0  0  0  0
   13.6637   -1.8741    3.2582 H   0  0  0  0  0  0  0  0  0  0  0  0
   15.3893   -2.2599    3.1630 H   0  0  0  0  0  0  0  0  0  0  0  0
   15.3648   -2.7805    0.6793 N   0  0  0  0  0  4  0  0  0  0  0  0
   16.2079   -3.1548    1.1114 H   0  0  0  0  0  0  0  0  0  0  0  0
   15.4626   -0.8173   -1.4926 C   0  0  0  0  0  0  0  0  0  0  0  0
   15.0391   -0.4743   -0.5553 H   0  0  0  0  0  0  0  0  0  0  0  0
   15.5418    2.0058   -0.7920 C   0  0  0  0  0  0  0  0  0  0  0  0
   15.4346    1.2871    0.0170 H   0  0  0  0  0  0  0  0  0  0  0  0
   15.4489    3.3765   -0.5500 C   0  0  0  0  0  0  0  0  0  0  0  0
   15.2592    3.7588    0.4457 H   0  0  0  0  0  0  0  0  0  0  0  0
  1  2  1  0
  2  3  2  0
  3  4  1  0
  4  5  1  0
  4  6  2  0
  6  7  1  0
  7  8  2  0
  8  9  1  0
  8 10  1  0
 10 11  1  0
 10 12  2  0
 12 13  1  0
 12 14  1  0
 15 14  1  6
 15 16  1  0
 16 17  2  0
 17 18  1  0
 17 19  1  0
 19 20  1  0
 19 21  2  0
 21 22  1  0
 21 23  1  0
 23 24  1  0
 23 25  2  0
 25 26  1  0
 15 27  1  0
 27 28  2  0
 27 29  1  0
 29 30  1  0
 30 31  1  0
 30 32  1  0
 30 33  1  0
 33 34  2  0
 34 35  1  0
 34 36  1  0
 36 37  1  0
 36 38  2  0
 38 39  1  0
 39 40  1  0
 39 41  1  0
 39 42  1  0
 38 43  1  0
 43 44  1  0
 43 45  2  0
 45 46  1  0
 29 47  1  0
 47 48  1  0
 48 49  1  0
 48 50  1  0
 47 51  2  0
 51 52  1  0
 14 53  2  0
 53 54  1  0
  6 55  1  0
 55 56  1  0
 55 57  2  0
 57 58  1  0
 57  2  1  0
 53  7  1  0
 51 15  1  0
 25 16  1  0
 45 33  1  0
M  CHG  1  51   1
M  END
>  <score>  (320) 
5.48741

$$$$

     RDKit          3D

 57 62  0  0  0  0  0  0  0  0999 V2000
   15.5284    5.3248   -1.4191 H   0  0  0  0  0  0  0  0  0  0  0  0
   15.5862    4.2586   -1.6134 C   0  0  0  0  0  0  0  0  0  0  0  0
   15.8421    3.8460   -2.8637 N   0  0  0  0  0  0  0  0  0  0  0  0
   15.9039    2.5230   -3.0983 C   0  0  0  0  0  0  0  0  0  0  0  0
   16.0980    2.2031   -4.1184 H   0  0  0  0  0  0  0  0  0  0  0  0
   15.7156    1.5547   -2.0951 C   0  0  0  0  0  0  0  0  0  0  0  0
   15.7829    0.1179   -2.3962 C   0  0  0  0  0  0  0  0  0  0  0  0
   16.3336   -0.3208   -3.6063 C   0  0  0  0  0  0  0  0  0  0  0  0
   16.7064    0.4019   -4.3265 H   0  0  0  0  0  0  0  0  0  0  0  0
   16.4119   -1.6838   -3.8908 C   0  0  0  0  0  0  0  0  0  0  0  0
   16.8456   -2.0053   -4.8312 H   0  0  0  0  0  0  0  0  0  0  0  0
   15.9353   -2.6225   -2.9698 C   0  0  0  0  0  0  0  0  0  0  0  0
   15.9945   -3.6784   -3.2082 H   0  0  0  0  0  0  0  0  0  0  0  0
   15.3849   -2.2161   -1.7451 C   0  0  0  0  0  0  0  0  0  0  0  0
   14.8241   -3.2164   -0.7441 C   0  0  2  0  0  0  0  0  0  0  0  0
   15.1845   -4.6710   -1.0437 C   0  0  0  0  0  0  0  0  0  0  0  0
   16.4059   -5.1995   -0.5925 C   0  0  0  0  0  0  0  0  0  0  0  0
   17.0978   -4.5590   -0.0525 H   0  0  0  0  0  0  0  0  0  0  0  0
   16.7331   -6.5421   -0.8002 C   0  0  0  0  0  0  0  0  0  0  0  0
   17.6747   -6.9261   -0.4192 H   0  0  0  0  0  0  0  0  0  0  0  0
   15.8460   -7.3794   -1.4820 C   0  0  0  0  0  0  0  0  0  0  0  0
   16.1011   -8.4238   -1.6372 H   0  0  0  0  0  0  0  0  0  0  0  0
   14.6361   -6.8659   -1.9621 C   0  0  0  0  0  0  0  0  0  0  0  0
   13.9494   -7.5165   -2.4958 H   0  0  0  0  0  0  0  0  0  0  0  0
   14.3061   -5.5200   -1.7462 C   0  0  0  0  0  0  0  0  0  0  0  0
   13.3556   -5.1457   -2.1163 H   0  0  0  0  0  0  0  0  0  0  0  0
   13.3114   -2.9872   -0.5824 C   0  0  0  0  0  0  0  0  0  0  0  0
   12.4495   -3.1528   -1.4483 O   0  0  0  0  0  0  0  0  0  0  0  0
   13.0482   -2.6196    0.7184 N   0  0  0  0  0  0  0  0  0  0  0  0
   11.7765   -2.4848    1.2644 C   0  0  0  0  0  0  0  0  0  0  0  0
   10.8670   -1.6093    0.6692 C   0  0  0  0  0  0  0  0  0  0  0  0
   11.1950   -0.9705   -0.1471 H   0  0  0  0  0  0  0  0  0  0  0  0
    9.5554   -1.5258    1.1579 C   0  0  0  0  0  0  0  0  0  0  0  0
    8.8382   -0.8418    0.7227 H   0  0  0  0  0  0  0  0  0  0  0  0
    9.1300   -2.3393    2.2100 C   0  0  0  0  0  0  0  0  0  0  0  0
    7.8209   -2.3496    2.5286 N   0  0  0  0  0  0  0  0  0  0  0  0
    7.4252   -3.1669    3.5206 C   0  0  0  0  0  0  0  0  0  0  0  0
    6.3639   -3.2335    3.7409 H   0  0  0  0  0  0  0  0  0  0  0  0
    8.3174   -3.9167    4.2988 C   0  0  0  0  0  0  0  0  0  0  0  0
    7.9507   -4.5098    5.1311 H   0  0  0  0  0  0  0  0  0  0  0  0
    9.6750   -3.9031    3.9804 C   0  0  0  0  0  0  0  0  0  0  0  0
   10.4090   -4.4607    4.5603 H   0  0  0  0  0  0  0  0  0  0  0  0
   10.0790   -3.1507    2.8754 C   0  0  0  0  0  0  0  0  0  0  0  0
   11.4032   -3.2007    2.4077 C   0  0  0  0  0  0  0  0  0  0  0  0
   12.1491   -3.8252    2.8942 H   0  0  0  0  0  0  0  0  0  0  0  0
   14.2419   -2.6448    1.4102 C   0  0  0  0  0  0  0  0  0  0  0  0
   14.4186   -2.4394    2.7491 N   0  0  0  0  0  0  0  0  0  0  0  0
   15.3715   -2.2671    3.0773 H   0  0  0  0  0  0  0  0  0  0  0  0
   13.6403   -2.0450    3.2736 H   0  0  0  0  0  0  0  0  0  0  0  0
   15.2443   -2.8935    0.6338 N   0  0  0  0  0  4  0  0  0  0  0  0
   16.2053   -3.0015    0.9635 H   0  0  0  0  0  0  0  0  0  0  0  0
   15.3055   -0.8369   -1.4801 C   0  0  0  0  0  0  0  0  0  0  0  0
   14.8620   -0.4997   -0.5465 H   0  0  0  0  0  0  0  0  0  0  0  0
   15.4750    1.9962   -0.7927 C   0  0  0  0  0  0  0  0  0  0  0  0
   15.3613    1.2868    0.0215 H   0  0  0  0  0  0  0  0  0  0  0  0
   15.4022    3.3643   -0.5567 C   0  0  0  0  0  0  0  0  0  0  0  0
   15.2131    3.7354    0.4429 H   0  0  0  0  0  0  0  0  0  0  0  0
  1  2  1  0
  2  3  2  0
  3  4  1  0
  4  5  1  0
  4  6  2  0
  6  7  1  0
  7  8  2  0
  8  9  1  0
  8 10  1  0
 10 11  1  0
 10 12  2  0
 12 13  1  0
 12 14  1  0
 15 14  1  6
 15 16  1  0
 16 17  2  0
 17 18  1  0
 17 19  1  0
 19 20  1  0
 19 21  2  0
 21 22  1  0
 21 23  1  0
 23 24  1  0
 23 25  2  0
 25 26  1  0
 15 27  1  0
 27 28  2  0
 27 29  1  0
 29 30  1  0
 30 31  2  0
 31 32  1  0
 31 33  1  0
 33 34  1  0
 33 35  2  0
 35 36  1  0
 36 37  2  0
 37 38  1  0
 37 39  1  0
 39 40  1  0
 39 41  2  0
 41 42  1  0
 41 43  1  0
 43 44  2  0
 44 45  1  0
 29 46  1  0
 46 47  1  0
 47 48  1  0
 47 49  1  0
 46 50  2  0
 50 51  1  0
 14 52  2  0
 52 53  1  0
  6 54  1  0
 54 55  1  0
 54 56  2  0
 56 57  1  0
 56  2  1  0
 52  7  1  0
 50 15  1  0
 25 16  1  0
 44 30  1  0
 43 35  1  0
M  CHG  1  50   1
M  END
>  <score>  (321) 
5.48258

$$$$

     RDKit          3D

 47 50  0  0  0  0  0  0  0  0999 V2000
   15.5683    5.3707   -1.3878 H   0  0  0  0  0  0  0  0  0  0  0  0
   15.5842    4.3015   -1.5966 C   0  0  0  0  0  0  0  0  0  0  0  0
   15.8195    3.8799   -2.8491 N   0  0  0  0  0  0  0  0  0  0  0  0
   15.8652    2.5519   -3.0879 C   0  0  0  0  0  0  0  0  0  0  0  0
   16.0479    2.2225   -4.1050 H   0  0  0  0  0  0  0  0  0  0  0  0
   15.6858    1.5707   -2.0962 C   0  0  0  0  0  0  0  0  0  0  0  0
   15.7712    0.1186   -2.4099 C   0  0  0  0  0  0  0  0  0  0  0  0
   16.3452   -0.3212   -3.6112 C   0  0  0  0  0  0  0  0  0  0  0  0
   16.7239    0.4096   -4.3185 H   0  0  0  0  0  0  0  0  0  0  0  0
   16.4319   -1.6886   -3.9088 C   0  0  0  0  0  0  0  0  0  0  0  0
   16.8644   -2.0075   -4.8519 H   0  0  0  0  0  0  0  0  0  0  0  0
   15.9470   -2.6443   -3.0061 C   0  0  0  0  0  0  0  0  0  0  0  0
   16.0040   -3.7013   -3.2565 H   0  0  0  0  0  0  0  0  0  0  0  0
   15.3827   -2.2458   -1.7833 C   0  0  0  0  0  0  0  0  0  0  0  0
   14.8178   -3.2604   -0.7852 C   0  0  2  0  0  0  0  0  0  0  0  0
   15.1781   -4.7208   -1.0788 C   0  0  0  0  0  0  0  0  0  0  0  0
   16.3950   -5.2407   -0.6108 C   0  0  0  0  0  0  0  0  0  0  0  0
   17.0679   -4.5867   -0.0639 H   0  0  0  0  0  0  0  0  0  0  0  0
   16.7318   -6.5835   -0.8035 C   0  0  0  0  0  0  0  0  0  0  0  0
   17.6732   -6.9578   -0.4159 H   0  0  0  0  0  0  0  0  0  0  0  0
   15.8546   -7.4393   -1.4735 C   0  0  0  0  0  0  0  0  0  0  0  0
   16.1194   -8.4851   -1.6118 H   0  0  0  0  0  0  0  0  0  0  0  0
   14.6437   -6.9397   -1.9625 C   0  0  0  0  0  0  0  0  0  0  0  0
   13.9708   -7.6104   -2.4884 H   0  0  0  0  0  0  0  0  0  0  0  0
   14.3054   -5.5898   -1.7697 C   0  0  0  0  0  0  0  0  0  0  0  0
   13.3548   -5.2289   -2.1528 H   0  0  0  0  0  0  0  0  0  0  0  0
   13.2997   -3.0490   -0.6117 C   0  0  0  0  0  0  0  0  0  0  0  0
   12.4832   -3.1039   -1.5374 O   0  0  0  0  0  0  0  0  0  0  0  0
   13.0083   -2.7052    0.7095 N   0  0  0  0  0  0  0  0  0  0  0  0
   11.7820   -2.0750    1.1781 N   0  0  0  0  0  0  0  0  0  0  0  0
   11.5656   -2.3095    2.1596 H   0  0  0  0  0  0  0  0  0  0  0  0
   11.8533   -0.6148    1.0272 C   0  0  0  0  0  0  0  0  0  0  0  0
   12.1494   -0.3263    0.0104 H   0  0  0  0  0  0  0  0  0  0  0  0
   12.6096   -0.2845    1.7378 H   0  0  0  0  0  0  0  0  0  0  0  0
   10.9094   -0.1093    1.2568 H   0  0  0  0  0  0  0  0  0  0  0  0
   14.2429   -2.6498    1.3626 C   0  0  0  0  0  0  0  0  0  0  0  0
   14.4299   -2.3225    2.6833 N   0  0  0  0  0  0  0  0  0  0  0  0
   15.3634   -2.3497    3.0973 H   0  0  0  0  0  0  0  0  0  0  0  0
   13.6138   -2.1472    3.2655 H   0  0  0  0  0  0  0  0  0  0  0  0
   15.2417   -2.9255    0.5900 N   0  0  0  0  0  4  0  0  0  0  0  0
   16.2173   -2.9201    0.8953 H   0  0  0  0  0  0  0  0  0  0  0  0
   15.2995   -0.8596   -1.5129 C   0  0  0  0  0  0  0  0  0  0  0  0
   14.8687   -0.5277   -0.5754 H   0  0  0  0  0  0  0  0  0  0  0  0
   15.4350    2.0239   -0.7979 C   0  0  0  0  0  0  0  0  0  0  0  0
   15.3015    1.3054    0.0019 H   0  0  0  0  0  0  0  0  0  0  0  0
   15.3728    3.4000   -0.5517 C   0  0  0  0  0  0  0  0  0  0  0  0
   15.1686    3.7862    0.4410 H   0  0  0  0  0  0  0  0  0  0  0  0
  1  2  1  0
  2  3  2  0
  3  4  1  0
  4  5  1  0
  4  6  2  0
  6  7  1  0
  7  8  2  0
  8  9  1  0
  8 10  1  0
 10 11  1  0
 10 12  2  0
 12 13  1  0
 12 14  1  0
 15 14  1  6
 15 16  1  0
 16 17  2  0
 17 18  1  0
 17 19  1  0
 19 20  1  0
 19 21  2  0
 21 22  1  0
 21 23  1  0
 23 24  1  0
 23 25  2  0
 25 26  1  0
 15 27  1  0
 27 28  2  0
 27 29  1  0
 29 30  1  0
 30 31  1  0
 30 32  1  0
 32 33  1  0
 32 34  1  0
 32 35  1  0
 29 36  1  0
 36 37  1  0
 37 38  1  0
 37 39  1  0
 36 40  2  0
 40 41  1  0
 14 42  2  0
 42 43  1  0
  6 44  1  0
 44 45  1  0
 44 46  2  0
 46 47  1  0
 46  2  1  0
 42  7  1  0
 40 15  1  0
 25 16  1  0
M  CHG  1  40   1
M  END
>  <score>  (322) 
5.47978

$$$$

     RDKit          3D

 53 57  0  0  0  0  0  0  0  0999 V2000
   15.5328    5.3225   -1.4125 H   0  0  0  0  0  0  0  0  0  0  0  0
   15.5852    4.2580   -1.6148 C   0  0  0  0  0  0  0  0  0  0  0  0
   15.8362    3.8475   -2.8670 N   0  0  0  0  0  0  0  0  0  0  0  0
   15.8956    2.5238   -3.0997 C   0  0  0  0  0  0  0  0  0  0  0  0
   16.0972    2.1908   -4.1130 H   0  0  0  0  0  0  0  0  0  0  0  0
   15.7079    1.5559   -2.0984 C   0  0  0  0  0  0  0  0  0  0  0  0
   15.7812    0.1185   -2.3974 C   0  0  0  0  0  0  0  0  0  0  0  0
   16.3265   -0.3151   -3.6083 C   0  0  0  0  0  0  0  0  0  0  0  0
   16.6979    0.4258   -4.3082 H   0  0  0  0  0  0  0  0  0  0  0  0
   16.4112   -1.6781   -3.9038 C   0  0  0  0  0  0  0  0  0  0  0  0
   16.8555   -1.9975   -4.8406 H   0  0  0  0  0  0  0  0  0  0  0  0
   15.9451   -2.6239   -2.9844 C   0  0  0  0  0  0  0  0  0  0  0  0
   16.0059   -3.6813   -3.2197 H   0  0  0  0  0  0  0  0  0  0  0  0
   15.4078   -2.2236   -1.7531 C   0  0  0  0  0  0  0  0  0  0  0  0
   14.8579   -3.2394   -0.7582 C   0  0  2  0  0  0  0  0  0  0  0  0
   15.2116   -4.6921   -1.0595 C   0  0  0  0  0  0  0  0  0  0  0  0
   16.4253   -5.2242   -0.6026 C   0  0  0  0  0  0  0  0  0  0  0  0
   17.1084   -4.5800   -0.0584 H   0  0  0  0  0  0  0  0  0  0  0  0
   16.7478   -6.5690   -0.8058 C   0  0  0  0  0  0  0  0  0  0  0  0
   17.6811   -6.9620   -0.4132 H   0  0  0  0  0  0  0  0  0  0  0  0
   15.8591   -7.4041   -1.4893 C   0  0  0  0  0  0  0  0  0  0  0  0
   16.0984   -8.4548   -1.6270 H   0  0  0  0  0  0  0  0  0  0  0  0
   14.6515   -6.8872   -1.9712 C   0  0  0  0  0  0  0  0  0  0  0  0
   13.9554   -7.5417   -2.4880 H   0  0  0  0  0  0  0  0  0  0  0  0
   14.3278   -5.5393   -1.7564 C   0  0  0  0  0  0  0  0  0  0  0  0
   13.3741   -5.1586   -2.1118 H   0  0  0  0  0  0  0  0  0  0  0  0
   13.3441   -3.0271   -0.6152 C   0  0  0  0  0  0  0  0  0  0  0  0
   12.5129   -3.1232   -1.5226 O   0  0  0  0  0  0  0  0  0  0  0  0
   13.0372   -2.6281    0.6811 N   0  0  0  0  0  0  0  0  0  0  0  0
   11.7762   -2.0179    1.0886 N   0  0  0  0  0  0  0  0  0  0  0  0
   10.8590   -2.4421    2.0552 C   0  0  0  0  0  0  0  0  0  0  0  0
   10.9580   -3.4058    2.8003 O   0  0  0  0  0  0  0  0  0  0  0  0
    9.5585   -1.6606    1.9647 C   0  0  0  0  0  0  0  0  0  0  0  0
    9.2543   -1.2757    2.9455 H   0  0  0  0  0  0  0  0  0  0  0  0
    8.7712   -2.3158    1.5796 H   0  0  0  0  0  0  0  0  0  0  0  0
    9.8789   -0.5325    0.9663 C   0  0  0  0  0  0  0  0  0  0  0  0
    9.1232   -0.4649    0.1782 H   0  0  0  0  0  0  0  0  0  0  0  0
    9.8970    0.4385    1.4754 H   0  0  0  0  0  0  0  0  0  0  0  0
   11.2667   -0.8558    0.3740 C   0  0  0  0  0  0  0  0  0  0  0  0
   11.9440   -0.0096    0.5398 H   0  0  0  0  0  0  0  0  0  0  0  0
   11.1950   -1.0657   -0.7051 H   0  0  0  0  0  0  0  0  0  0  0  0
   14.2606   -2.5683    1.3599 C   0  0  0  0  0  0  0  0  0  0  0  0
   14.4640   -2.1984    2.6648 N   0  0  0  0  0  0  0  0  0  0  0  0
   13.6560   -2.1421    3.2847 H   0  0  0  0  0  0  0  0  0  0  0  0
   15.3886   -2.3548    3.0682 H   0  0  0  0  0  0  0  0  0  0  0  0
   15.2686   -2.9091    0.6193 N   0  0  0  0  0  4  0  0  0  0  0  0
   16.2293   -3.0170    0.9579 H   0  0  0  0  0  0  0  0  0  0  0  0
   15.3179   -0.8427   -1.4832 C   0  0  0  0  0  0  0  0  0  0  0  0
   14.8710   -0.5037   -0.5529 H   0  0  0  0  0  0  0  0  0  0  0  0
   15.4696    1.9935   -0.7985 C   0  0  0  0  0  0  0  0  0  0  0  0
   15.3708    1.2646   -0.0002 H   0  0  0  0  0  0  0  0  0  0  0  0
   15.3963    3.3631   -0.5600 C   0  0  0  0  0  0  0  0  0  0  0  0
   15.2072    3.7429    0.4362 H   0  0  0  0  0  0  0  0  0  0  0  0
  1  2  1  0
  2  3  2  0
  3  4  1  0
  4  5  1  0
  4  6  2  0
  6  7  1  0
  7  8  2  0
  8  9  1  0
  8 10  1  0
 10 11  1  0
 10 12  2  0
 12 13  1  0
 12 14  1  0
 15 14  1  6
 15 16  1  0
 16 17  2  0
 17 18  1  0
 17 19  1  0
 19 20  1  0
 19 21  2  0
 21 22  1  0
 21 23  1  0
 23 24  1  0
 23 25  2  0
 25 26  1  0
 15 27  1  0
 27 28  2  0
 27 29  1  0
 29 30  1  0
 30 31  1  0
 31 32  2  0
 31 33  1  0
 33 34  1  0
 33 35  1  0
 33 36  1  0
 36 37  1  0
 36 38  1  0
 36 39  1  0
 39 40  1  0
 39 41  1  0
 29 42  1  0
 42 43  1  0
 43 44  1  0
 43 45  1  0
 42 46  2  0
 46 47  1  0
 14 48  2  0
 48 49  1  0
  6 50  1  0
 50 51  1  0
 50 52  2  0
 52 53  1  0
 52  2  1  0
 48  7  1  0
 46 15  1  0
 25 16  1  0
 39 30  1  0
M  CHG  1  46   1
M  END
>  <score>  (323) 
5.47785

$$$$

     RDKit          3D

 50 53  0  0  0  0  0  0  0  0999 V2000
   15.4962    5.3333   -1.4024 H   0  0  0  0  0  0  0  0  0  0  0  0
   15.5930    4.2707   -1.6025 C   0  0  0  0  0  0  0  0  0  0  0  0
   15.8541    3.8707   -2.8556 N   0  0  0  0  0  0  0  0  0  0  0  0
   15.9653    2.5508   -3.0931 C   0  0  0  0  0  0  0  0  0  0  0  0
   16.1706    2.2294   -4.1097 H   0  0  0  0  0  0  0  0  0  0  0  0
   15.8180    1.5702   -2.0975 C   0  0  0  0  0  0  0  0  0  0  0  0
   15.9394    0.1334   -2.4212 C   0  0  0  0  0  0  0  0  0  0  0  0
   16.3761   -0.2942   -3.6855 C   0  0  0  0  0  0  0  0  0  0  0  0
   16.6244    0.4362   -4.4491 H   0  0  0  0  0  0  0  0  0  0  0  0
   16.5056   -1.6582   -3.9738 C   0  0  0  0  0  0  0  0  0  0  0  0
   16.8605   -1.9708   -4.9524 H   0  0  0  0  0  0  0  0  0  0  0  0
   16.1757   -2.6137   -3.0053 C   0  0  0  0  0  0  0  0  0  0  0  0
   16.2584   -3.6698   -3.2446 H   0  0  0  0  0  0  0  0  0  0  0  0
   15.7202   -2.2230   -1.7362 C   0  0  0  0  0  0  0  0  0  0  0  0
   15.2186   -3.2514   -0.7243 C   0  0  2  0  0  0  0  0  0  0  0  0
   15.5817   -4.7024   -1.0558 C   0  0  0  0  0  0  0  0  0  0  0  0
   16.7572   -5.3189   -0.5895 C   0  0  0  0  0  0  0  0  0  0  0  0
   17.4884   -4.7382   -0.0322 H   0  0  0  0  0  0  0  0  0  0  0  0
   16.9801   -6.6884   -0.8187 C   0  0  0  0  0  0  0  0  0  0  0  0
   17.8873   -7.1585   -0.4481 H   0  0  0  0  0  0  0  0  0  0  0  0
   16.0316   -7.4590   -1.5081 C   0  0  0  0  0  0  0  0  0  0  0  0
   16.1779   -8.5285   -1.6456 H   0  0  0  0  0  0  0  0  0  0  0  0
   14.8871   -6.8466   -2.0235 C   0  0  0  0  0  0  0  0  0  0  0  0
   14.1515   -7.4275   -2.5765 H   0  0  0  0  0  0  0  0  0  0  0  0
   14.6800   -5.4820   -1.8121 C   0  0  0  0  0  0  0  0  0  0  0  0
   13.7802   -5.0367   -2.2252 H   0  0  0  0  0  0  0  0  0  0  0  0
   13.6859   -3.1722   -0.6122 C   0  0  0  0  0  0  0  0  0  0  0  0
   12.9246   -3.3070   -1.5717 O   0  0  0  0  0  0  0  0  0  0  0  0
   13.2872   -3.0309    0.7276 N   0  0  0  0  0  0  0  0  0  0  0  0
   11.9483   -3.2741    1.3250 N   0  0  0  0  0  0  0  0  0  0  0  0
   11.9461   -3.2696    2.3456 H   0  0  0  0  0  0  0  0  0  0  0  0
   10.4674   -2.4726    0.8675 S   0  0  0  0  0  0  0  0  0  0  0  0
    9.8087   -3.1830   -0.2373 O   0  0  0  0  0  0  0  0  0  0  0  0
    9.6203   -2.3555    2.0593 O   0  0  0  0  0  0  0  0  0  0  0  0
   11.0589   -0.8635    0.3646 C   0  0  0  0  0  0  0  0  0  0  0  0
   10.8632   -0.7404   -0.6945 H   0  0  0  0  0  0  0  0  0  0  0  0
   12.1322   -0.8161    0.5565 H   0  0  0  0  0  0  0  0  0  0  0  0
   10.5370   -0.0860    0.9186 H   0  0  0  0  0  0  0  0  0  0  0  0
   14.4922   -2.8284    1.4223 C   0  0  0  0  0  0  0  0  0  0  0  0
   14.6473   -2.5605    2.7567 N   0  0  0  0  0  0  0  0  0  0  0  0
   15.5188   -2.1178    3.0310 H   0  0  0  0  0  0  0  0  0  0  0  0
   13.8168   -2.3128    3.2856 H   0  0  0  0  0  0  0  0  0  0  0  0
   15.5464   -2.9092    0.6709 N   0  0  0  0  0  4  0  0  0  0  0  0
   16.5019   -2.8355    1.0291 H   0  0  0  0  0  0  0  0  0  0  0  0
   15.6139   -0.8446   -1.4668 C   0  0  0  0  0  0  0  0  0  0  0  0
   15.2561   -0.5164   -0.4980 H   0  0  0  0  0  0  0  0  0  0  0  0
   15.5550    1.9993   -0.7918 C   0  0  0  0  0  0  0  0  0  0  0  0
   15.4551    1.2821    0.0190 H   0  0  0  0  0  0  0  0  0  0  0  0
   15.4366    3.3659   -0.5512 C   0  0  0  0  0  0  0  0  0  0  0  0
   15.2272    3.7359    0.4445 H   0  0  0  0  0  0  0  0  0  0  0  0
  1  2  1  0
  2  3  2  0
  3  4  1  0
  4  5  1  0
  4  6  2  0
  6  7  1  0
  7  8  2  0
  8  9  1  0
  8 10  1  0
 10 11  1  0
 10 12  2  0
 12 13  1  0
 12 14  1  0
 15 14  1  6
 15 16  1  0
 16 17  2  0
 17 18  1  0
 17 19  1  0
 19 20  1  0
 19 21  2  0
 21 22  1  0
 21 23  1  0
 23 24  1  0
 23 25  2  0
 25 26  1  0
 15 27  1  0
 27 28  2  0
 27 29  1  0
 29 30  1  0
 30 31  1  0
 30 32  1  0
 32 33  2  0
 32 34  2  0
 32 35  1  0
 35 36  1  0
 35 37  1  0
 35 38  1  0
 29 39  1  0
 39 40  1  0
 40 41  1  0
 40 42  1  0
 39 43  2  0
 43 44  1  0
 14 45  2  0
 45 46  1  0
  6 47  1  0
 47 48  1  0
 47 49  2  0
 49 50  1  0
 49  2  1  0
 45  7  1  0
 43 15  1  0
 25 16  1  0
M  CHG  1  43   1
M  END
>  <score>  (324) 
5.47673

$$$$

     RDKit          3D

 52 56  0  0  0  0  0  0  0  0999 V2000
   15.5694    5.3721   -1.3873 H   0  0  0  0  0  0  0  0  0  0  0  0
   15.5825    4.3031   -1.5953 C   0  0  0  0  0  0  0  0  0  0  0  0
   15.8190    3.8801   -2.8469 N   0  0  0  0  0  0  0  0  0  0  0  0
   15.8636    2.5522   -3.0882 C   0  0  0  0  0  0  0  0  0  0  0  0
   16.0483    2.2209   -4.1054 H   0  0  0  0  0  0  0  0  0  0  0  0
   15.6866    1.5711   -2.0958 C   0  0  0  0  0  0  0  0  0  0  0  0
   15.7698    0.1183   -2.4108 C   0  0  0  0  0  0  0  0  0  0  0  0
   16.3492   -0.3216   -3.6096 C   0  0  0  0  0  0  0  0  0  0  0  0
   16.7230    0.4103   -4.3197 H   0  0  0  0  0  0  0  0  0  0  0  0
   16.4311   -1.6902   -3.9063 C   0  0  0  0  0  0  0  0  0  0  0  0
   16.8638   -2.0081   -4.8508 H   0  0  0  0  0  0  0  0  0  0  0  0
   15.9414   -2.6447   -3.0021 C   0  0  0  0  0  0  0  0  0  0  0  0
   16.0029   -3.7001   -3.2559 H   0  0  0  0  0  0  0  0  0  0  0  0
   15.3731   -2.2436   -1.7792 C   0  0  0  0  0  0  0  0  0  0  0  0
   14.7982   -3.2462   -0.7771 C   0  0  2  0  0  0  0  0  0  0  0  0
   15.1662   -4.7113   -1.0679 C   0  0  0  0  0  0  0  0  0  0  0  0
   16.3895   -5.2339   -0.6110 C   0  0  0  0  0  0  0  0  0  0  0  0
   17.0650   -4.5843   -0.0623 H   0  0  0  0  0  0  0  0  0  0  0  0
   16.7283   -6.5798   -0.8034 C   0  0  0  0  0  0  0  0  0  0  0  0
   17.6711   -6.9553   -0.4168 H   0  0  0  0  0  0  0  0  0  0  0  0
   15.8532   -7.4388   -1.4730 C   0  0  0  0  0  0  0  0  0  0  0  0
   16.1203   -8.4850   -1.6115 H   0  0  0  0  0  0  0  0  0  0  0  0
   14.6430   -6.9360   -1.9618 C   0  0  0  0  0  0  0  0  0  0  0  0
   13.9728   -7.6102   -2.4878 H   0  0  0  0  0  0  0  0  0  0  0  0
   14.3020   -5.5849   -1.7648 C   0  0  0  0  0  0  0  0  0  0  0  0
   13.3523   -5.2296   -2.1540 H   0  0  0  0  0  0  0  0  0  0  0  0
   13.2855   -3.0050   -0.5989 C   0  0  0  0  0  0  0  0  0  0  0  0
   12.4341   -3.0911   -1.4810 O   0  0  0  0  0  0  0  0  0  0  0  0
   12.9995   -2.6779    0.7119 N   0  0  0  0  0  0  0  0  0  0  0  0
   11.7233   -2.4925    1.2634 C   0  0  0  0  0  0  0  0  0  0  0  0
   10.8227   -1.5868    0.6892 C   0  0  0  0  0  0  0  0  0  0  0  0
   11.1403   -1.0028   -0.1702 H   0  0  0  0  0  0  0  0  0  0  0  0
    9.5443   -1.4137    1.2429 C   0  0  0  0  0  0  0  0  0  0  0  0
    8.8482   -0.7055    0.8100 H   0  0  0  0  0  0  0  0  0  0  0  0
    9.1477   -2.1491    2.3630 C   0  0  0  0  0  0  0  0  0  0  0  0
    7.9042   -1.9914    2.8765 F   0  0  0  0  0  0  0  0  0  0  0  0
   10.0484   -3.0524    2.9338 C   0  0  0  0  0  0  0  0  0  0  0  0
    9.7340   -3.6284    3.7960 H   0  0  0  0  0  0  0  0  0  0  0  0
   11.3329   -3.2169    2.3940 C   0  0  0  0  0  0  0  0  0  0  0  0
   12.0311   -3.9219    2.8373 H   0  0  0  0  0  0  0  0  0  0  0  0
   14.2020   -2.6550    1.3807 C   0  0  0  0  0  0  0  0  0  0  0  0
   14.3962   -2.3537    2.6983 N   0  0  0  0  0  0  0  0  0  0  0  0
   15.3370   -2.3793    3.0945 H   0  0  0  0  0  0  0  0  0  0  0  0
   13.6033   -2.0368    3.2531 H   0  0  0  0  0  0  0  0  0  0  0  0
   15.2013   -2.9098    0.6025 N   0  0  0  0  0  4  0  0  0  0  0  0
   16.1720   -2.9159    0.9085 H   0  0  0  0  0  0  0  0  0  0  0  0
   15.2932   -0.8582   -1.5153 C   0  0  0  0  0  0  0  0  0  0  0  0
   14.8718   -0.5224   -0.5754 H   0  0  0  0  0  0  0  0  0  0  0  0
   15.4385    2.0247   -0.7970 C   0  0  0  0  0  0  0  0  0  0  0  0
   15.3001    1.3051    0.0011 H   0  0  0  0  0  0  0  0  0  0  0  0
   15.3728    3.4008   -0.5519 C   0  0  0  0  0  0  0  0  0  0  0  0
   15.1682    3.7871    0.4394 H   0  0  0  0  0  0  0  0  0  0  0  0
  1  2  1  0
  2  3  2  0
  3  4  1  0
  4  5  1  0
  4  6  2  0
  6  7  1  0
  7  8  2  0
  8  9  1  0
  8 10  1  0
 10 11  1  0
 10 12  2  0
 12 13  1  0
 12 14  1  0
 15 14  1  6
 15 16  1  0
 16 17  2  0
 17 18  1  0
 17 19  1  0
 19 20  1  0
 19 21  2  0
 21 22  1  0
 21 23  1  0
 23 24  1  0
 23 25  2  0
 25 26  1  0
 15 27  1  0
 27 28  2  0
 27 29  1  0
 29 30  1  0
 30 31  2  0
 31 32  1  0
 31 33  1  0
 33 34  1  0
 33 35  2  0
 35 36  1  0
 35 37  1  0
 37 38  1  0
 37 39  2  0
 39 40  1  0
 29 41  1  0
 41 42  1  0
 42 43  1  0
 42 44  1  0
 41 45  2  0
 45 46  1  0
 14 47  2  0
 47 48  1  0
  6 49  1  0
 49 50  1  0
 49 51  2  0
 51 52  1  0
 51  2  1  0
 47  7  1  0
 45 15  1  0
 25 16  1  0
 39 30  1  0
M  CHG  1  45   1
M  END
>  <score>  (325) 
5.47583

$$$$

     RDKit          3D

 52 56  0  0  0  0  0  0  0  0999 V2000
   15.5691    5.3719   -1.3871 H   0  0  0  0  0  0  0  0  0  0  0  0
   15.5825    4.3030   -1.5955 C   0  0  0  0  0  0  0  0  0  0  0  0
   15.8191    3.8804   -2.8474 N   0  0  0  0  0  0  0  0  0  0  0  0
   15.8638    2.5523   -3.0883 C   0  0  0  0  0  0  0  0  0  0  0  0
   16.0487    2.2199   -4.1049 H   0  0  0  0  0  0  0  0  0  0  0  0
   15.6868    1.5711   -2.0963 C   0  0  0  0  0  0  0  0  0  0  0  0
   15.7695    0.1182   -2.4109 C   0  0  0  0  0  0  0  0  0  0  0  0
   16.3491   -0.3216   -3.6094 C   0  0  0  0  0  0  0  0  0  0  0  0
   16.7225    0.4115   -4.3185 H   0  0  0  0  0  0  0  0  0  0  0  0
   16.4314   -1.6903   -3.9060 C   0  0  0  0  0  0  0  0  0  0  0  0
   16.8639   -2.0078   -4.8509 H   0  0  0  0  0  0  0  0  0  0  0  0
   15.9420   -2.6450   -3.0012 C   0  0  0  0  0  0  0  0  0  0  0  0
   16.0026   -3.7007   -3.2548 H   0  0  0  0  0  0  0  0  0  0  0  0
   15.3738   -2.2438   -1.7781 C   0  0  0  0  0  0  0  0  0  0  0  0
   14.7977   -3.2462   -0.7762 C   0  0  2  0  0  0  0  0  0  0  0  0
   15.1658   -4.7109   -1.0685 C   0  0  0  0  0  0  0  0  0  0  0  0
   16.3893   -5.2334   -0.6115 C   0  0  0  0  0  0  0  0  0  0  0  0
   17.0644   -4.5840   -0.0621 H   0  0  0  0  0  0  0  0  0  0  0  0
   16.7283   -6.5794   -0.8039 C   0  0  0  0  0  0  0  0  0  0  0  0
   17.6708   -6.9555   -0.4167 H   0  0  0  0  0  0  0  0  0  0  0  0
   15.8531   -7.4384   -1.4733 C   0  0  0  0  0  0  0  0  0  0  0  0
   16.1201   -8.4847   -1.6115 H   0  0  0  0  0  0  0  0  0  0  0  0
   14.6429   -6.9356   -1.9622 C   0  0  0  0  0  0  0  0  0  0  0  0
   13.9728   -7.6103   -2.4878 H   0  0  0  0  0  0  0  0  0  0  0  0
   14.3017   -5.5845   -1.7652 C   0  0  0  0  0  0  0  0  0  0  0  0
   13.3518   -5.2293   -2.1536 H   0  0  0  0  0  0  0  0  0  0  0  0
   13.2849   -3.0040   -0.5968 C   0  0  0  0  0  0  0  0  0  0  0  0
   12.4326   -3.0918   -1.4774 O   0  0  0  0  0  0  0  0  0  0  0  0
   12.9978   -2.6744    0.7125 N   0  0  0  0  0  0  0  0  0  0  0  0
   11.7235   -2.4723    1.2604 C   0  0  0  0  0  0  0  0  0  0  0  0
   11.3212   -3.1898    2.3892 C   0  0  0  0  0  0  0  0  0  0  0  0
   12.0056   -3.9018    2.8380 H   0  0  0  0  0  0  0  0  0  0  0  0
   10.0422   -3.0112    2.9291 C   0  0  0  0  0  0  0  0  0  0  0  0
    9.7282   -3.5848    3.7959 H   0  0  0  0  0  0  0  0  0  0  0  0
    9.1610   -2.0939    2.3474 C   0  0  0  0  0  0  0  0  0  0  0  0
    8.1715   -1.9474    2.7658 H   0  0  0  0  0  0  0  0  0  0  0  0
    9.5551   -1.3555    1.2265 C   0  0  0  0  0  0  0  0  0  0  0  0
    8.3492   -0.0899    0.4447 Br  0  0  0  0  0  0  0  0  0  0  0  0
   10.8336   -1.5550    0.6859 C   0  0  0  0  0  0  0  0  0  0  0  0
   11.1574   -0.9772   -0.1714 H   0  0  0  0  0  0  0  0  0  0  0  0
   14.1998   -2.6541    1.3813 C   0  0  0  0  0  0  0  0  0  0  0  0
   14.3947   -2.3524    2.6978 N   0  0  0  0  0  0  0  0  0  0  0  0
   15.3361   -2.3784    3.0931 H   0  0  0  0  0  0  0  0  0  0  0  0
   13.6016   -2.0384    3.2534 H   0  0  0  0  0  0  0  0  0  0  0  0
   15.1989   -2.9114    0.6040 N   0  0  0  0  0  4  0  0  0  0  0  0
   16.1696   -2.9138    0.9097 H   0  0  0  0  0  0  0  0  0  0  0  0
   15.2930   -0.8583   -1.5151 C   0  0  0  0  0  0  0  0  0  0  0  0
   14.8714   -0.5228   -0.5753 H   0  0  0  0  0  0  0  0  0  0  0  0
   15.4394    2.0247   -0.7977 C   0  0  0  0  0  0  0  0  0  0  0  0
   15.3013    1.3049   -0.0002 H   0  0  0  0  0  0  0  0  0  0  0  0
   15.3732    3.4006   -0.5523 C   0  0  0  0  0  0  0  0  0  0  0  0
   15.1682    3.7856    0.4394 H   0  0  0  0  0  0  0  0  0  0  0  0
  1  2  1  0
  2  3  2  0
  3  4  1  0
  4  5  1  0
  4  6  2  0
  6  7  1  0
  7  8  2  0
  8  9  1  0
  8 10  1  0
 10 11  1  0
 10 12  2  0
 12 13  1  0
 12 14  1  0
 15 14  1  6
 15 16  1  0
 16 17  2  0
 17 18  1  0
 17 19  1  0
 19 20  1  0
 19 21  2  0
 21 22  1  0
 21 23  1  0
 23 24  1  0
 23 25  2  0
 25 26  1  0
 15 27  1  0
 27 28  2  0
 27 29  1  0
 29 30  1  0
 30 31  2  0
 31 32  1  0
 31 33  1  0
 33 34  1  0
 33 35  2  0
 35 36  1  0
 35 37  1  0
 37 38  1  0
 37 39  2  0
 39 40  1  0
 29 41  1  0
 41 42  1  0
 42 43  1  0
 42 44  1  0
 41 45  2  0
 45 46  1  0
 14 47  2  0
 47 48  1  0
  6 49  1  0
 49 50  1  0
 49 51  2  0
 51 52  1  0
 51  2  1  0
 47  7  1  0
 45 15  1  0
 25 16  1  0
 39 30  1  0
M  CHG  1  45   1
M  END
>  <score>  (326) 
5.47096

$$$$

     RDKit          3D

 56 61  0  0  0  0  0  0  0  0999 V2000
   15.5390    5.3304   -1.4078 H   0  0  0  0  0  0  0  0  0  0  0  0
   15.5851    4.2661   -1.6115 C   0  0  0  0  0  0  0  0  0  0  0  0
   15.8357    3.8565   -2.8640 N   0  0  0  0  0  0  0  0  0  0  0  0
   15.8901    2.5322   -3.0992 C   0  0  0  0  0  0  0  0  0  0  0  0
   16.0877    2.1984   -4.1135 H   0  0  0  0  0  0  0  0  0  0  0  0
   15.7042    1.5633   -2.0973 C   0  0  0  0  0  0  0  0  0  0  0  0
   15.7787    0.1232   -2.3972 C   0  0  0  0  0  0  0  0  0  0  0  0
   16.3297   -0.3133   -3.6054 C   0  0  0  0  0  0  0  0  0  0  0  0
   16.7053    0.4228   -4.3091 H   0  0  0  0  0  0  0  0  0  0  0  0
   16.4086   -1.6787   -3.9036 C   0  0  0  0  0  0  0  0  0  0  0  0
   16.8619   -2.0034   -4.8361 H   0  0  0  0  0  0  0  0  0  0  0  0
   15.9336   -2.6232   -2.9830 C   0  0  0  0  0  0  0  0  0  0  0  0
   15.9963   -3.6821   -3.2158 H   0  0  0  0  0  0  0  0  0  0  0  0
   15.3888   -2.2213   -1.7525 C   0  0  0  0  0  0  0  0  0  0  0  0
   14.8217   -3.2312   -0.7606 C   0  0  2  0  0  0  0  0  0  0  0  0
   15.1855   -4.6852   -1.0618 C   0  0  0  0  0  0  0  0  0  0  0  0
   16.4037   -5.2121   -0.6019 C   0  0  0  0  0  0  0  0  0  0  0  0
   17.0819   -4.5650   -0.0552 H   0  0  0  0  0  0  0  0  0  0  0  0
   16.7350   -6.5573   -0.7990 C   0  0  0  0  0  0  0  0  0  0  0  0
   17.6747   -6.9444   -0.4135 H   0  0  0  0  0  0  0  0  0  0  0  0
   15.8516   -7.3974   -1.4832 C   0  0  0  0  0  0  0  0  0  0  0  0
   16.1018   -8.4454   -1.6232 H   0  0  0  0  0  0  0  0  0  0  0  0
   14.6424   -6.8897   -1.9696 C   0  0  0  0  0  0  0  0  0  0  0  0
   13.9552   -7.5527   -2.4889 H   0  0  0  0  0  0  0  0  0  0  0  0
   14.3097   -5.5422   -1.7579 C   0  0  0  0  0  0  0  0  0  0  0  0
   13.3554   -5.1700   -2.1180 H   0  0  0  0  0  0  0  0  0  0  0  0
   13.2980   -3.0170   -0.6188 C   0  0  0  0  0  0  0  0  0  0  0  0
   12.4529   -3.1438   -1.5078 O   0  0  0  0  0  0  0  0  0  0  0  0
   13.0291   -2.6628    0.6874 N   0  0  0  0  0  0  0  0  0  0  0  0
   11.7630   -2.4713    1.2407 C   0  0  0  0  0  0  0  0  0  0  0  0
   10.8649   -1.5812    0.6485 C   0  0  0  0  0  0  0  0  0  0  0  0
   11.1872   -1.0293   -0.2282 H   0  0  0  0  0  0  0  0  0  0  0  0
    9.5782   -1.4136    1.1808 C   0  0  0  0  0  0  0  0  0  0  0  0
    8.8995   -0.6998    0.7302 H   0  0  0  0  0  0  0  0  0  0  0  0
    9.1828   -2.1917    2.2771 C   0  0  0  0  0  0  0  0  0  0  0  0
   10.0877   -3.0726    2.8681 C   0  0  0  0  0  0  0  0  0  0  0  0
   11.3826   -3.1959    2.3707 C   0  0  0  0  0  0  0  0  0  0  0  0
   12.0877   -3.8781    2.8280 H   0  0  0  0  0  0  0  0  0  0  0  0
    9.4191   -3.7547    3.9689 C   0  0  0  0  0  0  0  0  0  0  0  0
    9.8420   -4.4959    4.6454 H   0  0  0  0  0  0  0  0  0  0  0  0
    8.1273   -3.2957    3.9858 C   0  0  0  0  0  0  0  0  0  0  0  0
    7.3514   -3.6179    4.6784 H   0  0  0  0  0  0  0  0  0  0  0  0
    8.0003   -2.3182    2.9986 N   0  0  0  0  0  0  0  0  0  0  0  0
    7.1861   -1.7183    2.8945 H   0  0  0  0  0  0  0  0  0  0  0  0
   14.2204   -2.6537    1.3829 C   0  0  0  0  0  0  0  0  0  0  0  0
   14.4028   -2.3935    2.7151 N   0  0  0  0  0  0  0  0  0  0  0  0
   13.6203   -2.0560    3.2740 H   0  0  0  0  0  0  0  0  0  0  0  0
   15.3544   -2.3093    3.0709 H   0  0  0  0  0  0  0  0  0  0  0  0
   15.2340   -2.9103    0.6243 N   0  0  0  0  0  4  0  0  0  0  0  0
   16.2000   -2.9759    0.9552 H   0  0  0  0  0  0  0  0  0  0  0  0
   15.3067   -0.8390   -1.4866 C   0  0  0  0  0  0  0  0  0  0  0  0
   14.8607   -0.4988   -0.5582 H   0  0  0  0  0  0  0  0  0  0  0  0
   15.4617    2.0012   -0.7978 C   0  0  0  0  0  0  0  0  0  0  0  0
   15.3543    1.2707   -0.0023 H   0  0  0  0  0  0  0  0  0  0  0  0
   15.3893    3.3706   -0.5590 C   0  0  0  0  0  0  0  0  0  0  0  0
   15.1994    3.7510    0.4365 H   0  0  0  0  0  0  0  0  0  0  0  0
  1  2  1  0
  2  3  2  0
  3  4  1  0
  4  5  1  0
  4  6  2  0
  6  7  1  0
  7  8  2  0
  8  9  1  0
  8 10  1  0
 10 11  1  0
 10 12  2  0
 12 13  1  0
 12 14  1  0
 15 14  1  6
 15 16  1  0
 16 17  2  0
 17 18  1  0
 17 19  1  0
 19 20  1  0
 19 21  2  0
 21 22  1  0
 21 23  1  0
 23 24  1  0
 23 25  2  0
 25 26  1  0
 15 27  1  0
 27 28  2  0
 27 29  1  0
 29 30  1  0
 30 31  2  0
 31 32  1  0
 31 33  1  0
 33 34  1  0
 33 35  2  0
 35 36  1  0
 36 37  2  0
 37 38  1  0
 36 39  1  0
 39 40  1  0
 39 41  2  0
 41 42  1  0
 41 43  1  0
 43 44  1  0
 29 45  1  0
 45 46  1  0
 46 47  1  0
 46 48  1  0
 45 49  2  0
 49 50  1  0
 14 51  2  0
 51 52  1  0
  6 53  1  0
 53 54  1  0
 53 55  2  0
 55 56  1  0
 55  2  1  0
 51  7  1  0
 49 15  1  0
 25 16  1  0
 37 30  1  0
 43 35  1  0
M  CHG  1  49   1
M  END
>  <score>  (327) 
5.46895

$$$$

     RDKit          3D

 49 52  0  0  0  0  0  0  0  0999 V2000
   15.5544    5.3514   -1.3954 H   0  0  0  0  0  0  0  0  0  0  0  0
   15.5876    4.2849   -1.6044 C   0  0  0  0  0  0  0  0  0  0  0  0
   15.8235    3.8691   -2.8580 N   0  0  0  0  0  0  0  0  0  0  0  0
   15.8769    2.5429   -3.0930 C   0  0  0  0  0  0  0  0  0  0  0  0
   16.0670    2.2077   -4.1070 H   0  0  0  0  0  0  0  0  0  0  0  0
   15.6934    1.5684   -2.0968 C   0  0  0  0  0  0  0  0  0  0  0  0
   15.7759    0.1208   -2.4057 C   0  0  0  0  0  0  0  0  0  0  0  0
   16.3322   -0.3182   -3.6132 C   0  0  0  0  0  0  0  0  0  0  0  0
   16.7135    0.4241   -4.3068 H   0  0  0  0  0  0  0  0  0  0  0  0
   16.4227   -1.6846   -3.9099 C   0  0  0  0  0  0  0  0  0  0  0  0
   16.8646   -2.0023   -4.8482 H   0  0  0  0  0  0  0  0  0  0  0  0
   15.9500   -2.6370   -2.9993 C   0  0  0  0  0  0  0  0  0  0  0  0
   16.0054   -3.6950   -3.2416 H   0  0  0  0  0  0  0  0  0  0  0  0
   15.3994   -2.2360   -1.7719 C   0  0  0  0  0  0  0  0  0  0  0  0
   14.8429   -3.2489   -0.7707 C   0  0  2  0  0  0  0  0  0  0  0  0
   15.1929   -4.7091   -1.0755 C   0  0  0  0  0  0  0  0  0  0  0  0
   16.4077   -5.2356   -0.6093 C   0  0  0  0  0  0  0  0  0  0  0  0
   17.0825   -4.5851   -0.0613 H   0  0  0  0  0  0  0  0  0  0  0  0
   16.7418   -6.5798   -0.8037 C   0  0  0  0  0  0  0  0  0  0  0  0
   17.6789   -6.9654   -0.4117 H   0  0  0  0  0  0  0  0  0  0  0  0
   15.8601   -7.4264   -1.4813 C   0  0  0  0  0  0  0  0  0  0  0  0
   16.1078   -8.4754   -1.6157 H   0  0  0  0  0  0  0  0  0  0  0  0
   14.6485   -6.9240   -1.9678 C   0  0  0  0  0  0  0  0  0  0  0  0
   13.9609   -7.5876   -2.4871 H   0  0  0  0  0  0  0  0  0  0  0  0
   14.3174   -5.5726   -1.7686 C   0  0  0  0  0  0  0  0  0  0  0  0
   13.3630   -5.2010   -2.1306 H   0  0  0  0  0  0  0  0  0  0  0  0
   13.3306   -3.0228   -0.6046 C   0  0  0  0  0  0  0  0  0  0  0  0
   12.5159   -3.1120   -1.5267 O   0  0  0  0  0  0  0  0  0  0  0  0
   13.0412   -2.6152    0.6987 N   0  0  0  0  0  0  0  0  0  0  0  0
   11.7722   -2.0826    1.2074 N   0  0  0  0  0  0  0  0  0  0  0  0
   11.7861   -1.2095    1.7482 H   0  0  0  0  0  0  0  0  0  0  0  0
   10.5025   -2.5824    0.9355 C   0  0  0  0  0  0  0  0  0  0  0  0
   10.3162   -3.6178    0.3020 O   0  0  0  0  0  0  0  0  0  0  0  0
    9.3052   -1.7425    1.3280 C   0  0  0  0  0  0  0  0  0  0  0  0
    9.5061   -0.6876    1.1230 H   0  0  0  0  0  0  0  0  0  0  0  0
    8.4503   -2.0605    0.7327 H   0  0  0  0  0  0  0  0  0  0  0  0
    9.0787   -1.8592    2.3909 H   0  0  0  0  0  0  0  0  0  0  0  0
   14.2723   -2.6019    1.3647 C   0  0  0  0  0  0  0  0  0  0  0  0
   14.4483   -2.2894    2.6866 N   0  0  0  0  0  0  0  0  0  0  0  0
   15.3784   -2.3500    3.0980 H   0  0  0  0  0  0  0  0  0  0  0  0
   13.6283   -2.1740    3.2806 H   0  0  0  0  0  0  0  0  0  0  0  0
   15.2733   -2.9231    0.6062 N   0  0  0  0  0  4  0  0  0  0  0  0
   16.2498   -2.9616    0.9167 H   0  0  0  0  0  0  0  0  0  0  0  0
   15.3138   -0.8517   -1.5001 C   0  0  0  0  0  0  0  0  0  0  0  0
   14.8657   -0.5166   -0.5697 H   0  0  0  0  0  0  0  0  0  0  0  0
   15.4426    2.0132   -0.7986 C   0  0  0  0  0  0  0  0  0  0  0  0
   15.3309    1.2802   -0.0065 H   0  0  0  0  0  0  0  0  0  0  0  0
   15.3819    3.3870   -0.5554 C   0  0  0  0  0  0  0  0  0  0  0  0
   15.1815    3.7724    0.4371 H   0  0  0  0  0  0  0  0  0  0  0  0
  1  2  1  0
  2  3  2  0
  3  4  1  0
  4  5  1  0
  4  6  2  0
  6  7  1  0
  7  8  2  0
  8  9  1  0
  8 10  1  0
 10 11  1  0
 10 12  2  0
 12 13  1  0
 12 14  1  0
 15 14  1  6
 15 16  1  0
 16 17  2  0
 17 18  1  0
 17 19  1  0
 19 20  1  0
 19 21  2  0
 21 22  1  0
 21 23  1  0
 23 24  1  0
 23 25  2  0
 25 26  1  0
 15 27  1  0
 27 28  2  0
 27 29  1  0
 29 30  1  0
 30 31  1  0
 30 32  1  0
 32 33  2  0
 32 34  1  0
 34 35  1  0
 34 36  1  0
 34 37  1  0
 29 38  1  0
 38 39  1  0
 39 40  1  0
 39 41  1  0
 38 42  2  0
 42 43  1  0
 14 44  2  0
 44 45  1  0
  6 46  1  0
 46 47  1  0
 46 48  2  0
 48 49  1  0
 48  2  1  0
 44  7  1  0
 42 15  1  0
 25 16  1  0
M  CHG  1  42   1
M  END
>  <score>  (328) 
5.46869

$$$$

     RDKit          3D

 55 60  0  0  0  0  0  0  0  0999 V2000
   15.5232    5.3351   -1.4191 H   0  0  0  0  0  0  0  0  0  0  0  0
   15.5982    4.2681   -1.6083 C   0  0  0  0  0  0  0  0  0  0  0  0
   15.8437    3.8514   -2.8604 N   0  0  0  0  0  0  0  0  0  0  0  0
   15.9262    2.5260   -3.0850 C   0  0  0  0  0  0  0  0  0  0  0  0
   16.1225    2.1818   -4.0944 H   0  0  0  0  0  0  0  0  0  0  0  0
   15.7656    1.5558   -2.0849 C   0  0  0  0  0  0  0  0  0  0  0  0
   15.8507    0.1153   -2.4052 C   0  0  0  0  0  0  0  0  0  0  0  0
   16.3607   -0.3348   -3.6330 C   0  0  0  0  0  0  0  0  0  0  0  0
   16.7018    0.3865   -4.3662 H   0  0  0  0  0  0  0  0  0  0  0  0
   16.4317   -1.7030   -3.9285 C   0  0  0  0  0  0  0  0  0  0  0  0
   16.8211   -2.0324   -4.8868 H   0  0  0  0  0  0  0  0  0  0  0  0
   16.0029   -2.6445   -2.9875 C   0  0  0  0  0  0  0  0  0  0  0  0
   16.0539   -3.7073   -3.2116 H   0  0  0  0  0  0  0  0  0  0  0  0
   15.4959   -2.2203   -1.7505 C   0  0  0  0  0  0  0  0  0  0  0  0
   14.9446   -3.1906   -0.7281 C   0  0  2  0  0  0  0  0  0  0  0  0
   15.2752   -4.6470   -1.0207 C   0  0  0  0  0  0  0  0  0  0  0  0
   16.4864   -5.2053   -0.5839 C   0  0  0  0  0  0  0  0  0  0  0  0
   17.1992   -4.5815   -0.0525 H   0  0  0  0  0  0  0  0  0  0  0  0
   16.7757   -6.5527   -0.8142 C   0  0  0  0  0  0  0  0  0  0  0  0
   17.7141   -6.9628   -0.4549 H   0  0  0  0  0  0  0  0  0  0  0  0
   15.8611   -7.3574   -1.4993 C   0  0  0  0  0  0  0  0  0  0  0  0
   16.0888   -8.4039   -1.6756 H   0  0  0  0  0  0  0  0  0  0  0  0
   14.6616   -6.8085   -1.9633 C   0  0  0  0  0  0  0  0  0  0  0  0
   13.9528   -7.4293   -2.5019 H   0  0  0  0  0  0  0  0  0  0  0  0
   14.3730   -5.4599   -1.7296 C   0  0  0  0  0  0  0  0  0  0  0  0
   13.4369   -5.0508   -2.0990 H   0  0  0  0  0  0  0  0  0  0  0  0
   13.4295   -2.9409   -0.5871 C   0  0  0  0  0  0  0  0  0  0  0  0
   12.5615   -3.1816   -1.4291 O   0  0  0  0  0  0  0  0  0  0  0  0
   13.1709   -2.5211    0.6989 N   0  0  0  0  0  0  0  0  0  0  0  0
   11.9071   -2.5275    1.2868 C   0  0  0  0  0  0  0  0  0  0  0  0
   10.4940   -1.7499    0.5822 S   0  0  0  0  0  0  0  0  0  0  0  0
    9.5074   -2.3625    1.8969 C   0  0  0  0  0  0  0  0  0  0  0  0
    8.1428   -2.2007    2.0597 C   0  0  0  0  0  0  0  0  0  0  0  0
    7.6344   -1.5981    1.3223 H   0  0  0  0  0  0  0  0  0  0  0  0
    7.4898   -2.8366    3.1281 C   0  0  0  0  0  0  0  0  0  0  0  0
    6.4165   -2.7714    3.2492 H   0  0  0  0  0  0  0  0  0  0  0  0
    8.2181   -3.5986    4.0512 C   0  0  0  0  0  0  0  0  0  0  0  0
    7.7153   -4.0709    4.8936 H   0  0  0  0  0  0  0  0  0  0  0  0
    9.5959   -3.7591    3.8751 C   0  0  0  0  0  0  0  0  0  0  0  0
   10.1619   -4.4031    4.5408 H   0  0  0  0  0  0  0  0  0  0  0  0
   10.2317   -3.1186    2.8072 C   0  0  0  0  0  0  0  0  0  0  0  0
   11.6353   -3.1754    2.4655 C   0  0  0  0  0  0  0  0  0  0  0  0
   12.3788   -3.7052    3.0520 H   0  0  0  0  0  0  0  0  0  0  0  0
   14.3616   -2.5833    1.3931 C   0  0  0  0  0  0  0  0  0  0  0  0
   14.5020   -2.4479    2.7431 N   0  0  0  0  0  0  0  0  0  0  0  0
   13.7037   -2.0852    3.2623 H   0  0  0  0  0  0  0  0  0  0  0  0
   15.4391   -2.2452    3.0880 H   0  0  0  0  0  0  0  0  0  0  0  0
   15.3805   -2.8432    0.6403 N   0  0  0  0  0  4  0  0  0  0  0  0
   16.2967   -3.0965    1.0195 H   0  0  0  0  0  0  0  0  0  0  0  0
   15.4080   -0.8433   -1.4875 C   0  0  0  0  0  0  0  0  0  0  0  0
   14.9697   -0.5082   -0.5526 H   0  0  0  0  0  0  0  0  0  0  0  0
   15.5268    2.0024   -0.7810 C   0  0  0  0  0  0  0  0  0  0  0  0
   15.4101    1.2907    0.0303 H   0  0  0  0  0  0  0  0  0  0  0  0
   15.4413    3.3743   -0.5457 C   0  0  0  0  0  0  0  0  0  0  0  0
   15.2516    3.7519    0.4530 H   0  0  0  0  0  0  0  0  0  0  0  0
  1  2  1  0
  2  3  2  0
  3  4  1  0
  4  5  1  0
  4  6  2  0
  6  7  1  0
  7  8  2  0
  8  9  1  0
  8 10  1  0
 10 11  1  0
 10 12  2  0
 12 13  1  0
 12 14  1  0
 15 14  1  6
 15 16  1  0
 16 17  2  0
 17 18  1  0
 17 19  1  0
 19 20  1  0
 19 21  2  0
 21 22  1  0
 21 23  1  0
 23 24  1  0
 23 25  2  0
 25 26  1  0
 15 27  1  0
 27 28  2  0
 27 29  1  0
 29 30  1  0
 30 31  1  0
 31 32  1  0
 32 33  2  0
 33 34  1  0
 33 35  1  0
 35 36  1  0
 35 37  2  0
 37 38  1  0
 37 39  1  0
 39 40  1  0
 39 41  2  0
 41 42  1  0
 42 43  1  0
 29 44  1  0
 44 45  1  0
 45 46  1  0
 45 47  1  0
 44 48  2  0
 48 49  1  0
 14 50  2  0
 50 51  1  0
  6 52  1  0
 52 53  1  0
 52 54  2  0
 54 55  1  0
 54  2  1  0
 50  7  1  0
 48 15  1  0
 25 16  1  0
 42 30  2  0
 41 32  1  0
M  CHG  1  48   1
M  END
>  <score>  (329) 
5.46854

$$$$

     RDKit          3D

 53 57  0  0  0  0  0  0  0  0999 V2000
   15.5694    5.3720   -1.3875 H   0  0  0  0  0  0  0  0  0  0  0  0
   15.5842    4.3031   -1.5959 C   0  0  0  0  0  0  0  0  0  0  0  0
   15.8198    3.8813   -2.8484 N   0  0  0  0  0  0  0  0  0  0  0  0
   15.8641    2.5532   -3.0874 C   0  0  0  0  0  0  0  0  0  0  0  0
   16.0452    2.2252   -4.1053 H   0  0  0  0  0  0  0  0  0  0  0  0
   15.6859    1.5711   -2.0960 C   0  0  0  0  0  0  0  0  0  0  0  0
   15.7724    0.1188   -2.4104 C   0  0  0  0  0  0  0  0  0  0  0  0
   16.3470   -0.3217   -3.6116 C   0  0  0  0  0  0  0  0  0  0  0  0
   16.7256    0.4070   -4.3213 H   0  0  0  0  0  0  0  0  0  0  0  0
   16.4324   -1.6901   -3.9077 C   0  0  0  0  0  0  0  0  0  0  0  0
   16.8651   -2.0080   -4.8525 H   0  0  0  0  0  0  0  0  0  0  0  0
   15.9429   -2.6451   -3.0039 C   0  0  0  0  0  0  0  0  0  0  0  0
   16.0036   -3.7012   -3.2576 H   0  0  0  0  0  0  0  0  0  0  0  0
   15.3690   -2.2442   -1.7839 C   0  0  0  0  0  0  0  0  0  0  0  0
   14.7967   -3.2512   -0.7824 C   0  0  2  0  0  0  0  0  0  0  0  0
   15.1656   -4.7151   -1.0703 C   0  0  0  0  0  0  0  0  0  0  0  0
   16.3876   -5.2356   -0.6089 C   0  0  0  0  0  0  0  0  0  0  0  0
   17.0661   -4.5859   -0.0645 H   0  0  0  0  0  0  0  0  0  0  0  0
   16.7289   -6.5798   -0.8031 C   0  0  0  0  0  0  0  0  0  0  0  0
   17.6720   -6.9560   -0.4173 H   0  0  0  0  0  0  0  0  0  0  0  0
   15.8538   -7.4395   -1.4720 C   0  0  0  0  0  0  0  0  0  0  0  0
   16.1210   -8.4855   -1.6117 H   0  0  0  0  0  0  0  0  0  0  0  0
   14.6428   -6.9390   -1.9613 C   0  0  0  0  0  0  0  0  0  0  0  0
   13.9724   -7.6121   -2.4883 H   0  0  0  0  0  0  0  0  0  0  0  0
   14.3017   -5.5886   -1.7667 C   0  0  0  0  0  0  0  0  0  0  0  0
   13.3528   -5.2314   -2.1557 H   0  0  0  0  0  0  0  0  0  0  0  0
   13.2797   -3.0326   -0.5747 C   0  0  0  0  0  0  0  0  0  0  0  0
   12.4004   -3.1145   -1.4276 O   0  0  0  0  0  0  0  0  0  0  0  0
   13.0328   -2.6402    0.7207 N   0  0  0  0  0  0  0  0  0  0  0  0
   11.7392   -2.6010    1.3634 C   0  0  1  0  0  0  0  0  0  0  0  0
   11.7496   -1.8894    2.1999 H   0  0  0  0  0  0  0  0  0  0  0  0
   10.7668   -2.1995    0.4003 O   0  0  0  0  0  0  0  0  0  0  0  0
    9.5984   -3.0308    0.4777 C   0  0  0  0  0  0  0  0  0  0  0  0
    8.6784   -2.4470    0.6107 H   0  0  0  0  0  0  0  0  0  0  0  0
    9.4999   -3.5938   -0.4554 H   0  0  0  0  0  0  0  0  0  0  0  0
    9.8043   -3.9775    1.6513 C   0  0  0  0  0  0  0  0  0  0  0  0
    9.4121   -4.9767    1.4462 H   0  0  0  0  0  0  0  0  0  0  0  0
    9.2971   -3.6027    2.5447 H   0  0  0  0  0  0  0  0  0  0  0  0
   11.3097   -3.9733    1.8446 C   0  0  0  0  0  0  0  0  0  0  0  0
   11.5931   -4.1335    2.8846 H   0  0  0  0  0  0  0  0  0  0  0  0
   11.7769   -4.7547    1.2423 H   0  0  0  0  0  0  0  0  0  0  0  0
   14.2259   -2.6222    1.3699 C   0  0  0  0  0  0  0  0  0  0  0  0
   14.3940   -2.3568    2.6930 N   0  0  0  0  0  0  0  0  0  0  0  0
   13.5785   -2.1615    3.2702 H   0  0  0  0  0  0  0  0  0  0  0  0
   15.3369   -2.3415    3.0818 H   0  0  0  0  0  0  0  0  0  0  0  0
   15.2126   -2.8945    0.5906 N   0  0  0  0  0  4  0  0  0  0  0  0
   16.1799   -2.9126    0.9023 H   0  0  0  0  0  0  0  0  0  0  0  0
   15.2963   -0.8586   -1.5150 C   0  0  0  0  0  0  0  0  0  0  0  0
   14.8673   -0.5288   -0.5765 H   0  0  0  0  0  0  0  0  0  0  0  0
   15.4346    2.0251   -0.7973 C   0  0  0  0  0  0  0  0  0  0  0  0
   15.2973    1.3093    0.0042 H   0  0  0  0  0  0  0  0  0  0  0  0
   15.3722    3.4014   -0.5512 C   0  0  0  0  0  0  0  0  0  0  0  0
   15.1677    3.7868    0.4418 H   0  0  0  0  0  0  0  0  0  0  0  0
  1  2  1  0
  2  3  2  0
  3  4  1  0
  4  5  1  0
  4  6  2  0
  6  7  1  0
  7  8  2  0
  8  9  1  0
  8 10  1  0
 10 11  1  0
 10 12  2  0
 12 13  1  0
 12 14  1  0
 15 14  1  6
 15 16  1  0
 16 17  2  0
 17 18  1  0
 17 19  1  0
 19 20  1  0
 19 21  2  0
 21 22  1  0
 21 23  1  0
 23 24  1  0
 23 25  2  0
 25 26  1  0
 15 27  1  0
 27 28  2  0
 27 29  1  0
 29 30  1  0
 30 31  1  1
 30 32  1  0
 32 33  1  0
 33 34  1  0
 33 35  1  0
 33 36  1  0
 36 37  1  0
 36 38  1  0
 36 39  1  0
 39 40  1  0
 39 41  1  0
 29 42  1  0
 42 43  1  0
 43 44  1  0
 43 45  1  0
 42 46  2  0
 46 47  1  0
 14 48  2  0
 48 49  1  0
  6 50  1  0
 50 51  1  0
 50 52  2  0
 52 53  1  0
 52  2  1  0
 48  7  1  0
 46 15  1  0
 25 16  1  0
 39 30  1  0
M  CHG  1  46   1
M  END
>  <score>  (330) 
5.46765

$$$$

     RDKit          3D

 55 59  0  0  0  0  0  0  0  0999 V2000
    8.2962   -4.6735   -1.4216 H   0  0  0  0  0  0  0  0  0  0  0  0
    9.1890   -4.9362   -0.8710 C   0  0  0  0  0  0  0  0  0  0  0  0
    9.5972   -4.1133    0.1023 N   0  0  0  0  0  0  0  0  0  0  0  0
   10.7196   -4.4262    0.7674 C   0  0  0  0  0  0  0  0  0  0  0  0
   11.1922   -3.4782    1.8358 C   0  0  0  0  0  0  0  0  0  0  0  0
   10.3476   -3.1817    2.4673 H   0  0  0  0  0  0  0  0  0  0  0  0
   11.9301   -3.9715    2.4702 H   0  0  0  0  0  0  0  0  0  0  0  0
   11.7888   -2.3216    1.2454 O   0  0  0  0  0  0  0  0  0  0  0  0
   13.0501   -2.6476    0.6829 N   0  0  0  0  0  0  0  0  0  0  0  0
   13.3050   -3.0127   -0.6226 C   0  0  0  0  0  0  0  0  0  0  0  0
   12.4441   -3.1033   -1.4965 O   0  0  0  0  0  0  0  0  0  0  0  0
   14.8198   -3.2532   -0.7900 C   0  0  1  0  0  0  0  0  0  0  0  0
   15.1719   -4.7201   -1.0758 C   0  0  0  0  0  0  0  0  0  0  0  0
   16.3904   -5.2415   -0.6097 C   0  0  0  0  0  0  0  0  0  0  0  0
   17.0668   -4.5889   -0.0663 H   0  0  0  0  0  0  0  0  0  0  0  0
   16.7282   -6.5842   -0.8014 C   0  0  0  0  0  0  0  0  0  0  0  0
   17.6726   -6.9560   -0.4179 H   0  0  0  0  0  0  0  0  0  0  0  0
   15.8524   -7.4415   -1.4710 C   0  0  0  0  0  0  0  0  0  0  0  0
   16.1219   -8.4862   -1.6114 H   0  0  0  0  0  0  0  0  0  0  0  0
   14.6406   -6.9419   -1.9594 C   0  0  0  0  0  0  0  0  0  0  0  0
   13.9721   -7.6145   -2.4884 H   0  0  0  0  0  0  0  0  0  0  0  0
   14.2998   -5.5919   -1.7660 C   0  0  0  0  0  0  0  0  0  0  0  0
   13.3511   -5.2340   -2.1576 H   0  0  0  0  0  0  0  0  0  0  0  0
   15.3863   -2.2453   -1.7866 C   0  0  0  0  0  0  0  0  0  0  0  0
   15.9472   -2.6453   -3.0095 C   0  0  0  0  0  0  0  0  0  0  0  0
   16.0054   -3.7011   -3.2606 H   0  0  0  0  0  0  0  0  0  0  0  0
   16.4321   -1.6897   -3.9105 C   0  0  0  0  0  0  0  0  0  0  0  0
   16.8653   -2.0081   -4.8531 H   0  0  0  0  0  0  0  0  0  0  0  0
   16.3487   -0.3222   -3.6116 C   0  0  0  0  0  0  0  0  0  0  0  0
   16.7269    0.4044   -4.3237 H   0  0  0  0  0  0  0  0  0  0  0  0
   15.7721    0.1188   -2.4106 C   0  0  0  0  0  0  0  0  0  0  0  0
   15.6850    1.5718   -2.0951 C   0  0  0  0  0  0  0  0  0  0  0  0
   15.8629    2.5539   -3.0871 C   0  0  0  0  0  0  0  0  0  0  0  0
   16.0434    2.2276   -4.1060 H   0  0  0  0  0  0  0  0  0  0  0  0
   15.8204    3.8816   -2.8469 N   0  0  0  0  0  0  0  0  0  0  0  0
   15.5840    4.3034   -1.5950 C   0  0  0  0  0  0  0  0  0  0  0  0
   15.5701    5.3721   -1.3876 H   0  0  0  0  0  0  0  0  0  0  0  0
   15.3710    3.4025   -0.5510 C   0  0  0  0  0  0  0  0  0  0  0  0
   15.1674    3.7863    0.4420 H   0  0  0  0  0  0  0  0  0  0  0  0
   15.4333    2.0270   -0.7965 C   0  0  0  0  0  0  0  0  0  0  0  0
   15.2947    1.3141    0.0065 H   0  0  0  0  0  0  0  0  0  0  0  0
   15.2993   -0.8600   -1.5156 C   0  0  0  0  0  0  0  0  0  0  0  0
   14.8683   -0.5298   -0.5768 H   0  0  0  0  0  0  0  0  0  0  0  0
   15.2444   -2.9082    0.5867 N   0  0  0  0  0  4  0  0  0  0  0  0
   16.2192   -2.9157    0.8913 H   0  0  0  0  0  0  0  0  0  0  0  0
   14.2475   -2.6155    1.3594 C   0  0  0  0  0  0  0  0  0  0  0  0
   14.4077   -2.3351    2.6960 N   0  0  0  0  0  0  0  0  0  0  0  0
   13.5921   -2.1041    3.2642 H   0  0  0  0  0  0  0  0  0  0  0  0
   15.3385   -2.3525    3.1146 H   0  0  0  0  0  0  0  0  0  0  0  0
   11.4451   -5.5970    0.4734 C   0  0  0  0  0  0  0  0  0  0  0  0
   12.3392   -5.8259    1.0363 H   0  0  0  0  0  0  0  0  0  0  0  0
   11.0155   -6.4742   -0.5227 C   0  0  0  0  0  0  0  0  0  0  0  0
   11.5552   -7.3956   -0.7542 H   0  0  0  0  0  0  0  0  0  0  0  0
    9.8580   -6.1166   -1.2052 C   0  0  0  0  0  0  0  0  0  0  0  0
    9.4588   -6.7433   -1.9899 H   0  0  0  0  0  0  0  0  0  0  0  0
  1  2  1  0
  2  3  2  0
  3  4  1  0
  4  5  1  0
  5  6  1  0
  5  7  1  0
  5  8  1  0
  8  9  1  0
  9 10  1  0
 10 11  2  0
 10 12  1  0
 12 13  1  6
 13 14  2  0
 14 15  1  0
 14 16  1  0
 16 17  1  0
 16 18  2  0
 18 19  1  0
 18 20  1  0
 20 21  1  0
 20 22  2  0
 22 23  1  0
 12 24  1  0
 24 25  2  0
 25 26  1  0
 25 27  1  0
 27 28  1  0
 27 29  2  0
 29 30  1  0
 29 31  1  0
 31 32  1  0
 32 33  2  0
 33 34  1  0
 33 35  1  0
 35 36  2  0
 36 37  1  0
 36 38  1  0
 38 39  1  0
 38 40  2  0
 40 41  1  0
 31 42  2  0
 42 43  1  0
 12 44  1  0
 44 45  1  0
 44 46  2  0
 46 47  1  0
 47 48  1  0
 47 49  1  0
  4 50  2  0
 50 51  1  0
 50 52  1  0
 52 53  1  0
 52 54  2  0
 54 55  1  0
 54  2  1  0
 46  9  1  0
 22 13  1  0
 42 24  1  0
 40 32  1  0
M  CHG  1  44   1
M  END
>  <score>  (331) 
5.46758

$$$$

     RDKit          3D

 61 65  0  0  0  0  0  0  0  0999 V2000
   15.5557    5.3558   -1.3921 H   0  0  0  0  0  0  0  0  0  0  0  0
   15.5865    4.2886   -1.6039 C   0  0  0  0  0  0  0  0  0  0  0  0
   15.8212    3.8713   -2.8582 N   0  0  0  0  0  0  0  0  0  0  0  0
   15.8766    2.5443   -3.0930 C   0  0  0  0  0  0  0  0  0  0  0  0
   16.0681    2.2028   -4.1047 H   0  0  0  0  0  0  0  0  0  0  0  0
   15.6949    1.5696   -2.0981 C   0  0  0  0  0  0  0  0  0  0  0  0
   15.7747    0.1224   -2.4085 C   0  0  0  0  0  0  0  0  0  0  0  0
   16.3339   -0.3167   -3.6126 C   0  0  0  0  0  0  0  0  0  0  0  0
   16.7125    0.4285   -4.3039 H   0  0  0  0  0  0  0  0  0  0  0  0
   16.4257   -1.6839   -3.9091 C   0  0  0  0  0  0  0  0  0  0  0  0
   16.8636   -2.0041   -4.8477 H   0  0  0  0  0  0  0  0  0  0  0  0
   15.9484   -2.6368   -3.0017 C   0  0  0  0  0  0  0  0  0  0  0  0
   16.0022   -3.6960   -3.2425 H   0  0  0  0  0  0  0  0  0  0  0  0
   15.3925   -2.2326   -1.7801 C   0  0  0  0  0  0  0  0  0  0  0  0
   14.8388   -3.2423   -0.7814 C   0  0  2  0  0  0  0  0  0  0  0  0
   15.1885   -4.7049   -1.0782 C   0  0  0  0  0  0  0  0  0  0  0  0
   16.4026   -5.2306   -0.6104 C   0  0  0  0  0  0  0  0  0  0  0  0
   17.0749   -4.5788   -0.0598 H   0  0  0  0  0  0  0  0  0  0  0  0
   16.7379   -6.5761   -0.8041 C   0  0  0  0  0  0  0  0  0  0  0  0
   17.6746   -6.9613   -0.4116 H   0  0  0  0  0  0  0  0  0  0  0  0
   15.8576   -7.4252   -1.4799 C   0  0  0  0  0  0  0  0  0  0  0  0
   16.1082   -8.4739   -1.6148 H   0  0  0  0  0  0  0  0  0  0  0  0
   14.6461   -6.9235   -1.9655 C   0  0  0  0  0  0  0  0  0  0  0  0
   13.9631   -7.5891   -2.4878 H   0  0  0  0  0  0  0  0  0  0  0  0
   14.3137   -5.5712   -1.7686 C   0  0  0  0  0  0  0  0  0  0  0  0
   13.3601   -5.2010   -2.1329 H   0  0  0  0  0  0  0  0  0  0  0  0
   13.3287   -3.0163   -0.6282 C   0  0  0  0  0  0  0  0  0  0  0  0
   12.4842   -3.1268   -1.5170 O   0  0  0  0  0  0  0  0  0  0  0  0
   13.0640   -2.6330    0.6702 N   0  0  0  0  0  0  0  0  0  0  0  0
   11.7907   -2.2240    1.1653 O   0  0  0  0  0  0  0  0  0  0  0  0
   11.0660   -3.3352    1.7075 C   0  0  0  0  0  0  0  0  0  0  0  0
   11.6121   -3.7500    2.5642 H   0  0  0  0  0  0  0  0  0  0  0  0
   10.9532   -4.1241    0.9530 H   0  0  0  0  0  0  0  0  0  0  0  0
    9.6859   -2.8659    2.1666 C   0  0  0  0  0  0  0  0  0  0  0  0
    9.8376   -2.0667    2.9017 H   0  0  0  0  0  0  0  0  0  0  0  0
    8.8646   -2.3093    0.9825 C   0  0  0  0  0  0  0  0  0  0  0  0
    7.9957   -1.7764    1.3797 H   0  0  0  0  0  0  0  0  0  0  0  0
    9.4810   -1.5973    0.4209 H   0  0  0  0  0  0  0  0  0  0  0  0
    8.3685   -3.4068    0.0346 C   0  0  0  0  0  0  0  0  0  0  0  0
    9.2211   -3.8675   -0.4770 H   0  0  0  0  0  0  0  0  0  0  0  0
    7.7172   -2.9678   -0.7286 H   0  0  0  0  0  0  0  0  0  0  0  0
    7.6308   -4.4163    0.8108 N   0  0  0  0  0  0  0  0  0  0  0  0
    6.8066   -4.0026    1.2444 H   0  0  0  0  0  0  0  0  0  0  0  0
    8.4506   -5.0803    1.8361 C   0  0  0  0  0  0  0  0  0  0  0  0
    9.3080   -5.5814    1.3719 H   0  0  0  0  0  0  0  0  0  0  0  0
    7.8559   -5.8383    2.3567 H   0  0  0  0  0  0  0  0  0  0  0  0
    8.9398   -4.0318    2.8435 C   0  0  0  0  0  0  0  0  0  0  0  0
    8.0735   -3.6296    3.3786 H   0  0  0  0  0  0  0  0  0  0  0  0
    9.6040   -4.5122    3.5721 H   0  0  0  0  0  0  0  0  0  0  0  0
   14.2686   -2.5934    1.3583 C   0  0  0  0  0  0  0  0  0  0  0  0
   14.4305   -2.3038    2.6872 N   0  0  0  0  0  0  0  0  0  0  0  0
   13.6149   -2.1097    3.2654 H   0  0  0  0  0  0  0  0  0  0  0  0
   15.3622   -2.3392    3.1029 H   0  0  0  0  0  0  0  0  0  0  0  0
   15.2671   -2.9036    0.5947 N   0  0  0  0  0  4  0  0  0  0  0  0
   16.2383   -2.9618    0.9124 H   0  0  0  0  0  0  0  0  0  0  0  0
   15.3106   -0.8487   -1.5046 C   0  0  0  0  0  0  0  0  0  0  0  0
   14.8712   -0.5095   -0.5717 H   0  0  0  0  0  0  0  0  0  0  0  0
   15.4465    2.0133   -0.8004 C   0  0  0  0  0  0  0  0  0  0  0  0
   15.3321    1.2770   -0.0120 H   0  0  0  0  0  0  0  0  0  0  0  0
   15.3833    3.3880   -0.5560 C   0  0  0  0  0  0  0  0  0  0  0  0
   15.1783    3.7737    0.4356 H   0  0  0  0  0  0  0  0  0  0  0  0
  1  2  1  0
  2  3  2  0
  3  4  1  0
  4  5  1  0
  4  6  2  0
  6  7  1  0
  7  8  2  0
  8  9  1  0
  8 10  1  0
 10 11  1  0
 10 12  2  0
 12 13  1  0
 12 14  1  0
 15 14  1  6
 15 16  1  0
 16 17  2  0
 17 18  1  0
 17 19  1  0
 19 20  1  0
 19 21  2  0
 21 22  1  0
 21 23  1  0
 23 24  1  0
 23 25  2  0
 25 26  1  0
 15 27  1  0
 27 28  2  0
 27 29  1  0
 29 30  1  0
 30 31  1  0
 31 32  1  0
 31 33  1  0
 31 34  1  0
 34 35  1  0
 34 36  1  0
 36 37  1  0
 36 38  1  0
 36 39  1  0
 39 40  1  0
 39 41  1  0
 39 42  1  0
 42 43  1  0
 42 44  1  0
 44 45  1  0
 44 46  1  0
 44 47  1  0
 47 48  1  0
 47 49  1  0
 29 50  1  0
 50 51  1  0
 51 52  1  0
 51 53  1  0
 50 54  2  0
 54 55  1  0
 14 56  2  0
 56 57  1  0
  6 58  1  0
 58 59  1  0
 58 60  2  0
 60 61  1  0
 60  2  1  0
 56  7  1  0
 54 15  1  0
 25 16  1  0
 47 34  1  0
M  CHG  1  54   1
M  END
>  <score>  (332) 
5.46749

$$$$

     RDKit          3D

 50 54  0  0  0  0  0  0  0  0999 V2000
   15.5698    5.3721   -1.3875 H   0  0  0  0  0  0  0  0  0  0  0  0
   15.5831    4.3032   -1.5951 C   0  0  0  0  0  0  0  0  0  0  0  0
   15.8192    3.8806   -2.8468 N   0  0  0  0  0  0  0  0  0  0  0  0
   15.8633    2.5531   -3.0879 C   0  0  0  0  0  0  0  0  0  0  0  0
   16.0464    2.2239   -4.1059 H   0  0  0  0  0  0  0  0  0  0  0  0
   15.6858    1.5717   -2.0957 C   0  0  0  0  0  0  0  0  0  0  0  0
   15.7708    0.1188   -2.4108 C   0  0  0  0  0  0  0  0  0  0  0  0
   16.3490   -0.3219   -3.6106 C   0  0  0  0  0  0  0  0  0  0  0  0
   16.7246    0.4086   -4.3208 H   0  0  0  0  0  0  0  0  0  0  0  0
   16.4316   -1.6903   -3.9076 C   0  0  0  0  0  0  0  0  0  0  0  0
   16.8646   -2.0080   -4.8518 H   0  0  0  0  0  0  0  0  0  0  0  0
   15.9440   -2.6452   -3.0038 C   0  0  0  0  0  0  0  0  0  0  0  0
   16.0038   -3.7008   -3.2573 H   0  0  0  0  0  0  0  0  0  0  0  0
   15.3787   -2.2430   -1.7808 C   0  0  0  0  0  0  0  0  0  0  0  0
   14.8016   -3.2441   -0.7811 C   0  0  2  0  0  0  0  0  0  0  0  0
   15.1660   -4.7120   -1.0697 C   0  0  0  0  0  0  0  0  0  0  0  0
   16.3885   -5.2353   -0.6105 C   0  0  0  0  0  0  0  0  0  0  0  0
   17.0660   -4.5864   -0.0635 H   0  0  0  0  0  0  0  0  0  0  0  0
   16.7282   -6.5805   -0.8029 C   0  0  0  0  0  0  0  0  0  0  0  0
   17.6716   -6.9555   -0.4170 H   0  0  0  0  0  0  0  0  0  0  0  0
   15.8534   -7.4395   -1.4727 C   0  0  0  0  0  0  0  0  0  0  0  0
   16.1208   -8.4854   -1.6114 H   0  0  0  0  0  0  0  0  0  0  0  0
   14.6428   -6.9374   -1.9616 C   0  0  0  0  0  0  0  0  0  0  0  0
   13.9727   -7.6117   -2.4878 H   0  0  0  0  0  0  0  0  0  0  0  0
   14.3013   -5.5863   -1.7657 C   0  0  0  0  0  0  0  0  0  0  0  0
   13.3518   -5.2321   -2.1562 H   0  0  0  0  0  0  0  0  0  0  0  0
   13.2891   -2.9926   -0.6083 C   0  0  0  0  0  0  0  0  0  0  0  0
   12.4347   -3.0915   -1.4876 O   0  0  0  0  0  0  0  0  0  0  0  0
   13.0021   -2.6722    0.7084 N   0  0  0  0  0  0  0  0  0  0  0  0
   11.7246   -2.4987    1.2713 C   0  0  0  0  0  0  0  0  0  0  0  0
   11.2959   -3.1896    2.4205 C   0  0  0  0  0  0  0  0  0  0  0  0
   11.9734   -3.8996    2.8771 H   0  0  0  0  0  0  0  0  0  0  0  0
   10.0541   -3.0441    2.9216 N   0  0  0  0  0  0  0  0  0  0  0  0
    9.1946   -2.1954    2.3512 N   0  0  0  0  0  0  0  0  0  0  0  0
    9.5672   -1.4783    1.2779 C   0  0  0  0  0  0  0  0  0  0  0  0
    8.8466   -0.7938    0.8539 H   0  0  0  0  0  0  0  0  0  0  0  0
   10.8248   -1.6134    0.6895 C   0  0  0  0  0  0  0  0  0  0  0  0
   11.0976   -1.0212   -0.1790 H   0  0  0  0  0  0  0  0  0  0  0  0
   14.2096   -2.6464    1.3732 C   0  0  0  0  0  0  0  0  0  0  0  0
   14.4000   -2.3513    2.6941 N   0  0  0  0  0  0  0  0  0  0  0  0
   15.3381   -2.3832    3.0947 H   0  0  0  0  0  0  0  0  0  0  0  0
   13.6071   -2.0338    3.2495 H   0  0  0  0  0  0  0  0  0  0  0  0
   15.2087   -2.9079    0.5978 N   0  0  0  0  0  4  0  0  0  0  0  0
   16.1793   -2.9136    0.9063 H   0  0  0  0  0  0  0  0  0  0  0  0
   15.2963   -0.8583   -1.5153 C   0  0  0  0  0  0  0  0  0  0  0  0
   14.8704   -0.5255   -0.5757 H   0  0  0  0  0  0  0  0  0  0  0  0
   15.4362    2.0255   -0.7968 C   0  0  0  0  0  0  0  0  0  0  0  0
   15.2982    1.3080    0.0032 H   0  0  0  0  0  0  0  0  0  0  0  0
   15.3720    3.4014   -0.5514 C   0  0  0  0  0  0  0  0  0  0  0  0
   15.1682    3.7872    0.4405 H   0  0  0  0  0  0  0  0  0  0  0  0
  1  2  1  0
  2  3  2  0
  3  4  1  0
  4  5  1  0
  4  6  2  0
  6  7  1  0
  7  8  2  0
  8  9  1  0
  8 10  1  0
 10 11  1  0
 10 12  2  0
 12 13  1  0
 12 14  1  0
 15 14  1  6
 15 16  1  0
 16 17  2  0
 17 18  1  0
 17 19  1  0
 19 20  1  0
 19 21  2  0
 21 22  1  0
 21 23  1  0
 23 24  1  0
 23 25  2  0
 25 26  1  0
 15 27  1  0
 27 28  2  0
 27 29  1  0
 29 30  1  0
 30 31  2  0
 31 32  1  0
 31 33  1  0
 33 34  2  0
 34 35  1  0
 35 36  1  0
 35 37  2  0
 37 38  1  0
 29 39  1  0
 39 40  1  0
 40 41  1  0
 40 42  1  0
 39 43  2  0
 43 44  1  0
 14 45  2  0
 45 46  1  0
  6 47  1  0
 47 48  1  0
 47 49  2  0
 49 50  1  0
 49  2  1  0
 45  7  1  0
 43 15  1  0
 25 16  1  0
 37 30  1  0
M  CHG  1  43   1
M  END
>  <score>  (333) 
5.46624

$$$$

     RDKit          3D

 52 56  0  0  0  0  0  0  0  0999 V2000
   15.5586    5.3606   -1.3905 H   0  0  0  0  0  0  0  0  0  0  0  0
   15.5860    4.2922   -1.6027 C   0  0  0  0  0  0  0  0  0  0  0  0
   15.8190    3.8725   -2.8575 N   0  0  0  0  0  0  0  0  0  0  0  0
   15.8750    2.5451   -3.0916 C   0  0  0  0  0  0  0  0  0  0  0  0
   16.0648    2.2043   -4.1034 H   0  0  0  0  0  0  0  0  0  0  0  0
   15.6936    1.5689   -2.0990 C   0  0  0  0  0  0  0  0  0  0  0  0
   15.7719    0.1218   -2.4083 C   0  0  0  0  0  0  0  0  0  0  0  0
   16.3341   -0.3182   -3.6114 C   0  0  0  0  0  0  0  0  0  0  0  0
   16.7129    0.4269   -4.3023 H   0  0  0  0  0  0  0  0  0  0  0  0
   16.4272   -1.6861   -3.9026 C   0  0  0  0  0  0  0  0  0  0  0  0
   16.8620   -2.0046   -4.8443 H   0  0  0  0  0  0  0  0  0  0  0  0
   15.9437   -2.6385   -2.9963 C   0  0  0  0  0  0  0  0  0  0  0  0
   15.9982   -3.6977   -3.2377 H   0  0  0  0  0  0  0  0  0  0  0  0
   15.3783   -2.2309   -1.7765 C   0  0  0  0  0  0  0  0  0  0  0  0
   14.8159   -3.2392   -0.7711 C   0  0  2  0  0  0  0  0  0  0  0  0
   15.1778   -4.7027   -1.0720 C   0  0  0  0  0  0  0  0  0  0  0  0
   16.3944   -5.2266   -0.6067 C   0  0  0  0  0  0  0  0  0  0  0  0
   17.0690   -4.5746   -0.0581 H   0  0  0  0  0  0  0  0  0  0  0  0
   16.7339   -6.5702   -0.8061 C   0  0  0  0  0  0  0  0  0  0  0  0
   17.6694   -6.9572   -0.4140 H   0  0  0  0  0  0  0  0  0  0  0  0
   15.8566   -7.4238   -1.4786 C   0  0  0  0  0  0  0  0  0  0  0  0
   16.1092   -8.4723   -1.6135 H   0  0  0  0  0  0  0  0  0  0  0  0
   14.6449   -6.9222   -1.9636 C   0  0  0  0  0  0  0  0  0  0  0  0
   13.9670   -7.5907   -2.4876 H   0  0  0  0  0  0  0  0  0  0  0  0
   14.3074   -5.5714   -1.7656 C   0  0  0  0  0  0  0  0  0  0  0  0
   13.3543   -5.2040   -2.1347 H   0  0  0  0  0  0  0  0  0  0  0  0
   13.3033   -3.0233   -0.5976 C   0  0  0  0  0  0  0  0  0  0  0  0
   12.4700   -3.1255   -1.4972 O   0  0  0  0  0  0  0  0  0  0  0  0
   13.0036   -2.7149    0.7192 N   0  0  0  0  0  0  0  0  0  0  0  0
   11.7097   -2.6070    1.2749 C   0  0  0  0  0  0  0  0  0  0  0  0
   10.5004   -2.0397    0.6908 C   0  0  0  0  0  0  0  0  0  0  0  0
   10.4657   -1.5432   -0.2763 H   0  0  0  0  0  0  0  0  0  0  0  0
    9.4758   -2.1689    1.5027 N   0  0  0  0  0  0  0  0  0  0  0  0
    9.9699   -2.8090    2.6010 N   0  0  0  0  0  0  0  0  0  0  0  0
    9.1191   -3.2562    3.6967 C   0  0  0  0  0  0  0  0  0  0  0  0
    9.6609   -3.1678    4.6411 H   0  0  0  0  0  0  0  0  0  0  0  0
    8.2226   -2.6361    3.7397 H   0  0  0  0  0  0  0  0  0  0  0  0
    8.8247   -4.2974    3.5380 H   0  0  0  0  0  0  0  0  0  0  0  0
   11.3293   -3.0643    2.4934 C   0  0  0  0  0  0  0  0  0  0  0  0
   11.9776   -3.5488    3.2153 H   0  0  0  0  0  0  0  0  0  0  0  0
   14.2206   -2.6730    1.3877 C   0  0  0  0  0  0  0  0  0  0  0  0
   14.4208   -2.3760    2.7122 N   0  0  0  0  0  0  0  0  0  0  0  0
   15.3671   -2.3620    3.0928 H   0  0  0  0  0  0  0  0  0  0  0  0
   13.6431   -1.9945    3.2503 H   0  0  0  0  0  0  0  0  0  0  0  0
   15.2325   -2.9165    0.6111 N   0  0  0  0  0  4  0  0  0  0  0  0
   16.2052   -2.9353    0.9252 H   0  0  0  0  0  0  0  0  0  0  0  0
   15.3028   -0.8475   -1.5053 C   0  0  0  0  0  0  0  0  0  0  0  0
   14.8676   -0.5077   -0.5704 H   0  0  0  0  0  0  0  0  0  0  0  0
   15.4452    2.0136   -0.8010 C   0  0  0  0  0  0  0  0  0  0  0  0
   15.3268    1.2773   -0.0127 H   0  0  0  0  0  0  0  0  0  0  0  0
   15.3825    3.3905   -0.5545 C   0  0  0  0  0  0  0  0  0  0  0  0
   15.1750    3.7793    0.4366 H   0  0  0  0  0  0  0  0  0  0  0  0
  1  2  1  0
  2  3  2  0
  3  4  1  0
  4  5  1  0
  4  6  2  0
  6  7  1  0
  7  8  2  0
  8  9  1  0
  8 10  1  0
 10 11  1  0
 10 12  2  0
 12 13  1  0
 12 14  1  0
 15 14  1  6
 15 16  1  0
 16 17  2  0
 17 18  1  0
 17 19  1  0
 19 20  1  0
 19 21  2  0
 21 22  1  0
 21 23  1  0
 23 24  1  0
 23 25  2  0
 25 26  1  0
 15 27  1  0
 27 28  2  0
 27 29  1  0
 29 30  1  0
 30 31  1  0
 31 32  1  0
 31 33  2  0
 33 34  1  0
 34 35  1  0
 35 36  1  0
 35 37  1  0
 35 38  1  0
 34 39  1  0
 39 40  1  0
 29 41  1  0
 41 42  1  0
 42 43  1  0
 42 44  1  0
 41 45  2  0
 45 46  1  0
 14 47  2  0
 47 48  1  0
  6 49  1  0
 49 50  1  0
 49 51  2  0
 51 52  1  0
 51  2  1  0
 47  7  1  0
 45 15  1  0
 25 16  1  0
 39 30  2  0
M  CHG  1  45   1
M  END
>  <score>  (334) 
5.46471

$$$$

     RDKit          3D

 55 59  0  0  0  0  0  0  0  0999 V2000
   15.5282    5.3270   -1.4129 H   0  0  0  0  0  0  0  0  0  0  0  0
   15.5891    4.2608   -1.6104 C   0  0  0  0  0  0  0  0  0  0  0  0
   15.8348    3.8492   -2.8632 N   0  0  0  0  0  0  0  0  0  0  0  0
   15.9101    2.5259   -3.0969 C   0  0  0  0  0  0  0  0  0  0  0  0
   16.1051    2.1977   -4.1130 H   0  0  0  0  0  0  0  0  0  0  0  0
   15.7386    1.5537   -2.0971 C   0  0  0  0  0  0  0  0  0  0  0  0
   15.8251    0.1152   -2.4090 C   0  0  0  0  0  0  0  0  0  0  0  0
   16.3489   -0.3191   -3.6332 C   0  0  0  0  0  0  0  0  0  0  0  0
   16.6936    0.4124   -4.3585 H   0  0  0  0  0  0  0  0  0  0  0  0
   16.4358   -1.6842   -3.9230 C   0  0  0  0  0  0  0  0  0  0  0  0
   16.8431   -1.9974   -4.8796 H   0  0  0  0  0  0  0  0  0  0  0  0
   16.0004   -2.6331   -2.9863 C   0  0  0  0  0  0  0  0  0  0  0  0
   16.0722   -3.6892   -3.2289 H   0  0  0  0  0  0  0  0  0  0  0  0
   15.4718   -2.2300   -1.7457 C   0  0  0  0  0  0  0  0  0  0  0  0
   14.9365   -3.2222   -0.7117 C   0  0  2  0  0  0  0  0  0  0  0  0
   15.2731   -4.6781   -1.0228 C   0  0  0  0  0  0  0  0  0  0  0  0
   16.4877   -5.2390   -0.5899 C   0  0  0  0  0  0  0  0  0  0  0  0
   17.2059   -4.6214   -0.0578 H   0  0  0  0  0  0  0  0  0  0  0  0
   16.7766   -6.5899   -0.8122 C   0  0  0  0  0  0  0  0  0  0  0  0
   17.7093   -7.0082   -0.4450 H   0  0  0  0  0  0  0  0  0  0  0  0
   15.8615   -7.3984   -1.4922 C   0  0  0  0  0  0  0  0  0  0  0  0
   16.0810   -8.4499   -1.6541 H   0  0  0  0  0  0  0  0  0  0  0  0
   14.6631   -6.8497   -1.9590 C   0  0  0  0  0  0  0  0  0  0  0  0
   13.9534   -7.4771   -2.4904 H   0  0  0  0  0  0  0  0  0  0  0  0
   14.3728   -5.4980   -1.7293 C   0  0  0  0  0  0  0  0  0  0  0  0
   13.4332   -5.0913   -2.0917 H   0  0  0  0  0  0  0  0  0  0  0  0
   13.4264   -2.9826   -0.5026 C   0  0  0  0  0  0  0  0  0  0  0  0
   12.5501   -3.1135   -1.3578 O   0  0  0  0  0  0  0  0  0  0  0  0
   13.1834   -2.5309    0.7955 N   0  0  0  0  0  0  0  0  0  0  0  0
   11.9086   -2.0691    1.3524 N   0  0  0  0  0  0  0  0  0  0  0  0
   11.8241   -1.0937    1.6481 H   0  0  0  0  0  0  0  0  0  0  0  0
   10.6962   -2.7383    1.1990 C   0  0  0  0  0  0  0  0  0  0  0  0
   10.7252   -3.9555    1.0544 O   0  0  0  0  0  0  0  0  0  0  0  0
    9.4338   -1.9931    0.8755 C   0  0  0  0  0  0  0  0  0  0  0  0
    9.3253   -0.5897    0.9403 C   0  0  0  0  0  0  0  0  0  0  0  0
   10.1079    0.0316    1.3567 H   0  0  0  0  0  0  0  0  0  0  0  0
    8.2198    0.0806    0.4162 C   0  0  0  0  0  0  0  0  0  0  0  0
    8.2347    1.1692    0.4480 H   0  0  0  0  0  0  0  0  0  0  0  0
    7.1781   -0.5654   -0.1301 N   0  0  0  0  0  0  0  0  0  0  0  0
    7.2202   -1.9082   -0.1437 C   0  0  0  0  0  0  0  0  0  0  0  0
    6.3631   -2.4531   -0.5205 H   0  0  0  0  0  0  0  0  0  0  0  0
    8.3080   -2.6476    0.3310 C   0  0  0  0  0  0  0  0  0  0  0  0
    8.2794   -3.7242    0.1890 H   0  0  0  0  0  0  0  0  0  0  0  0
   14.4187   -2.5115    1.4241 C   0  0  0  0  0  0  0  0  0  0  0  0
   14.6244   -2.1704    2.7303 N   0  0  0  0  0  0  0  0  0  0  0  0
   13.8122   -2.1327    3.3428 H   0  0  0  0  0  0  0  0  0  0  0  0
   15.5257   -2.4123    3.1284 H   0  0  0  0  0  0  0  0  0  0  0  0
   15.3919   -2.8816    0.6527 N   0  0  0  0  0  4  0  0  0  0  0  0
   16.3525   -3.0109    0.9724 H   0  0  0  0  0  0  0  0  0  0  0  0
   15.3839   -0.8490   -1.4874 C   0  0  0  0  0  0  0  0  0  0  0  0
   14.9559   -0.5141   -0.5481 H   0  0  0  0  0  0  0  0  0  0  0  0
   15.4914    1.9933   -0.7945 C   0  0  0  0  0  0  0  0  0  0  0  0
   15.3804    1.2760    0.0135 H   0  0  0  0  0  0  0  0  0  0  0  0
   15.4129    3.3634   -0.5548 C   0  0  0  0  0  0  0  0  0  0  0  0
   15.2221    3.7377    0.4435 H   0  0  0  0  0  0  0  0  0  0  0  0
  1  2  1  0
  2  3  2  0
  3  4  1  0
  4  5  1  0
  4  6  2  0
  6  7  1  0
  7  8  2  0
  8  9  1  0
  8 10  1  0
 10 11  1  0
 10 12  2  0
 12 13  1  0
 12 14  1  0
 15 14  1  6
 15 16  1  0
 16 17  2  0
 17 18  1  0
 17 19  1  0
 19 20  1  0
 19 21  2  0
 21 22  1  0
 21 23  1  0
 23 24  1  0
 23 25  2  0
 25 26  1  0
 15 27  1  0
 27 28  2  0
 27 29  1  0
 29 30  1  0
 30 31  1  0
 30 32  1  0
 32 33  2  0
 32 34  1  0
 34 35  2  0
 35 36  1  0
 35 37  1  0
 37 38  1  0
 37 39  2  0
 39 40  1  0
 40 41  1  0
 40 42  2  0
 42 43  1  0
 29 44  1  0
 44 45  1  0
 45 46  1  0
 45 47  1  0
 44 48  2  0
 48 49  1  0
 14 50  2  0
 50 51  1  0
  6 52  1  0
 52 53  1  0
 52 54  2  0
 54 55  1  0
 54  2  1  0
 50  7  1  0
 48 15  1  0
 25 16  1  0
 42 34  1  0
M  CHG  1  48   1
M  END
>  <score>  (335) 
5.46457

$$$$

     RDKit          3D

 56 60  0  0  0  0  0  0  0  0999 V2000
   15.5292    5.3264   -1.4170 H   0  0  0  0  0  0  0  0  0  0  0  0
   15.5887    4.2603   -1.6128 C   0  0  0  0  0  0  0  0  0  0  0  0
   15.8389    3.8476   -2.8643 N   0  0  0  0  0  0  0  0  0  0  0  0
   15.9030    2.5241   -3.0974 C   0  0  0  0  0  0  0  0  0  0  0  0
   16.0993    2.1983   -4.1147 H   0  0  0  0  0  0  0  0  0  0  0  0
   15.7161    1.5561   -2.0949 C   0  0  0  0  0  0  0  0  0  0  0  0
   15.7864    0.1193   -2.3982 C   0  0  0  0  0  0  0  0  0  0  0  0
   16.3329   -0.3201   -3.6095 C   0  0  0  0  0  0  0  0  0  0  0  0
   16.7044    0.4075   -4.3244 H   0  0  0  0  0  0  0  0  0  0  0  0
   16.4155   -1.6837   -3.8969 C   0  0  0  0  0  0  0  0  0  0  0  0
   16.8464   -2.0040   -4.8395 H   0  0  0  0  0  0  0  0  0  0  0  0
   15.9442   -2.6249   -2.9753 C   0  0  0  0  0  0  0  0  0  0  0  0
   15.9993   -3.6824   -3.2127 H   0  0  0  0  0  0  0  0  0  0  0  0
   15.3953   -2.2162   -1.7505 C   0  0  0  0  0  0  0  0  0  0  0  0
   14.8345   -3.2149   -0.7485 C   0  0  2  0  0  0  0  0  0  0  0  0
   15.1926   -4.6706   -1.0469 C   0  0  0  0  0  0  0  0  0  0  0  0
   16.4124   -5.2014   -0.5938 C   0  0  0  0  0  0  0  0  0  0  0  0
   17.1053   -4.5630   -0.0530 H   0  0  0  0  0  0  0  0  0  0  0  0
   16.7381   -6.5452   -0.8012 C   0  0  0  0  0  0  0  0  0  0  0  0
   17.6775   -6.9343   -0.4188 H   0  0  0  0  0  0  0  0  0  0  0  0
   15.8508   -7.3821   -1.4840 C   0  0  0  0  0  0  0  0  0  0  0  0
   16.0995   -8.4287   -1.6367 H   0  0  0  0  0  0  0  0  0  0  0  0
   14.6408   -6.8671   -1.9627 C   0  0  0  0  0  0  0  0  0  0  0  0
   13.9501   -7.5159   -2.4937 H   0  0  0  0  0  0  0  0  0  0  0  0
   14.3140   -5.5204   -1.7468 C   0  0  0  0  0  0  0  0  0  0  0  0
   13.3643   -5.1419   -2.1141 H   0  0  0  0  0  0  0  0  0  0  0  0
   13.3206   -2.9835   -0.5898 C   0  0  0  0  0  0  0  0  0  0  0  0
   12.4730   -3.1529   -1.4662 O   0  0  0  0  0  0  0  0  0  0  0  0
   13.0536   -2.5994    0.7087 N   0  0  0  0  0  0  0  0  0  0  0  0
   11.7756   -2.4810    1.2583 C   0  0  0  0  0  0  0  0  0  0  0  0
   10.8401   -1.6160    0.6846 C   0  0  0  0  0  0  0  0  0  0  0  0
   11.1552   -0.9806   -0.1370 H   0  0  0  0  0  0  0  0  0  0  0  0
    9.5327   -1.5419    1.1921 C   0  0  0  0  0  0  0  0  0  0  0  0
    8.8145   -0.8517    0.7603 H   0  0  0  0  0  0  0  0  0  0  0  0
    9.1430   -2.3629    2.2606 C   0  0  0  0  0  0  0  0  0  0  0  0
    7.8408   -2.3344    2.6901 O   0  0  0  0  0  0  0  0  0  0  0  0
    7.4170   -3.4852    3.4402 C   0  0  0  0  0  0  0  0  0  0  0  0
    6.1025   -3.3323    3.7591 F   0  0  0  0  0  0  0  0  0  0  0  0
    8.1304   -3.5940    4.5935 F   0  0  0  0  0  0  0  0  0  0  0  0
    7.5654   -4.6039    2.6726 F   0  0  0  0  0  0  0  0  0  0  0  0
   10.1066   -3.1932    2.8552 C   0  0  0  0  0  0  0  0  0  0  0  0
    9.8439   -3.8095    3.7055 H   0  0  0  0  0  0  0  0  0  0  0  0
   11.4174   -3.2339    2.3730 C   0  0  0  0  0  0  0  0  0  0  0  0
   12.1743   -3.8509    2.8462 H   0  0  0  0  0  0  0  0  0  0  0  0
   14.2475   -2.6379    1.3993 C   0  0  0  0  0  0  0  0  0  0  0  0
   14.4203   -2.4390    2.7397 N   0  0  0  0  0  0  0  0  0  0  0  0
   13.6397   -2.0458    3.2639 H   0  0  0  0  0  0  0  0  0  0  0  0
   15.3713   -2.2760    3.0705 H   0  0  0  0  0  0  0  0  0  0  0  0
   15.2544   -2.8907    0.6293 N   0  0  0  0  0  4  0  0  0  0  0  0
   16.2099   -3.0197    0.9689 H   0  0  0  0  0  0  0  0  0  0  0  0
   15.3146   -0.8373   -1.4837 C   0  0  0  0  0  0  0  0  0  0  0  0
   14.8696   -0.5027   -0.5505 H   0  0  0  0  0  0  0  0  0  0  0  0
   15.4741    1.9966   -0.7931 C   0  0  0  0  0  0  0  0  0  0  0  0
   15.3640    1.2810    0.0164 H   0  0  0  0  0  0  0  0  0  0  0  0
   15.4039    3.3658   -0.5562 C   0  0  0  0  0  0  0  0  0  0  0  0
   15.2125    3.7385    0.4422 H   0  0  0  0  0  0  0  0  0  0  0  0
  1  2  1  0
  2  3  2  0
  3  4  1  0
  4  5  1  0
  4  6  2  0
  6  7  1  0
  7  8  2  0
  8  9  1  0
  8 10  1  0
 10 11  1  0
 10 12  2  0
 12 13  1  0
 12 14  1  0
 15 14  1  6
 15 16  1  0
 16 17  2  0
 17 18  1  0
 17 19  1  0
 19 20  1  0
 19 21  2  0
 21 22  1  0
 21 23  1  0
 23 24  1  0
 23 25  2  0
 25 26  1  0
 15 27  1  0
 27 28  2  0
 27 29  1  0
 29 30  1  0
 30 31  2  0
 31 32  1  0
 31 33  1  0
 33 34  1  0
 33 35  2  0
 35 36  1  0
 36 37  1  0
 37 38  1  0
 37 39  1  0
 37 40  1  0
 35 41  1  0
 41 42  1  0
 41 43  2  0
 43 44  1  0
 29 45  1  0
 45 46  1  0
 46 47  1  0
 46 48  1  0
 45 49  2  0
 49 50  1  0
 14 51  2  0
 51 52  1  0
  6 53  1  0
 53 54  1  0
 53 55  2  0
 55 56  1  0
 55  2  1  0
 51  7  1  0
 49 15  1  0
 25 16  1  0
 43 30  1  0
M  CHG  1  49   1
M  END
>  <score>  (336) 
5.46358

$$$$

     RDKit          3D

 54 58  0  0  0  0  0  0  0  0999 V2000
   15.5700    5.3719   -1.3876 H   0  0  0  0  0  0  0  0  0  0  0  0
   15.5844    4.3034   -1.5953 C   0  0  0  0  0  0  0  0  0  0  0  0
   15.8201    3.8814   -2.8477 N   0  0  0  0  0  0  0  0  0  0  0  0
   15.8634    2.5539   -3.0870 C   0  0  0  0  0  0  0  0  0  0  0  0
   16.0435    2.2277   -4.1058 H   0  0  0  0  0  0  0  0  0  0  0  0
   15.6850    1.5719   -2.0955 C   0  0  0  0  0  0  0  0  0  0  0  0
   15.7727    0.1193   -2.4107 C   0  0  0  0  0  0  0  0  0  0  0  0
   16.3475   -0.3218   -3.6126 C   0  0  0  0  0  0  0  0  0  0  0  0
   16.7276    0.4042   -4.3238 H   0  0  0  0  0  0  0  0  0  0  0  0
   16.4319   -1.6898   -3.9097 C   0  0  0  0  0  0  0  0  0  0  0  0
   16.8656   -2.0084   -4.8532 H   0  0  0  0  0  0  0  0  0  0  0  0
   15.9447   -2.6450   -3.0068 C   0  0  0  0  0  0  0  0  0  0  0  0
   16.0051   -3.7006   -3.2598 H   0  0  0  0  0  0  0  0  0  0  0  0
   15.3765   -2.2438   -1.7845 C   0  0  0  0  0  0  0  0  0  0  0  0
   14.8074   -3.2521   -0.7834 C   0  0  2  0  0  0  0  0  0  0  0  0
   15.1707   -4.7166   -1.0720 C   0  0  0  0  0  0  0  0  0  0  0  0
   16.3897   -5.2385   -0.6087 C   0  0  0  0  0  0  0  0  0  0  0  0
   17.0675   -4.5881   -0.0651 H   0  0  0  0  0  0  0  0  0  0  0  0
   16.7292   -6.5821   -0.8023 C   0  0  0  0  0  0  0  0  0  0  0  0
   17.6726   -6.9563   -0.4173 H   0  0  0  0  0  0  0  0  0  0  0  0
   15.8539   -7.4408   -1.4718 C   0  0  0  0  0  0  0  0  0  0  0  0
   16.1213   -8.4861   -1.6113 H   0  0  0  0  0  0  0  0  0  0  0  0
   14.6425   -6.9405   -1.9605 C   0  0  0  0  0  0  0  0  0  0  0  0
   13.9717   -7.6135   -2.4871 H   0  0  0  0  0  0  0  0  0  0  0  0
   14.3026   -5.5899   -1.7666 C   0  0  0  0  0  0  0  0  0  0  0  0
   13.3527   -5.2347   -2.1564 H   0  0  0  0  0  0  0  0  0  0  0  0
   13.2918   -3.0496   -0.5906 C   0  0  0  0  0  0  0  0  0  0  0  0
   12.4191   -3.1105   -1.4529 O   0  0  0  0  0  0  0  0  0  0  0  0
   13.0120   -2.7075    0.7131 N   0  0  0  0  0  0  0  0  0  0  0  0
   11.6916   -2.7171    1.3331 C   0  0  0  0  0  0  0  0  0  0  0  0
   10.9090   -2.4650    0.6042 H   0  0  0  0  0  0  0  0  0  0  0  0
   11.6345   -1.9580    2.1222 H   0  0  0  0  0  0  0  0  0  0  0  0
   11.4704   -4.0884    1.9050 C   0  0  0  0  0  0  0  0  0  0  0  0
   11.1951   -5.1808    1.0687 C   0  0  0  0  0  0  0  0  0  0  0  0
   11.1319   -5.0170    0.0046 H   0  0  0  0  0  0  0  0  0  0  0  0
   10.9722   -6.4246    1.5151 N   0  0  0  0  0  0  0  0  0  0  0  0
   11.0404   -6.6129    2.8384 C   0  0  0  0  0  0  0  0  0  0  0  0
   10.8889   -7.6108    3.2205 H   0  0  0  0  0  0  0  0  0  0  0  0
   11.2989   -5.5801    3.7434 C   0  0  0  0  0  0  0  0  0  0  0  0
   11.3363   -5.7803    4.8044 H   0  0  0  0  0  0  0  0  0  0  0  0
   11.5212   -4.2932    3.2833 C   0  0  0  0  0  0  0  0  0  0  0  0
   11.7243   -3.4887    3.9861 H   0  0  0  0  0  0  0  0  0  0  0  0
   14.2132   -2.6465    1.3703 C   0  0  0  0  0  0  0  0  0  0  0  0
   14.3907   -2.3577    2.6922 N   0  0  0  0  0  0  0  0  0  0  0  0
   15.3301   -2.3729    3.0884 H   0  0  0  0  0  0  0  0  0  0  0  0
   13.5889   -2.0788    3.2542 H   0  0  0  0  0  0  0  0  0  0  0  0
   15.2130   -2.8947    0.5926 N   0  0  0  0  0  4  0  0  0  0  0  0
   16.1814   -2.9066    0.9067 H   0  0  0  0  0  0  0  0  0  0  0  0
   15.2988   -0.8586   -1.5153 C   0  0  0  0  0  0  0  0  0  0  0  0
   14.8683   -0.5301   -0.5763 H   0  0  0  0  0  0  0  0  0  0  0  0
   15.4325    2.0266   -0.7970 C   0  0  0  0  0  0  0  0  0  0  0  0
   15.2956    1.3142    0.0068 H   0  0  0  0  0  0  0  0  0  0  0  0
   15.3711    3.4023   -0.5508 C   0  0  0  0  0  0  0  0  0  0  0  0
   15.1677    3.7862    0.4427 H   0  0  0  0  0  0  0  0  0  0  0  0
  1  2  1  0
  2  3  2  0
  3  4  1  0
  4  5  1  0
  4  6  2  0
  6  7  1  0
  7  8  2  0
  8  9  1  0
  8 10  1  0
 10 11  1  0
 10 12  2  0
 12 13  1  0
 12 14  1  0
 15 14  1  6
 15 16  1  0
 16 17  2  0
 17 18  1  0
 17 19  1  0
 19 20  1  0
 19 21  2  0
 21 22  1  0
 21 23  1  0
 23 24  1  0
 23 25  2  0
 25 26  1  0
 15 27  1  0
 27 28  2  0
 27 29  1  0
 29 30  1  0
 30 31  1  0
 30 32  1  0
 30 33  1  0
 33 34  2  0
 34 35  1  0
 34 36  1  0
 36 37  2  0
 37 38  1  0
 37 39  1  0
 39 40  1  0
 39 41  2  0
 41 42  1  0
 29 43  1  0
 43 44  1  0
 44 45  1  0
 44 46  1  0
 43 47  2  0
 47 48  1  0
 14 49  2  0
 49 50  1  0
  6 51  1  0
 51 52  1  0
 51 53  2  0
 53 54  1  0
 53  2  1  0
 49  7  1  0
 47 15  1  0
 25 16  1  0
 41 33  1  0
M  CHG  1  47   1
M  END
>  <score>  (337) 
5.462

$$$$

     RDKit          3D

 54 58  0  0  0  0  0  0  0  0999 V2000
   15.5207    5.3138   -1.4197 H   0  0  0  0  0  0  0  0  0  0  0  0
   15.6039    4.2460   -1.6074 C   0  0  0  0  0  0  0  0  0  0  0  0
   15.8466    3.8229   -2.8568 N   0  0  0  0  0  0  0  0  0  0  0  0
   15.9430    2.4987   -3.0799 C   0  0  0  0  0  0  0  0  0  0  0  0
   16.1316    2.1656   -4.0964 H   0  0  0  0  0  0  0  0  0  0  0  0
   15.7857    1.5317   -2.0738 C   0  0  0  0  0  0  0  0  0  0  0  0
   15.8661    0.0912   -2.3893 C   0  0  0  0  0  0  0  0  0  0  0  0
   16.3596   -0.3530   -3.6256 C   0  0  0  0  0  0  0  0  0  0  0  0
   16.6945    0.3713   -4.3601 H   0  0  0  0  0  0  0  0  0  0  0  0
   16.4390   -1.7194   -3.9172 C   0  0  0  0  0  0  0  0  0  0  0  0
   16.8169   -2.0453   -4.8807 H   0  0  0  0  0  0  0  0  0  0  0  0
   16.0210   -2.6645   -2.9755 C   0  0  0  0  0  0  0  0  0  0  0  0
   16.0697   -3.7242   -3.2132 H   0  0  0  0  0  0  0  0  0  0  0  0
   15.5123   -2.2506   -1.7350 C   0  0  0  0  0  0  0  0  0  0  0  0
   14.9586   -3.2450   -0.7251 C   0  0  2  0  0  0  0  0  0  0  0  0
   15.3110   -4.6882   -1.0296 C   0  0  0  0  0  0  0  0  0  0  0  0
   16.5211   -5.2401   -0.5851 C   0  0  0  0  0  0  0  0  0  0  0  0
   17.2273   -4.6195   -0.0394 H   0  0  0  0  0  0  0  0  0  0  0  0
   16.8174   -6.5872   -0.8212 C   0  0  0  0  0  0  0  0  0  0  0  0
   17.7523   -7.0047   -0.4585 H   0  0  0  0  0  0  0  0  0  0  0  0
   15.9057   -7.3944   -1.5132 C   0  0  0  0  0  0  0  0  0  0  0  0
   16.1181   -8.4456   -1.6852 H   0  0  0  0  0  0  0  0  0  0  0  0
   14.7049   -6.8466   -1.9766 C   0  0  0  0  0  0  0  0  0  0  0  0
   13.9865   -7.4550   -2.5166 H   0  0  0  0  0  0  0  0  0  0  0  0
   14.4142   -5.5015   -1.7413 C   0  0  0  0  0  0  0  0  0  0  0  0
   13.4800   -5.0854   -2.1070 H   0  0  0  0  0  0  0  0  0  0  0  0
   13.4405   -3.0520   -0.6008 C   0  0  0  0  0  0  0  0  0  0  0  0
   12.6126   -3.2484   -1.4947 O   0  0  0  0  0  0  0  0  0  0  0  0
   13.1337   -2.5955    0.6676 N   0  0  0  0  0  0  0  0  0  0  0  0
   11.8527   -2.0884    1.0924 N   0  0  0  0  0  0  0  0  0  0  0  0
   11.5879   -1.1189    0.8896 H   0  0  0  0  0  0  0  0  0  0  0  0
   11.0552   -2.6986    2.0396 C   0  0  0  0  0  0  0  0  0  0  0  0
   11.3640   -3.8906    2.6976 C   0  0  0  0  0  0  0  0  0  0  0  0
   12.2653   -4.4326    2.4373 H   0  0  0  0  0  0  0  0  0  0  0  0
   10.5064   -4.3792    3.6954 C   0  0  0  0  0  0  0  0  0  0  0  0
   10.7412   -5.2906    4.2262 H   0  0  0  0  0  0  0  0  0  0  0  0
    9.3117   -3.7146    3.9836 C   0  0  0  0  0  0  0  0  0  0  0  0
    8.1846   -4.3239    5.1708 Cl  0  0  0  0  0  0  0  0  0  0  0  0
    8.9815   -2.5757    3.2586 C   0  0  0  0  0  0  0  0  0  0  0  0
    8.0335   -2.0957    3.4300 H   0  0  0  0  0  0  0  0  0  0  0  0
    9.8626   -2.0495    2.3192 C   0  0  0  0  0  0  0  0  0  0  0  0
    9.6226   -1.1358    1.7911 H   0  0  0  0  0  0  0  0  0  0  0  0
   14.3336   -2.5324    1.3660 C   0  0  0  0  0  0  0  0  0  0  0  0
   14.4821   -2.1198    2.6607 N   0  0  0  0  0  0  0  0  0  0  0  0
   13.6462   -2.0833    3.2397 H   0  0  0  0  0  0  0  0  0  0  0  0
   15.3886   -2.2598    3.1037 H   0  0  0  0  0  0  0  0  0  0  0  0
   15.3490   -2.8979    0.6546 N   0  0  0  0  0  4  0  0  0  0  0  0
   16.3049   -2.9790    1.0129 H   0  0  0  0  0  0  0  0  0  0  0  0
   15.4365   -0.8718   -1.4651 C   0  0  0  0  0  0  0  0  0  0  0  0
   15.0186   -0.5385   -0.5205 H   0  0  0  0  0  0  0  0  0  0  0  0
   15.5428    1.9813   -0.7712 C   0  0  0  0  0  0  0  0  0  0  0  0
   15.4475    1.2712    0.0459 H   0  0  0  0  0  0  0  0  0  0  0  0
   15.4509    3.3549   -0.5442 C   0  0  0  0  0  0  0  0  0  0  0  0
   15.2641    3.7421    0.4494 H   0  0  0  0  0  0  0  0  0  0  0  0
  1  2  1  0
  2  3  2  0
  3  4  1  0
  4  5  1  0
  4  6  2  0
  6  7  1  0
  7  8  2  0
  8  9  1  0
  8 10  1  0
 10 11  1  0
 10 12  2  0
 12 13  1  0
 12 14  1  0
 15 14  1  6
 15 16  1  0
 16 17  2  0
 17 18  1  0
 17 19  1  0
 19 20  1  0
 19 21  2  0
 21 22  1  0
 21 23  1  0
 23 24  1  0
 23 25  2  0
 25 26  1  0
 15 27  1  0
 27 28  2  0
 27 29  1  0
 29 30  1  0
 30 31  1  0
 30 32  1  0
 32 33  2  0
 33 34  1  0
 33 35  1  0
 35 36  1  0
 35 37  2  0
 37 38  1  0
 37 39  1  0
 39 40  1  0
 39 41  2  0
 41 42  1  0
 29 43  1  0
 43 44  1  0
 44 45  1  0
 44 46  1  0
 43 47  2  0
 47 48  1  0
 14 49  2  0
 49 50  1  0
  6 51  1  0
 51 52  1  0
 51 53  2  0
 53 54  1  0
 53  2  1  0
 49  7  1  0
 47 15  1  0
 25 16  1  0
 41 32  1  0
M  CHG  1  47   1
M  END
>  <score>  (338) 
5.46193

$$$$

     RDKit          3D

 56 59  0  0  0  0  0  0  0  0999 V2000
   15.5350    5.3294   -1.4120 H   0  0  0  0  0  0  0  0  0  0  0  0
   15.5853    4.2637   -1.6134 C   0  0  0  0  0  0  0  0  0  0  0  0
   15.8394    3.8518   -2.8648 N   0  0  0  0  0  0  0  0  0  0  0  0
   15.8971    2.5278   -3.0982 C   0  0  0  0  0  0  0  0  0  0  0  0
   16.0922    2.1991   -4.1144 H   0  0  0  0  0  0  0  0  0  0  0  0
   15.7080    1.5592   -2.0964 C   0  0  0  0  0  0  0  0  0  0  0  0
   15.7724    0.1198   -2.3936 C   0  0  0  0  0  0  0  0  0  0  0  0
   16.3251   -0.3197   -3.6004 C   0  0  0  0  0  0  0  0  0  0  0  0
   16.7063    0.4122   -4.3075 H   0  0  0  0  0  0  0  0  0  0  0  0
   16.4030   -1.6848   -3.8865 C   0  0  0  0  0  0  0  0  0  0  0  0
   16.8533   -2.0086   -4.8204 H   0  0  0  0  0  0  0  0  0  0  0  0
   15.9160   -2.6229   -2.9667 C   0  0  0  0  0  0  0  0  0  0  0  0
   15.9806   -3.6802   -3.2022 H   0  0  0  0  0  0  0  0  0  0  0  0
   15.3565   -2.2178   -1.7434 C   0  0  0  0  0  0  0  0  0  0  0  0
   14.7957   -3.2293   -0.7451 C   0  0  2  0  0  0  0  0  0  0  0  0
   15.1686   -4.6777   -1.0505 C   0  0  0  0  0  0  0  0  0  0  0  0
   16.3911   -5.1986   -0.5954 C   0  0  0  0  0  0  0  0  0  0  0  0
   17.0719   -4.5512   -0.0507 H   0  0  0  0  0  0  0  0  0  0  0  0
   16.7271   -6.5401   -0.7994 C   0  0  0  0  0  0  0  0  0  0  0  0
   17.6693   -6.9235   -0.4158 H   0  0  0  0  0  0  0  0  0  0  0  0
   15.8440   -7.3832   -1.4798 C   0  0  0  0  0  0  0  0  0  0  0  0
   16.1024   -8.4283   -1.6288 H   0  0  0  0  0  0  0  0  0  0  0  0
   14.6332   -6.8772   -1.9659 C   0  0  0  0  0  0  0  0  0  0  0  0
   13.9518   -7.5384   -2.4948 H   0  0  0  0  0  0  0  0  0  0  0  0
   14.2966   -5.5322   -1.7522 C   0  0  0  0  0  0  0  0  0  0  0  0
   13.3414   -5.1619   -2.1143 H   0  0  0  0  0  0  0  0  0  0  0  0
   13.2755   -3.0416   -0.5564 C   0  0  0  0  0  0  0  0  0  0  0  0
   12.3635   -3.1535   -1.3714 O   0  0  0  0  0  0  0  0  0  0  0  0
   13.0567   -2.7809    0.7562 N   0  0  0  0  0  0  0  0  0  0  0  0
   11.8283   -2.5359    1.2478 C   0  0  0  0  0  0  0  0  0  0  0  0
   10.9437   -2.1199    0.5279 O   0  0  0  0  0  0  0  0  0  0  0  0
   11.5830   -2.9986    2.5016 N   0  0  0  0  0  0  0  0  0  0  0  0
   12.2915   -3.6218    2.8588 H   0  0  0  0  0  0  0  0  0  0  0  0
   10.2714   -2.9901    3.1319 C   0  0  0  0  0  0  0  0  0  0  0  0
   10.3615   -3.3213    4.1728 H   0  0  0  0  0  0  0  0  0  0  0  0
    9.8857   -1.9667    3.1397 H   0  0  0  0  0  0  0  0  0  0  0  0
    9.2675   -3.8838    2.4137 C   0  0  0  0  0  0  0  0  0  0  0  0
    9.1659   -3.5839    1.3655 H   0  0  0  0  0  0  0  0  0  0  0  0
    9.5904   -4.9301    2.4321 H   0  0  0  0  0  0  0  0  0  0  0  0
    8.0463   -3.6906    3.1335 O   0  0  0  0  0  0  0  0  0  0  0  0
    6.9294   -4.4251    2.6558 C   0  0  0  0  0  0  0  0  0  0  0  0
    6.7097   -4.1826    1.6128 H   0  0  0  0  0  0  0  0  0  0  0  0
    6.0846   -4.1231    3.2657 H   0  0  0  0  0  0  0  0  0  0  0  0
    7.0882   -5.5027    2.7627 H   0  0  0  0  0  0  0  0  0  0  0  0
   14.2253   -2.7369    1.4426 C   0  0  0  0  0  0  0  0  0  0  0  0
   14.3497   -2.4795    2.7746 N   0  0  0  0  0  0  0  0  0  0  0  0
   13.5662   -2.0137    3.2256 H   0  0  0  0  0  0  0  0  0  0  0  0
   15.2942   -2.2502    3.0956 H   0  0  0  0  0  0  0  0  0  0  0  0
   15.2204   -2.9217    0.6447 N   0  0  0  0  0  4  0  0  0  0  0  0
   16.1905   -2.9636    0.9555 H   0  0  0  0  0  0  0  0  0  0  0  0
   15.2890   -0.8357   -1.4796 C   0  0  0  0  0  0  0  0  0  0  0  0
   14.8463   -0.4895   -0.5508 H   0  0  0  0  0  0  0  0  0  0  0  0
   15.4683    1.9993   -0.7966 C   0  0  0  0  0  0  0  0  0  0  0  0
   15.3572    1.2754    0.0051 H   0  0  0  0  0  0  0  0  0  0  0  0
   15.3953    3.3686   -0.5581 C   0  0  0  0  0  0  0  0  0  0  0  0
   15.2022    3.7469    0.4389 H   0  0  0  0  0  0  0  0  0  0  0  0
  1  2  1  0
  2  3  2  0
  3  4  1  0
  4  5  1  0
  4  6  2  0
  6  7  1  0
  7  8  2  0
  8  9  1  0
  8 10  1  0
 10 11  1  0
 10 12  2  0
 12 13  1  0
 12 14  1  0
 15 14  1  6
 15 16  1  0
 16 17  2  0
 17 18  1  0
 17 19  1  0
 19 20  1  0
 19 21  2  0
 21 22  1  0
 21 23  1  0
 23 24  1  0
 23 25  2  0
 25 26  1  0
 15 27  1  0
 27 28  2  0
 27 29  1  0
 29 30  1  0
 30 31  2  0
 30 32  1  0
 32 33  1  0
 32 34  1  0
 34 35  1  0
 34 36  1  0
 34 37  1  0
 37 38  1  0
 37 39  1  0
 37 40  1  0
 40 41  1  0
 41 42  1  0
 41 43  1  0
 41 44  1  0
 29 45  1  0
 45 46  1  0
 46 47  1  0
 46 48  1  0
 45 49  2  0
 49 50  1  0
 14 51  2  0
 51 52  1  0
  6 53  1  0
 53 54  1  0
 53 55  2  0
 55 56  1  0
 55  2  1  0
 51  7  1  0
 49 15  1  0
 25 16  1  0
M  CHG  1  49   1
M  END
>  <score>  (339) 
5.46066

$$$$

     RDKit          3D

 54 58  0  0  0  0  0  0  0  0999 V2000
   15.5703    5.3722   -1.3879 H   0  0  0  0  0  0  0  0  0  0  0  0
   15.5848    4.3035   -1.5951 C   0  0  0  0  0  0  0  0  0  0  0  0
   15.8204    3.8820   -2.8474 N   0  0  0  0  0  0  0  0  0  0  0  0
   15.8631    2.5544   -3.0867 C   0  0  0  0  0  0  0  0  0  0  0  0
   16.0418    2.2305   -4.1063 H   0  0  0  0  0  0  0  0  0  0  0  0
   15.6842    1.5719   -2.0952 C   0  0  0  0  0  0  0  0  0  0  0  0
   15.7734    0.1197   -2.4108 C   0  0  0  0  0  0  0  0  0  0  0  0
   16.3473   -0.3219   -3.6131 C   0  0  0  0  0  0  0  0  0  0  0  0
   16.7288    0.4022   -4.3250 H   0  0  0  0  0  0  0  0  0  0  0  0
   16.4325   -1.6893   -3.9117 C   0  0  0  0  0  0  0  0  0  0  0  0
   16.8661   -2.0085   -4.8543 H   0  0  0  0  0  0  0  0  0  0  0  0
   15.9481   -2.6451   -3.0105 C   0  0  0  0  0  0  0  0  0  0  0  0
   16.0061   -3.7016   -3.2618 H   0  0  0  0  0  0  0  0  0  0  0  0
   15.3865   -2.2431   -1.7885 C   0  0  0  0  0  0  0  0  0  0  0  0
   14.8190   -3.2493   -0.7906 C   0  0  2  0  0  0  0  0  0  0  0  0
   15.1724   -4.7185   -1.0760 C   0  0  0  0  0  0  0  0  0  0  0  0
   16.3896   -5.2413   -0.6084 C   0  0  0  0  0  0  0  0  0  0  0  0
   17.0681   -4.5898   -0.0666 H   0  0  0  0  0  0  0  0  0  0  0  0
   16.7290   -6.5838   -0.8015 C   0  0  0  0  0  0  0  0  0  0  0  0
   17.6733   -6.9563   -0.4176 H   0  0  0  0  0  0  0  0  0  0  0  0
   15.8539   -7.4418   -1.4713 C   0  0  0  0  0  0  0  0  0  0  0  0
   16.1223   -8.4867   -1.6116 H   0  0  0  0  0  0  0  0  0  0  0  0
   14.6424   -6.9423   -1.9605 C   0  0  0  0  0  0  0  0  0  0  0  0
   13.9722   -7.6147   -2.4884 H   0  0  0  0  0  0  0  0  0  0  0  0
   14.3023   -5.5917   -1.7680 C   0  0  0  0  0  0  0  0  0  0  0  0
   13.3532   -5.2361   -2.1598 H   0  0  0  0  0  0  0  0  0  0  0  0
   13.3026   -3.0134   -0.6267 C   0  0  0  0  0  0  0  0  0  0  0  0
   12.4665   -3.1194   -1.5271 O   0  0  0  0  0  0  0  0  0  0  0  0
   13.0282   -2.6275    0.6849 N   0  0  0  0  0  0  0  0  0  0  0  0
   11.7226   -2.6077    1.3119 N   0  0  0  0  0  0  0  0  0  0  0  0
   11.6330   -1.8856    2.0402 H   0  0  0  0  0  0  0  0  0  0  0  0
   11.4016   -3.9212    1.8656 C   0  0  0  0  0  0  0  0  0  0  0  0
   12.0891   -4.1526    2.6822 H   0  0  0  0  0  0  0  0  0  0  0  0
   11.5199   -4.6962    1.1036 H   0  0  0  0  0  0  0  0  0  0  0  0
    9.9859   -3.9227    2.3936 C   0  0  0  0  0  0  0  0  0  0  0  0
    9.2254   -3.6982    1.6409 H   0  0  0  0  0  0  0  0  0  0  0  0
    9.7516   -3.4538    3.8248 C   0  0  0  0  0  0  0  0  0  0  0  0
    8.8320   -2.9110    4.0590 H   0  0  0  0  0  0  0  0  0  0  0  0
   10.6194   -3.1157    4.3996 H   0  0  0  0  0  0  0  0  0  0  0  0
    9.6522   -4.9435    3.4760 C   0  0  0  0  0  0  0  0  0  0  0  0
   10.4519   -5.6062    3.8207 H   0  0  0  0  0  0  0  0  0  0  0  0
    8.6652   -5.4134    3.4738 H   0  0  0  0  0  0  0  0  0  0  0  0
   14.2441   -2.6141    1.3543 C   0  0  0  0  0  0  0  0  0  0  0  0
   14.4215   -2.3504    2.6926 N   0  0  0  0  0  0  0  0  0  0  0  0
   15.3560   -2.3540    3.1016 H   0  0  0  0  0  0  0  0  0  0  0  0
   13.6080   -2.1328    3.2671 H   0  0  0  0  0  0  0  0  0  0  0  0
   15.2431   -2.8956    0.5829 N   0  0  0  0  0  4  0  0  0  0  0  0
   16.2138   -2.9128    0.8975 H   0  0  0  0  0  0  0  0  0  0  0  0
   15.3019   -0.8587   -1.5157 C   0  0  0  0  0  0  0  0  0  0  0  0
   14.8673   -0.5329   -0.5771 H   0  0  0  0  0  0  0  0  0  0  0  0
   15.4305    2.0270   -0.7964 C   0  0  0  0  0  0  0  0  0  0  0  0
   15.2930    1.3161    0.0091 H   0  0  0  0  0  0  0  0  0  0  0  0
   15.3703    3.4029   -0.5504 C   0  0  0  0  0  0  0  0  0  0  0  0
   15.1674    3.7873    0.4435 H   0  0  0  0  0  0  0  0  0  0  0  0
  1  2  1  0
  2  3  2  0
  3  4  1  0
  4  5  1  0
  4  6  2  0
  6  7  1  0
  7  8  2  0
  8  9  1  0
  8 10  1  0
 10 11  1  0
 10 12  2  0
 12 13  1  0
 12 14  1  0
 15 14  1  6
 15 16  1  0
 16 17  2  0
 17 18  1  0
 17 19  1  0
 19 20  1  0
 19 21  2  0
 21 22  1  0
 21 23  1  0
 23 24  1  0
 23 25  2  0
 25 26  1  0
 15 27  1  0
 27 28  2  0
 27 29  1  0
 29 30  1  0
 30 31  1  0
 30 32  1  0
 32 33  1  0
 32 34  1  0
 32 35  1  0
 35 36  1  0
 35 37  1  0
 37 38  1  0
 37 39  1  0
 37 40  1  0
 40 41  1  0
 40 42  1  0
 29 43  1  0
 43 44  1  0
 44 45  1  0
 44 46  1  0
 43 47  2  0
 47 48  1  0
 14 49  2  0
 49 50  1  0
  6 51  1  0
 51 52  1  0
 51 53  2  0
 53 54  1  0
 53  2  1  0
 49  7  1  0
 47 15  1  0
 25 16  1  0
 40 35  1  0
M  CHG  1  47   1
M  END
>  <score>  (340) 
5.46052

$$$$

     RDKit          3D

 44 47  0  0  0  0  0  0  0  0999 V2000
   15.5535    5.3520   -1.3946 H   0  0  0  0  0  0  0  0  0  0  0  0
   15.5871    4.2853   -1.6051 C   0  0  0  0  0  0  0  0  0  0  0  0
   15.8227    3.8690   -2.8593 N   0  0  0  0  0  0  0  0  0  0  0  0
   15.8790    2.5422   -3.0936 C   0  0  0  0  0  0  0  0  0  0  0  0
   16.0702    2.2020   -4.1057 H   0  0  0  0  0  0  0  0  0  0  0  0
   15.6973    1.5687   -2.0973 C   0  0  0  0  0  0  0  0  0  0  0  0
   15.7752    0.1234   -2.4058 C   0  0  0  0  0  0  0  0  0  0  0  0
   16.3322   -0.3173   -3.6101 C   0  0  0  0  0  0  0  0  0  0  0  0
   16.7114    0.4258   -4.3034 H   0  0  0  0  0  0  0  0  0  0  0  0
   16.4217   -1.6843   -3.9039 C   0  0  0  0  0  0  0  0  0  0  0  0
   16.8632   -2.0051   -4.8404 H   0  0  0  0  0  0  0  0  0  0  0  0
   15.9363   -2.6339   -2.9972 C   0  0  0  0  0  0  0  0  0  0  0  0
   15.9962   -3.6934   -3.2335 H   0  0  0  0  0  0  0  0  0  0  0  0
   15.3698   -2.2266   -1.7793 C   0  0  0  0  0  0  0  0  0  0  0  0
   14.8093   -3.2323   -0.7746 C   0  0  2  0  0  0  0  0  0  0  0  0
   15.1740   -4.6971   -1.0690 C   0  0  0  0  0  0  0  0  0  0  0  0
   16.3929   -5.2210   -0.6037 C   0  0  0  0  0  0  0  0  0  0  0  0
   17.0709   -4.5715   -0.0586 H   0  0  0  0  0  0  0  0  0  0  0  0
   16.7335   -6.5649   -0.8023 C   0  0  0  0  0  0  0  0  0  0  0  0
   17.6704   -6.9525   -0.4141 H   0  0  0  0  0  0  0  0  0  0  0  0
   15.8574   -7.4161   -1.4794 C   0  0  0  0  0  0  0  0  0  0  0  0
   16.1070   -8.4653   -1.6148 H   0  0  0  0  0  0  0  0  0  0  0  0
   14.6455   -6.9161   -1.9648 C   0  0  0  0  0  0  0  0  0  0  0  0
   13.9638   -7.5810   -2.4879 H   0  0  0  0  0  0  0  0  0  0  0  0
   14.3062   -5.5665   -1.7632 C   0  0  0  0  0  0  0  0  0  0  0  0
   13.3537   -5.1964   -2.1310 H   0  0  0  0  0  0  0  0  0  0  0  0
   13.2887   -3.0164   -0.5925 C   0  0  0  0  0  0  0  0  0  0  0  0
   12.4720   -3.1524   -1.5045 O   0  0  0  0  0  0  0  0  0  0  0  0
   13.0087   -2.6667    0.7273 N   0  0  0  0  0  0  0  0  0  0  0  0
   11.7897   -2.7491    1.3776 N   0  0  0  0  0  0  0  0  0  0  0  0
   11.2908   -3.0690    2.4245 C   0  0  0  0  0  0  0  0  0  0  0  0
   10.6421   -3.5855    3.7699 S   0  0  0  0  0  0  0  0  0  0  0  0
   14.2485   -2.6310    1.3704 C   0  0  0  0  0  0  0  0  0  0  0  0
   14.4618   -2.3534    2.6986 N   0  0  0  0  0  0  0  0  0  0  0  0
   15.4107   -2.3770    3.0807 H   0  0  0  0  0  0  0  0  0  0  0  0
   13.7056   -1.9339    3.2381 H   0  0  0  0  0  0  0  0  0  0  0  0
   15.2527   -2.8941    0.5906 N   0  0  0  0  0  4  0  0  0  0  0  0
   16.2296   -2.9655    0.8998 H   0  0  0  0  0  0  0  0  0  0  0  0
   15.3007   -0.8430   -1.5031 C   0  0  0  0  0  0  0  0  0  0  0  0
   14.8643   -0.5019   -0.5696 H   0  0  0  0  0  0  0  0  0  0  0  0
   15.4473    2.0118   -0.7998 C   0  0  0  0  0  0  0  0  0  0  0  0
   15.3346    1.2754   -0.0108 H   0  0  0  0  0  0  0  0  0  0  0  0
   15.3839    3.3863   -0.5560 C   0  0  0  0  0  0  0  0  0  0  0  0
   15.1807    3.7725    0.4356 H   0  0  0  0  0  0  0  0  0  0  0  0
  1  2  1  0
  2  3  2  0
  3  4  1  0
  4  5  1  0
  4  6  2  0
  6  7  1  0
  7  8  2  0
  8  9  1  0
  8 10  1  0
 10 11  1  0
 10 12  2  0
 12 13  1  0
 12 14  1  0
 15 14  1  6
 15 16  1  0
 16 17  2  0
 17 18  1  0
 17 19  1  0
 19 20  1  0
 19 21  2  0
 21 22  1  0
 21 23  1  0
 23 24  1  0
 23 25  2  0
 25 26  1  0
 15 27  1  0
 27 28  2  0
 27 29  1  0
 29 30  1  0
 30 31  2  0
 31 32  2  0
 29 33  1  0
 33 34  1  0
 34 35  1  0
 34 36  1  0
 33 37  2  0
 37 38  1  0
 14 39  2  0
 39 40  1  0
  6 41  1  0
 41 42  1  0
 41 43  2  0
 43 44  1  0
 43  2  1  0
 39  7  1  0
 37 15  1  0
 25 16  1  0
M  CHG  1  37   1
M  END
>  <score>  (341) 
5.45908

$$$$

     RDKit          3D

 56 60  0  0  0  0  0  0  0  0999 V2000
   15.5284    5.3327   -1.4068 H   0  0  0  0  0  0  0  0  0  0  0  0
   15.5903    4.2673   -1.6089 C   0  0  0  0  0  0  0  0  0  0  0  0
   15.8358    3.8594   -2.8631 N   0  0  0  0  0  0  0  0  0  0  0  0
   15.9121    2.5365   -3.1008 C   0  0  0  0  0  0  0  0  0  0  0  0
   16.1059    2.2109   -4.1180 H   0  0  0  0  0  0  0  0  0  0  0  0
   15.7459    1.5612   -2.1035 C   0  0  0  0  0  0  0  0  0  0  0  0
   15.8405    0.1229   -2.4169 C   0  0  0  0  0  0  0  0  0  0  0  0
   16.3551   -0.3145   -3.6440 C   0  0  0  0  0  0  0  0  0  0  0  0
   16.6946    0.4157   -4.3714 H   0  0  0  0  0  0  0  0  0  0  0  0
   16.4474   -1.6802   -3.9328 C   0  0  0  0  0  0  0  0  0  0  0  0
   16.8493   -1.9952   -4.8908 H   0  0  0  0  0  0  0  0  0  0  0  0
   16.0246   -2.6299   -2.9924 C   0  0  0  0  0  0  0  0  0  0  0  0
   16.0902   -3.6869   -3.2352 H   0  0  0  0  0  0  0  0  0  0  0  0
   15.5081   -2.2222   -1.7490 C   0  0  0  0  0  0  0  0  0  0  0  0
   14.9671   -3.2065   -0.7142 C   0  0  2  0  0  0  0  0  0  0  0  0
   15.2895   -4.6692   -1.0207 C   0  0  0  0  0  0  0  0  0  0  0  0
   16.4989   -5.2400   -0.5871 C   0  0  0  0  0  0  0  0  0  0  0  0
   17.2186   -4.6271   -0.0519 H   0  0  0  0  0  0  0  0  0  0  0  0
   16.7824   -6.5928   -0.8113 C   0  0  0  0  0  0  0  0  0  0  0  0
   17.7140   -7.0171   -0.4468 H   0  0  0  0  0  0  0  0  0  0  0  0
   15.8623   -7.3967   -1.4911 C   0  0  0  0  0  0  0  0  0  0  0  0
   16.0738   -8.4502   -1.6540 H   0  0  0  0  0  0  0  0  0  0  0  0
   14.6653   -6.8399   -1.9537 C   0  0  0  0  0  0  0  0  0  0  0  0
   13.9493   -7.4611   -2.4841 H   0  0  0  0  0  0  0  0  0  0  0  0
   14.3822   -5.4858   -1.7229 C   0  0  0  0  0  0  0  0  0  0  0  0
   13.4442   -5.0717   -2.0802 H   0  0  0  0  0  0  0  0  0  0  0  0
   13.4648   -2.9399   -0.5173 C   0  0  0  0  0  0  0  0  0  0  0  0
   12.5924   -3.1176   -1.3697 O   0  0  0  0  0  0  0  0  0  0  0  0
   13.2230   -2.4452    0.7650 N   0  0  0  0  0  0  0  0  0  0  0  0
   11.9341   -2.0997    1.3545 N   0  0  0  0  0  0  0  0  0  0  0  0
   11.7355   -1.1115    1.5360 H   0  0  0  0  0  0  0  0  0  0  0  0
   10.8171   -2.9270    1.2516 C   0  0  0  0  0  0  0  0  0  0  0  0
   10.9867   -4.1431    1.1545 O   0  0  0  0  0  0  0  0  0  0  0  0
    9.5320   -2.3453    0.8169 C   0  0  0  0  0  0  0  0  0  0  0  0
    9.2828   -0.9547    0.8307 C   0  0  0  0  0  0  0  0  0  0  0  0
    9.9845   -0.2656    1.3033 H   0  0  0  0  0  0  0  0  0  0  0  0
    8.1359   -0.4528    0.1998 C   0  0  0  0  0  0  0  0  0  0  0  0
    7.9708    0.6180    0.1725 H   0  0  0  0  0  0  0  0  0  0  0  0
    7.2156   -1.3148   -0.4111 C   0  0  0  0  0  0  0  0  0  0  0  0
    6.3669   -0.9186   -0.9646 H   0  0  0  0  0  0  0  0  0  0  0  0
    7.4022   -2.6923   -0.3239 C   0  0  0  0  0  0  0  0  0  0  0  0
    6.6595   -3.3596   -0.7475 H   0  0  0  0  0  0  0  0  0  0  0  0
    8.5520   -3.2019    0.2764 C   0  0  0  0  0  0  0  0  0  0  0  0
    8.7071   -4.2785    0.2813 H   0  0  0  0  0  0  0  0  0  0  0  0
   14.4471   -2.4728    1.4121 C   0  0  0  0  0  0  0  0  0  0  0  0
   14.6398   -2.1557    2.7241 N   0  0  0  0  0  0  0  0  0  0  0  0
   15.5259   -2.4230    3.1391 H   0  0  0  0  0  0  0  0  0  0  0  0
   13.8171   -2.1059    3.3211 H   0  0  0  0  0  0  0  0  0  0  0  0
   15.4192   -2.8637    0.6500 N   0  0  0  0  0  4  0  0  0  0  0  0
   16.3715   -3.0179    0.9790 H   0  0  0  0  0  0  0  0  0  0  0  0
   15.4166   -0.8421   -1.4909 C   0  0  0  0  0  0  0  0  0  0  0  0
   14.9917   -0.5099   -0.5493 H   0  0  0  0  0  0  0  0  0  0  0  0
   15.4959    1.9971   -0.7998 C   0  0  0  0  0  0  0  0  0  0  0  0
   15.3849    1.2771    0.0059 H   0  0  0  0  0  0  0  0  0  0  0  0
   15.4132    3.3666   -0.5569 C   0  0  0  0  0  0  0  0  0  0  0  0
   15.2183    3.7403    0.4410 H   0  0  0  0  0  0  0  0  0  0  0  0
  1  2  1  0
  2  3  2  0
  3  4  1  0
  4  5  1  0
  4  6  2  0
  6  7  1  0
  7  8  2  0
  8  9  1  0
  8 10  1  0
 10 11  1  0
 10 12  2  0
 12 13  1  0
 12 14  1  0
 15 14  1  6
 15 16  1  0
 16 17  2  0
 17 18  1  0
 17 19  1  0
 19 20  1  0
 19 21  2  0
 21 22  1  0
 21 23  1  0
 23 24  1  0
 23 25  2  0
 25 26  1  0
 15 27  1  0
 27 28  2  0
 27 29  1  0
 29 30  1  0
 30 31  1  0
 30 32  1  0
 32 33  2  0
 32 34  1  0
 34 35  2  0
 35 36  1  0
 35 37  1  0
 37 38  1  0
 37 39  2  0
 39 40  1  0
 39 41  1  0
 41 42  1  0
 41 43  2  0
 43 44  1  0
 29 45  1  0
 45 46  1  0
 46 47  1  0
 46 48  1  0
 45 49  2  0
 49 50  1  0
 14 51  2  0
 51 52  1  0
  6 53  1  0
 53 54  1  0
 53 55  2  0
 55 56  1  0
 55  2  1  0
 51  7  1  0
 49 15  1  0
 25 16  1  0
 43 34  1  0
M  CHG  1  49   1
M  END
>  <score>  (342) 
5.45784

$$$$

     RDKit          3D

 60 64  0  0  0  0  0  0  0  0999 V2000
   15.5513    5.3201   -1.3925 H   0  0  0  0  0  0  0  0  0  0  0  0
   15.6261    4.2574   -1.6035 C   0  0  0  0  0  0  0  0  0  0  0  0
   15.8621    3.8647   -2.8641 N   0  0  0  0  0  0  0  0  0  0  0  0
   15.9690    2.5472   -3.1148 C   0  0  0  0  0  0  0  0  0  0  0  0
   16.1528    2.2387   -4.1401 H   0  0  0  0  0  0  0  0  0  0  0  0
   15.8424    1.5609   -2.1219 C   0  0  0  0  0  0  0  0  0  0  0  0
   15.9706    0.1313   -2.4535 C   0  0  0  0  0  0  0  0  0  0  0  0
   16.4202   -0.2804   -3.7160 C   0  0  0  0  0  0  0  0  0  0  0  0
   16.6920    0.4615   -4.4603 H   0  0  0  0  0  0  0  0  0  0  0  0
   16.5132   -1.6402   -4.0310 C   0  0  0  0  0  0  0  0  0  0  0  0
   16.8475   -1.9400   -5.0168 H   0  0  0  0  0  0  0  0  0  0  0  0
   16.1622   -2.6079   -3.0857 C   0  0  0  0  0  0  0  0  0  0  0  0
   16.2159   -3.6625   -3.3345 H   0  0  0  0  0  0  0  0  0  0  0  0
   15.7144   -2.2240   -1.8168 C   0  0  0  0  0  0  0  0  0  0  0  0
   15.1840   -3.2309   -0.8163 C   0  0  2  0  0  0  0  0  0  0  0  0
   15.4958   -4.6975   -1.0986 C   0  0  0  0  0  0  0  0  0  0  0  0
   16.6765   -5.3121   -0.6435 C   0  0  0  0  0  0  0  0  0  0  0  0
   17.4204   -4.7343   -0.1023 H   0  0  0  0  0  0  0  0  0  0  0  0
   16.9003   -6.6787   -0.8629 C   0  0  0  0  0  0  0  0  0  0  0  0
   17.8074   -7.1484   -0.4946 H   0  0  0  0  0  0  0  0  0  0  0  0
   15.9485   -7.4497   -1.5379 C   0  0  0  0  0  0  0  0  0  0  0  0
   16.1098   -8.5138   -1.6904 H   0  0  0  0  0  0  0  0  0  0  0  0
   14.7792   -6.8488   -2.0076 C   0  0  0  0  0  0  0  0  0  0  0  0
   14.0312   -7.4406   -2.5251 H   0  0  0  0  0  0  0  0  0  0  0  0
   14.5599   -5.4860   -1.7929 C   0  0  0  0  0  0  0  0  0  0  0  0
   13.6402   -5.0386   -2.1552 H   0  0  0  0  0  0  0  0  0  0  0  0
   13.6718   -3.0039   -0.7258 C   0  0  0  0  0  0  0  0  0  0  0  0
   12.8475   -3.1123   -1.6333 O   0  0  0  0  0  0  0  0  0  0  0  0
   13.3439   -2.6299    0.5556 N   0  0  0  0  0  0  0  0  0  0  0  0
   12.0756   -2.2011    0.9418 C   0  0  0  0  0  0  0  0  0  0  0  0
   11.4616   -1.2287    0.1383 C   0  0  0  0  0  0  0  0  0  0  0  0
   12.0275   -0.8127   -0.6942 H   0  0  0  0  0  0  0  0  0  0  0  0
   10.1579   -0.8094    0.4129 C   0  0  0  0  0  0  0  0  0  0  0  0
    9.6800   -0.0389   -0.1767 H   0  0  0  0  0  0  0  0  0  0  0  0
    9.4671   -1.3660    1.4808 C   0  0  0  0  0  0  0  0  0  0  0  0
    8.2180   -0.9045    1.8028 O   0  0  0  0  0  0  0  0  0  0  0  0
    7.9081   -1.2196    3.1599 C   0  0  0  0  0  0  0  0  0  0  0  0
    6.9647   -0.7953    3.4907 H   0  0  0  0  0  0  0  0  0  0  0  0
    7.8464   -2.3074    3.2941 H   0  0  0  0  0  0  0  0  0  0  0  0
    8.6969   -0.8354    3.8086 H   0  0  0  0  0  0  0  0  0  0  0  0
   10.0873   -2.3517    2.2525 C   0  0  0  0  0  0  0  0  0  0  0  0
    9.5510   -2.7882    3.0815 H   0  0  0  0  0  0  0  0  0  0  0  0
   11.3915   -2.7682    2.0353 C   0  0  0  0  0  0  0  0  0  0  0  0
   11.9510   -3.7427    2.8356 O   0  0  0  0  0  0  0  0  0  0  0  0
   11.1970   -4.1110    4.0098 C   0  0  0  0  0  0  0  0  0  0  0  0
   11.1091   -3.2513    4.6864 H   0  0  0  0  0  0  0  0  0  0  0  0
   11.6946   -4.9292    4.5430 H   0  0  0  0  0  0  0  0  0  0  0  0
   10.1858   -4.4406    3.7334 H   0  0  0  0  0  0  0  0  0  0  0  0
   14.5071   -2.5943    1.2948 C   0  0  0  0  0  0  0  0  0  0  0  0
   14.6120   -2.3129    2.6243 N   0  0  0  0  0  0  0  0  0  0  0  0
   15.4978   -2.5181    3.0793 H   0  0  0  0  0  0  0  0  0  0  0  0
   13.7618   -2.3393    3.1820 H   0  0  0  0  0  0  0  0  0  0  0  0
   15.5385   -2.8750    0.5711 N   0  0  0  0  0  4  0  0  0  0  0  0
   16.4930   -2.9080    0.9263 H   0  0  0  0  0  0  0  0  0  0  0  0
   15.6208   -0.8524   -1.5195 C   0  0  0  0  0  0  0  0  0  0  0  0
   15.2446   -0.5430   -0.5482 H   0  0  0  0  0  0  0  0  0  0  0  0
   15.5841    1.9791   -0.8126 C   0  0  0  0  0  0  0  0  0  0  0  0
   15.4788    1.2570   -0.0066 H   0  0  0  0  0  0  0  0  0  0  0  0
   15.4760    3.3436   -0.5594 C   0  0  0  0  0  0  0  0  0  0  0  0
   15.2796    3.7005    0.4433 H   0  0  0  0  0  0  0  0  0  0  0  0
  1  2  1  0
  2  3  2  0
  3  4  1  0
  4  5  1  0
  4  6  2  0
  6  7  1  0
  7  8  2  0
  8  9  1  0
  8 10  1  0
 10 11  1  0
 10 12  2  0
 12 13  1  0
 12 14  1  0
 15 14  1  6
 15 16  1  0
 16 17  2  0
 17 18  1  0
 17 19  1  0
 19 20  1  0
 19 21  2  0
 21 22  1  0
 21 23  1  0
 23 24  1  0
 23 25  2  0
 25 26  1  0
 15 27  1  0
 27 28  2  0
 27 29  1  0
 29 30  1  0
 30 31  2  0
 31 32  1  0
 31 33  1  0
 33 34  1  0
 33 35  2  0
 35 36  1  0
 36 37  1  0
 37 38  1  0
 37 39  1  0
 37 40  1  0
 35 41  1  0
 41 42  1  0
 41 43  2  0
 43 44  1  0
 44 45  1  0
 45 46  1  0
 45 47  1  0
 45 48  1  0
 29 49  1  0
 49 50  1  0
 50 51  1  0
 50 52  1  0
 49 53  2  0
 53 54  1  0
 14 55  2  0
 55 56  1  0
  6 57  1  0
 57 58  1  0
 57 59  2  0
 59 60  1  0
 59  2  1  0
 55  7  1  0
 53 15  1  0
 25 16  1  0
 43 30  1  0
M  CHG  1  53   1
M  END
>  <score>  (343) 
5.4559

$$$$

     RDKit          3D

 53 57  0  0  0  0  0  0  0  0999 V2000
   15.5200    5.3154   -1.4268 H   0  0  0  0  0  0  0  0  0  0  0  0
   15.5980    4.2480   -1.6122 C   0  0  0  0  0  0  0  0  0  0  0  0
   15.8465    3.8256   -2.8611 N   0  0  0  0  0  0  0  0  0  0  0  0
   15.9232    2.4996   -3.0818 C   0  0  0  0  0  0  0  0  0  0  0  0
   16.1252    2.1557   -4.0910 H   0  0  0  0  0  0  0  0  0  0  0  0
   15.7482    1.5356   -2.0750 C   0  0  0  0  0  0  0  0  0  0  0  0
   15.8150    0.0936   -2.3787 C   0  0  0  0  0  0  0  0  0  0  0  0
   16.3344   -0.3533   -3.6010 C   0  0  0  0  0  0  0  0  0  0  0  0
   16.6843    0.3745   -4.3251 H   0  0  0  0  0  0  0  0  0  0  0  0
   16.4068   -1.7190   -3.8912 C   0  0  0  0  0  0  0  0  0  0  0  0
   16.8115   -2.0444   -4.8441 H   0  0  0  0  0  0  0  0  0  0  0  0
   15.9629   -2.6575   -2.9554 C   0  0  0  0  0  0  0  0  0  0  0  0
   16.0174   -3.7179   -3.1836 H   0  0  0  0  0  0  0  0  0  0  0  0
   15.4421   -2.2424   -1.7208 C   0  0  0  0  0  0  0  0  0  0  0  0
   14.8997   -3.2438   -0.7147 C   0  0  2  0  0  0  0  0  0  0  0  0
   15.2633   -4.6829   -1.0202 C   0  0  0  0  0  0  0  0  0  0  0  0
   16.4791   -5.2229   -0.5809 C   0  0  0  0  0  0  0  0  0  0  0  0
   17.1767   -4.5895   -0.0394 H   0  0  0  0  0  0  0  0  0  0  0  0
   16.7825   -6.5659   -0.8151 C   0  0  0  0  0  0  0  0  0  0  0  0
   17.7192   -6.9703   -0.4440 H   0  0  0  0  0  0  0  0  0  0  0  0
   15.8773   -7.3797   -1.5064 C   0  0  0  0  0  0  0  0  0  0  0  0
   16.1059   -8.4268   -1.6742 H   0  0  0  0  0  0  0  0  0  0  0  0
   14.6732   -6.8424   -1.9742 C   0  0  0  0  0  0  0  0  0  0  0  0
   13.9632   -7.4658   -2.5093 H   0  0  0  0  0  0  0  0  0  0  0  0
   14.3728   -5.5004   -1.7368 C   0  0  0  0  0  0  0  0  0  0  0  0
   13.4307   -5.0962   -2.0977 H   0  0  0  0  0  0  0  0  0  0  0  0
   13.3795   -3.0741   -0.5864 C   0  0  0  0  0  0  0  0  0  0  0  0
   12.5592   -3.1995   -1.4967 O   0  0  0  0  0  0  0  0  0  0  0  0
   13.0638   -2.7556    0.7157 N   0  0  0  0  0  0  0  0  0  0  0  0
   11.8790   -2.0752    1.0783 O   0  0  0  0  0  0  0  0  0  0  0  0
   11.1005   -2.6786    2.0246 C   0  0  0  0  0  0  0  0  0  0  0  0
    9.9076   -2.0160    2.2981 C   0  0  0  0  0  0  0  0  0  0  0  0
    9.6759   -1.1033    1.7554 H   0  0  0  0  0  0  0  0  0  0  0  0
    9.0159   -2.5118    3.2420 C   0  0  0  0  0  0  0  0  0  0  0  0
    8.0631   -2.0177    3.3856 H   0  0  0  0  0  0  0  0  0  0  0  0
    9.3234   -3.6812    3.9513 C   0  0  0  0  0  0  0  0  0  0  0  0
    8.2054   -4.2873    5.1511 Cl  0  0  0  0  0  0  0  0  0  0  0  0
   10.5244   -4.3627    3.6936 C   0  0  0  0  0  0  0  0  0  0  0  0
   10.7482   -5.2794    4.2425 H   0  0  0  0  0  0  0  0  0  0  0  0
   11.4132   -3.8654    2.7236 C   0  0  0  0  0  0  0  0  0  0  0  0
   12.3419   -4.3884    2.5037 H   0  0  0  0  0  0  0  0  0  0  0  0
   14.2596   -2.6117    1.3909 C   0  0  0  0  0  0  0  0  0  0  0  0
   14.4309   -2.1908    2.6790 N   0  0  0  0  0  0  0  0  0  0  0  0
   15.3712   -2.2060    3.0727 H   0  0  0  0  0  0  0  0  0  0  0  0
   13.6209   -2.1140    3.2929 H   0  0  0  0  0  0  0  0  0  0  0  0
   15.2872   -2.9043    0.6658 N   0  0  0  0  0  4  0  0  0  0  0  0
   16.2538   -2.8837    0.9990 H   0  0  0  0  0  0  0  0  0  0  0  0
   15.3564   -0.8621   -1.4580 C   0  0  0  0  0  0  0  0  0  0  0  0
   14.9154   -0.5204   -0.5258 H   0  0  0  0  0  0  0  0  0  0  0  0
   15.5174    1.9867   -0.7745 C   0  0  0  0  0  0  0  0  0  0  0  0
   15.4115    1.2714    0.0360 H   0  0  0  0  0  0  0  0  0  0  0  0
   15.4375    3.3591   -0.5459 C   0  0  0  0  0  0  0  0  0  0  0  0
   15.2493    3.7404    0.4502 H   0  0  0  0  0  0  0  0  0  0  0  0
  1  2  1  0
  2  3  2  0
  3  4  1  0
  4  5  1  0
  4  6  2  0
  6  7  1  0
  7  8  2  0
  8  9  1  0
  8 10  1  0
 10 11  1  0
 10 12  2  0
 12 13  1  0
 12 14  1  0
 15 14  1  6
 15 16  1  0
 16 17  2  0
 17 18  1  0
 17 19  1  0
 19 20  1  0
 19 21  2  0
 21 22  1  0
 21 23  1  0
 23 24  1  0
 23 25  2  0
 25 26  1  0
 15 27  1  0
 27 28  2  0
 27 29  1  0
 29 30  1  0
 30 31  1  0
 31 32  2  0
 32 33  1  0
 32 34  1  0
 34 35  1  0
 34 36  2  0
 36 37  1  0
 36 38  1  0
 38 39  1  0
 38 40  2  0
 40 41  1  0
 29 42  1  0
 42 43  1  0
 43 44  1  0
 43 45  1  0
 42 46  2  0
 46 47  1  0
 14 48  2  0
 48 49  1  0
  6 50  1  0
 50 51  1  0
 50 52  2  0
 52 53  1  0
 52  2  1  0
 48  7  1  0
 46 15  1  0
 25 16  1  0
 40 31  1  0
M  CHG  1  46   1
M  END
>  <score>  (344) 
5.45516

$$$$

     RDKit          3D

 58 62  0  0  0  0  0  0  0  0999 V2000
   15.5542    5.3501   -1.3967 H   0  0  0  0  0  0  0  0  0  0  0  0
   15.5878    4.2843   -1.6038 C   0  0  0  0  0  0  0  0  0  0  0  0
   15.8265    3.8705   -2.8569 N   0  0  0  0  0  0  0  0  0  0  0  0
   15.8763    2.5440   -3.0925 C   0  0  0  0  0  0  0  0  0  0  0  0
   16.0644    2.2135   -4.1093 H   0  0  0  0  0  0  0  0  0  0  0  0
   15.6930    1.5684   -2.0956 C   0  0  0  0  0  0  0  0  0  0  0  0
   15.7784    0.1199   -2.4046 C   0  0  0  0  0  0  0  0  0  0  0  0
   16.3339   -0.3198   -3.6139 C   0  0  0  0  0  0  0  0  0  0  0  0
   16.7171    0.4166   -4.3137 H   0  0  0  0  0  0  0  0  0  0  0  0
   16.4205   -1.6856   -3.9119 C   0  0  0  0  0  0  0  0  0  0  0  0
   16.8674   -2.0019   -4.8499 H   0  0  0  0  0  0  0  0  0  0  0  0
   15.9454   -2.6375   -2.9991 C   0  0  0  0  0  0  0  0  0  0  0  0
   16.0072   -3.6945   -3.2453 H   0  0  0  0  0  0  0  0  0  0  0  0
   15.3898   -2.2378   -1.7710 C   0  0  0  0  0  0  0  0  0  0  0  0
   14.8184   -3.2453   -0.7676 C   0  0  2  0  0  0  0  0  0  0  0  0
   15.1814   -4.7073   -1.0711 C   0  0  0  0  0  0  0  0  0  0  0  0
   16.4011   -5.2341   -0.6100 C   0  0  0  0  0  0  0  0  0  0  0  0
   17.0824   -4.5879   -0.0652 H   0  0  0  0  0  0  0  0  0  0  0  0
   16.7399   -6.5800   -0.8019 C   0  0  0  0  0  0  0  0  0  0  0  0
   17.6807   -6.9643   -0.4132 H   0  0  0  0  0  0  0  0  0  0  0  0
   15.8600   -7.4282   -1.4804 C   0  0  0  0  0  0  0  0  0  0  0  0
   16.1104   -8.4772   -1.6163 H   0  0  0  0  0  0  0  0  0  0  0  0
   14.6486   -6.9262   -1.9693 C   0  0  0  0  0  0  0  0  0  0  0  0
   13.9612   -7.5908   -2.4886 H   0  0  0  0  0  0  0  0  0  0  0  0
   14.3145   -5.5744   -1.7693 C   0  0  0  0  0  0  0  0  0  0  0  0
   13.3631   -5.2053   -2.1382 H   0  0  0  0  0  0  0  0  0  0  0  0
   13.3024   -3.0136   -0.5943 C   0  0  0  0  0  0  0  0  0  0  0  0
   12.4840   -3.1168   -1.5087 O   0  0  0  0  0  0  0  0  0  0  0  0
   13.0116   -2.6183    0.7106 N   0  0  0  0  0  0  0  0  0  0  0  0
   11.7644   -2.0368    1.2005 N   0  0  0  0  0  0  0  0  0  0  0  0
   11.4490   -1.1250    0.8626 H   0  0  0  0  0  0  0  0  0  0  0  0
   10.8487   -2.6477    2.0448 C   0  0  0  0  0  0  0  0  0  0  0  0
    9.3761   -1.8769    2.2530 S   0  0  0  0  0  0  0  0  0  0  0  0
   11.1752   -3.8261    2.6915 N   0  0  0  0  0  0  0  0  0  0  0  0
   12.1542   -4.1022    2.7132 H   0  0  0  0  0  0  0  0  0  0  0  0
   10.2225   -4.6562    3.2571 C   0  0  0  0  0  0  0  0  0  0  0  0
    8.9182   -4.6605    2.7505 C   0  0  0  0  0  0  0  0  0  0  0  0
    8.6761   -4.0235    1.9089 H   0  0  0  0  0  0  0  0  0  0  0  0
    7.9355   -5.4740    3.3154 C   0  0  0  0  0  0  0  0  0  0  0  0
    6.9240   -5.4830    2.9124 H   0  0  0  0  0  0  0  0  0  0  0  0
    8.2685   -6.2787    4.4096 C   0  0  0  0  0  0  0  0  0  0  0  0
    7.5120   -6.9125    4.8569 H   0  0  0  0  0  0  0  0  0  0  0  0
    9.5714   -6.2686    4.9290 C   0  0  0  0  0  0  0  0  0  0  0  0
    9.8227   -6.8840    5.7881 H   0  0  0  0  0  0  0  0  0  0  0  0
   10.5507   -5.4568    4.3440 C   0  0  0  0  0  0  0  0  0  0  0  0
   11.5606   -5.4098    4.7398 H   0  0  0  0  0  0  0  0  0  0  0  0
   14.2437   -2.6059    1.3677 C   0  0  0  0  0  0  0  0  0  0  0  0
   14.4333   -2.3149    2.6890 N   0  0  0  0  0  0  0  0  0  0  0  0
   15.3712   -2.3452    3.0869 H   0  0  0  0  0  0  0  0  0  0  0  0
   13.6281   -2.0856    3.2695 H   0  0  0  0  0  0  0  0  0  0  0  0
   15.2469   -2.9190    0.6065 N   0  0  0  0  0  4  0  0  0  0  0  0
   16.2252   -2.9595    0.9115 H   0  0  0  0  0  0  0  0  0  0  0  0
   15.3132   -0.8535   -1.4998 C   0  0  0  0  0  0  0  0  0  0  0  0
   14.8646   -0.5232   -0.5688 H   0  0  0  0  0  0  0  0  0  0  0  0
   15.4398    2.0153   -0.7973 C   0  0  0  0  0  0  0  0  0  0  0  0
   15.3263    1.2895    0.0006 H   0  0  0  0  0  0  0  0  0  0  0  0
   15.3794    3.3880   -0.5555 C   0  0  0  0  0  0  0  0  0  0  0  0
   15.1825    3.7692    0.4387 H   0  0  0  0  0  0  0  0  0  0  0  0
  1  2  1  0
  2  3  2  0
  3  4  1  0
  4  5  1  0
  4  6  2  0
  6  7  1  0
  7  8  2  0
  8  9  1  0
  8 10  1  0
 10 11  1  0
 10 12  2  0
 12 13  1  0
 12 14  1  0
 15 14  1  6
 15 16  1  0
 16 17  2  0
 17 18  1  0
 17 19  1  0
 19 20  1  0
 19 21  2  0
 21 22  1  0
 21 23  1  0
 23 24  1  0
 23 25  2  0
 25 26  1  0
 15 27  1  0
 27 28  2  0
 27 29  1  0
 29 30  1  0
 30 31  1  0
 30 32  1  0
 32 33  2  0
 32 34  1  0
 34 35  1  0
 34 36  1  0
 36 37  2  0
 37 38  1  0
 37 39  1  0
 39 40  1  0
 39 41  2  0
 41 42  1  0
 41 43  1  0
 43 44  1  0
 43 45  2  0
 45 46  1  0
 29 47  1  0
 47 48  1  0
 48 49  1  0
 48 50  1  0
 47 51  2  0
 51 52  1  0
 14 53  2  0
 53 54  1  0
  6 55  1  0
 55 56  1  0
 55 57  2  0
 57 58  1  0
 57  2  1  0
 53  7  1  0
 51 15  1  0
 25 16  1  0
 45 36  1  0
M  CHG  1  51   1
M  END
>  <score>  (345) 
5.45483

$$$$

     RDKit          3D

 50 54  0  0  0  0  0  0  0  0999 V2000
   15.5264    5.3270   -1.4246 H   0  0  0  0  0  0  0  0  0  0  0  0
   15.5968    4.2600   -1.6129 C   0  0  0  0  0  0  0  0  0  0  0  0
   15.8478    3.8373   -2.8616 N   0  0  0  0  0  0  0  0  0  0  0  0
   15.9143    2.5116   -3.0862 C   0  0  0  0  0  0  0  0  0  0  0  0
   16.1095    2.1765   -4.1006 H   0  0  0  0  0  0  0  0  0  0  0  0
   15.7252    1.5504   -2.0778 C   0  0  0  0  0  0  0  0  0  0  0  0
   15.7656    0.1081   -2.3666 C   0  0  0  0  0  0  0  0  0  0  0  0
   16.3101   -0.3595   -3.5677 C   0  0  0  0  0  0  0  0  0  0  0  0
   16.7024    0.3455   -4.2931 H   0  0  0  0  0  0  0  0  0  0  0  0
   16.3633   -1.7277   -3.8338 C   0  0  0  0  0  0  0  0  0  0  0  0
   16.8003   -2.0745   -4.7627 H   0  0  0  0  0  0  0  0  0  0  0  0
   15.8639   -2.6447   -2.9043 C   0  0  0  0  0  0  0  0  0  0  0  0
   15.9082   -3.7067   -3.1251 H   0  0  0  0  0  0  0  0  0  0  0  0
   15.3146   -2.2117   -1.6849 C   0  0  0  0  0  0  0  0  0  0  0  0
   14.7411   -3.2037   -0.6717 C   0  0  2  0  0  0  0  0  0  0  0  0
   15.1240   -4.6437   -0.9675 C   0  0  0  0  0  0  0  0  0  0  0  0
   16.3545   -5.1462   -0.5263 C   0  0  0  0  0  0  0  0  0  0  0  0
   17.0356   -4.4911    0.0114 H   0  0  0  0  0  0  0  0  0  0  0  0
   16.7066   -6.4732   -0.7756 C   0  0  0  0  0  0  0  0  0  0  0  0
   17.6628   -6.8417   -0.4218 H   0  0  0  0  0  0  0  0  0  0  0  0
   15.8347   -7.3107   -1.4773 C   0  0  0  0  0  0  0  0  0  0  0  0
   16.1074   -8.3444   -1.6572 H   0  0  0  0  0  0  0  0  0  0  0  0
   14.6141   -6.8155   -1.9440 C   0  0  0  0  0  0  0  0  0  0  0  0
   13.9429   -7.4574   -2.5049 H   0  0  0  0  0  0  0  0  0  0  0  0
   14.2599   -5.4873   -1.6931 C   0  0  0  0  0  0  0  0  0  0  0  0
   13.3104   -5.1102   -2.0659 H   0  0  0  0  0  0  0  0  0  0  0  0
   13.2186   -3.0525   -0.5710 C   0  0  0  0  0  0  0  0  0  0  0  0
   12.3979   -3.2153   -1.4730 O   0  0  0  0  0  0  0  0  0  0  0  0
   12.8781   -2.6926    0.7052 N   0  0  0  0  0  0  0  0  0  0  0  0
   11.5801   -2.3956    1.0454 C   0  0  0  0  0  0  0  0  0  0  0  0
   10.6474   -2.4308    0.1299 N   0  0  0  0  0  0  0  0  0  0  0  0
    9.4745   -2.1341    0.7320 N   0  0  0  0  0  0  0  0  0  0  0  0
    9.7711   -1.9533    1.9891 C   0  0  0  0  0  0  0  0  0  0  0  0
    8.6908   -1.6148    2.9624 C   0  0  0  0  0  0  0  0  0  0  0  0
    8.7496   -2.2597    3.8440 H   0  0  0  0  0  0  0  0  0  0  0  0
    8.7580   -0.5654    3.2641 H   0  0  0  0  0  0  0  0  0  0  0  0
    7.7283   -1.7715    2.4766 H   0  0  0  0  0  0  0  0  0  0  0  0
   11.0962   -2.0792    2.2572 O   0  0  0  0  0  0  0  0  0  0  0  0
   14.0305   -2.5751    1.4424 C   0  0  0  0  0  0  0  0  0  0  0  0
   14.2257   -2.2019    2.7423 N   0  0  0  0  0  0  0  0  0  0  0  0
   15.1646   -2.3017    3.1298 H   0  0  0  0  0  0  0  0  0  0  0  0
   13.4367   -2.1061    3.3762 H   0  0  0  0  0  0  0  0  0  0  0  0
   15.0730   -2.8509    0.7291 N   0  0  0  0  0  4  0  0  0  0  0  0
   16.0252   -2.8621    1.1046 H   0  0  0  0  0  0  0  0  0  0  0  0
   15.2631   -0.8253   -1.4409 C   0  0  0  0  0  0  0  0  0  0  0  0
   14.8246   -0.4564   -0.5173 H   0  0  0  0  0  0  0  0  0  0  0  0
   15.4947    2.0021   -0.7786 C   0  0  0  0  0  0  0  0  0  0  0  0
   15.3851    1.2919    0.0351 H   0  0  0  0  0  0  0  0  0  0  0  0
   15.4223    3.3718   -0.5499 C   0  0  0  0  0  0  0  0  0  0  0  0
   15.2297    3.7473    0.4472 H   0  0  0  0  0  0  0  0  0  0  0  0
  1  2  1  0
  2  3  2  0
  3  4  1  0
  4  5  1  0
  4  6  2  0
  6  7  1  0
  7  8  2  0
  8  9  1  0
  8 10  1  0
 10 11  1  0
 10 12  2  0
 12 13  1  0
 12 14  1  0
 15 14  1  6
 15 16  1  0
 16 17  2  0
 17 18  1  0
 17 19  1  0
 19 20  1  0
 19 21  2  0
 21 22  1  0
 21 23  1  0
 23 24  1  0
 23 25  2  0
 25 26  1  0
 15 27  1  0
 27 28  2  0
 27 29  1  0
 29 30  1  0
 30 31  2  0
 31 32  1  0
 32 33  2  0
 33 34  1  0
 34 35  1  0
 34 36  1  0
 34 37  1  0
 33 38  1  0
 29 39  1  0
 39 40  1  0
 40 41  1  0
 40 42  1  0
 39 43  2  0
 43 44  1  0
 14 45  2  0
 45 46  1  0
  6 47  1  0
 47 48  1  0
 47 49  2  0
 49 50  1  0
 49  2  1  0
 45  7  1  0
 43 15  1  0
 25 16  1  0
 38 30  1  0
M  CHG  1  43   1
M  END
>  <score>  (346) 
5.4528

$$$$

     RDKit          3D

 61 65  0  0  0  0  0  0  0  0999 V2000
   15.5315    5.3183   -1.4141 H   0  0  0  0  0  0  0  0  0  0  0  0
   15.5987    4.2506   -1.6056 C   0  0  0  0  0  0  0  0  0  0  0  0
   15.8392    3.8319   -2.8568 N   0  0  0  0  0  0  0  0  0  0  0  0
   15.9217    2.5068   -3.0822 C   0  0  0  0  0  0  0  0  0  0  0  0
   16.1132    2.1754   -4.0975 H   0  0  0  0  0  0  0  0  0  0  0  0
   15.7640    1.5362   -2.0781 C   0  0  0  0  0  0  0  0  0  0  0  0
   15.8571    0.0936   -2.3883 C   0  0  0  0  0  0  0  0  0  0  0  0
   16.3536   -0.3434   -3.6248 C   0  0  0  0  0  0  0  0  0  0  0  0
   16.6785    0.3870   -4.3590 H   0  0  0  0  0  0  0  0  0  0  0  0
   16.4416   -1.7082   -3.9187 C   0  0  0  0  0  0  0  0  0  0  0  0
   16.8226   -2.0275   -4.8830 H   0  0  0  0  0  0  0  0  0  0  0  0
   16.0321   -2.6585   -2.9761 C   0  0  0  0  0  0  0  0  0  0  0  0
   16.0964   -3.7162   -3.2153 H   0  0  0  0  0  0  0  0  0  0  0  0
   15.5218   -2.2552   -1.7314 C   0  0  0  0  0  0  0  0  0  0  0  0
   14.9777   -3.2589   -0.7179 C   0  0  2  0  0  0  0  0  0  0  0  0
   15.3367   -4.7080   -1.0254 C   0  0  0  0  0  0  0  0  0  0  0  0
   16.5449   -5.2702   -0.5827 C   0  0  0  0  0  0  0  0  0  0  0  0
   17.2618   -4.6601   -0.0393 H   0  0  0  0  0  0  0  0  0  0  0  0
   16.8291   -6.6216   -0.8173 C   0  0  0  0  0  0  0  0  0  0  0  0
   17.7565   -7.0520   -0.4550 H   0  0  0  0  0  0  0  0  0  0  0  0
   15.9135   -7.4235   -1.5064 C   0  0  0  0  0  0  0  0  0  0  0  0
   16.1175   -8.4771   -1.6728 H   0  0  0  0  0  0  0  0  0  0  0  0
   14.7209   -6.8685   -1.9735 C   0  0  0  0  0  0  0  0  0  0  0  0
   13.9999   -7.4782   -2.5076 H   0  0  0  0  0  0  0  0  0  0  0  0
   14.4389   -5.5198   -1.7414 C   0  0  0  0  0  0  0  0  0  0  0  0
   13.5083   -5.0986   -2.1080 H   0  0  0  0  0  0  0  0  0  0  0  0
   13.4576   -3.0734   -0.5979 C   0  0  0  0  0  0  0  0  0  0  0  0
   12.6408   -3.2398   -1.5047 O   0  0  0  0  0  0  0  0  0  0  0  0
   13.1239   -2.6338    0.6740 N   0  0  0  0  0  0  0  0  0  0  0  0
   11.8552   -2.0467    1.0346 N   0  0  0  0  0  0  0  0  0  0  0  0
   10.7464   -3.0050    1.1961 C   0  0  0  0  0  0  0  0  0  0  0  0
   10.5254   -3.4888    0.2389 H   0  0  0  0  0  0  0  0  0  0  0  0
   11.0136   -3.7953    1.8985 H   0  0  0  0  0  0  0  0  0  0  0  0
    9.5449   -2.2312    1.7178 C   0  0  0  0  0  0  0  0  0  0  0  0
    8.7253   -2.8986    1.9879 H   0  0  0  0  0  0  0  0  0  0  0  0
    9.8452   -1.6663    2.6087 H   0  0  0  0  0  0  0  0  0  0  0  0
    9.0973   -1.2848    0.6146 C   0  0  0  0  0  0  0  0  0  0  0  0
    8.9470   -1.8412   -0.3185 H   0  0  0  0  0  0  0  0  0  0  0  0
    7.8704   -0.6465    0.9835 O   0  0  0  0  0  0  0  0  0  0  0  0
    7.4052    0.2885   -0.0049 C   0  0  0  0  0  0  0  0  0  0  0  0
    7.1620   -0.2194   -0.9447 H   0  0  0  0  0  0  0  0  0  0  0  0
    6.5026    0.8033    0.3341 H   0  0  0  0  0  0  0  0  0  0  0  0
    8.1797    1.0419   -0.1899 H   0  0  0  0  0  0  0  0  0  0  0  0
   10.1780   -0.2361    0.3980 C   0  0  0  0  0  0  0  0  0  0  0  0
    9.9298    0.3169   -0.5088 H   0  0  0  0  0  0  0  0  0  0  0  0
   10.1628    0.4706    1.2270 H   0  0  0  0  0  0  0  0  0  0  0  0
   11.5762   -0.8336    0.2343 C   0  0  0  0  0  0  0  0  0  0  0  0
   11.6854   -1.0927   -0.8188 H   0  0  0  0  0  0  0  0  0  0  0  0
   12.3318   -0.0758    0.4631 H   0  0  0  0  0  0  0  0  0  0  0  0
   14.3219   -2.5402    1.3762 C   0  0  0  0  0  0  0  0  0  0  0  0
   14.5140   -2.1297    2.6662 N   0  0  0  0  0  0  0  0  0  0  0  0
   15.4310   -2.2886    3.0837 H   0  0  0  0  0  0  0  0  0  0  0  0
   13.6978   -2.0591    3.2734 H   0  0  0  0  0  0  0  0  0  0  0  0
   15.3474   -2.8996    0.6650 N   0  0  0  0  0  4  0  0  0  0  0  0
   16.3066   -2.9126    1.0146 H   0  0  0  0  0  0  0  0  0  0  0  0
   15.4372   -0.8751   -1.4607 C   0  0  0  0  0  0  0  0  0  0  0  0
   15.0221   -0.5460   -0.5128 H   0  0  0  0  0  0  0  0  0  0  0  0
   15.5195    1.9848   -0.7758 C   0  0  0  0  0  0  0  0  0  0  0  0
   15.4168    1.2735    0.0386 H   0  0  0  0  0  0  0  0  0  0  0  0
   15.4333    3.3586   -0.5443 C   0  0  0  0  0  0  0  0  0  0  0  0
   15.2461    3.7465    0.4503 H   0  0  0  0  0  0  0  0  0  0  0  0
  1  2  1  0
  2  3  2  0
  3  4  1  0
  4  5  1  0
  4  6  2  0
  6  7  1  0
  7  8  2  0
  8  9  1  0
  8 10  1  0
 10 11  1  0
 10 12  2  0
 12 13  1  0
 12 14  1  0
 15 14  1  6
 15 16  1  0
 16 17  2  0
 17 18  1  0
 17 19  1  0
 19 20  1  0
 19 21  2  0
 21 22  1  0
 21 23  1  0
 23 24  1  0
 23 25  2  0
 25 26  1  0
 15 27  1  0
 27 28  2  0
 27 29  1  0
 29 30  1  0
 30 31  1  0
 31 32  1  0
 31 33  1  0
 31 34  1  0
 34 35  1  0
 34 36  1  0
 34 37  1  0
 37 38  1  0
 37 39  1  0
 39 40  1  0
 40 41  1  0
 40 42  1  0
 40 43  1  0
 37 44  1  0
 44 45  1  0
 44 46  1  0
 44 47  1  0
 47 48  1  0
 47 49  1  0
 29 50  1  0
 50 51  1  0
 51 52  1  0
 51 53  1  0
 50 54  2  0
 54 55  1  0
 14 56  2  0
 56 57  1  0
  6 58  1  0
 58 59  1  0
 58 60  2  0
 60 61  1  0
 60  2  1  0
 56  7  1  0
 54 15  1  0
 25 16  1  0
 47 30  1  0
M  CHG  1  54   1
M  END
>  <score>  (347) 
5.45128

$$$$

     RDKit          3D

 46 49  0  0  0  0  0  0  0  0999 V2000
   12.3352   -1.2769    2.5777 H   0  0  0  0  0  0  0  0  0  0  0  0
   11.5269   -1.8630    2.1588 C   0  0  0  0  0  0  0  0  0  0  0  0
   10.5394   -1.7518    2.5878 H   0  0  0  0  0  0  0  0  0  0  0  0
   11.7774   -2.6629    1.0972 C   0  0  0  0  0  0  0  0  0  0  0  0
   10.9568   -3.1939    0.6148 H   0  0  0  0  0  0  0  0  0  0  0  0
   13.0753   -2.7639    0.6127 N   0  0  0  0  0  0  0  0  0  0  0  0
   13.3697   -3.0915   -0.6803 C   0  0  0  0  0  0  0  0  0  0  0  0
   12.5330   -3.2406   -1.5760 O   0  0  0  0  0  0  0  0  0  0  0  0
   14.8857   -3.2423   -0.7976 C   0  0  1  0  0  0  0  0  0  0  0  0
   15.2410   -4.6919   -1.0756 C   0  0  0  0  0  0  0  0  0  0  0  0
   16.4447   -5.2263   -0.6017 C   0  0  0  0  0  0  0  0  0  0  0  0
   17.1211   -4.5829   -0.0455 H   0  0  0  0  0  0  0  0  0  0  0  0
   16.7542   -6.5753   -0.7961 C   0  0  0  0  0  0  0  0  0  0  0  0
   17.6907   -6.9677   -0.4084 H   0  0  0  0  0  0  0  0  0  0  0  0
   15.8583   -7.4067   -1.4805 C   0  0  0  0  0  0  0  0  0  0  0  0
   16.0998   -8.4543   -1.6303 H   0  0  0  0  0  0  0  0  0  0  0  0
   14.6529   -6.8871   -1.9651 C   0  0  0  0  0  0  0  0  0  0  0  0
   13.9529   -7.5369   -2.4854 H   0  0  0  0  0  0  0  0  0  0  0  0
   14.3451   -5.5381   -1.7577 C   0  0  0  0  0  0  0  0  0  0  0  0
   13.3896   -5.1552   -2.1052 H   0  0  0  0  0  0  0  0  0  0  0  0
   15.4176   -2.2213   -1.7742 C   0  0  0  0  0  0  0  0  0  0  0  0
   15.9530   -2.6222   -2.9985 C   0  0  0  0  0  0  0  0  0  0  0  0
   16.0088   -3.6821   -3.2235 H   0  0  0  0  0  0  0  0  0  0  0  0
   16.4143   -1.6748   -3.9153 C   0  0  0  0  0  0  0  0  0  0  0  0
   16.8589   -1.9981   -4.8512 H   0  0  0  0  0  0  0  0  0  0  0  0
   16.3296   -0.3112   -3.6141 C   0  0  0  0  0  0  0  0  0  0  0  0
   16.7027    0.4283   -4.3145 H   0  0  0  0  0  0  0  0  0  0  0  0
   15.7761    0.1226   -2.4044 C   0  0  0  0  0  0  0  0  0  0  0  0
   15.7034    1.5610   -2.0993 C   0  0  0  0  0  0  0  0  0  0  0  0
   15.8924    2.5295   -3.1003 C   0  0  0  0  0  0  0  0  0  0  0  0
   16.0925    2.1968   -4.1147 H   0  0  0  0  0  0  0  0  0  0  0  0
   15.8387    3.8536   -2.8637 N   0  0  0  0  0  0  0  0  0  0  0  0
   15.5845    4.2635   -1.6125 C   0  0  0  0  0  0  0  0  0  0  0  0
   15.5361    5.3287   -1.4111 H   0  0  0  0  0  0  0  0  0  0  0  0
   15.3933    3.3679   -0.5586 C   0  0  0  0  0  0  0  0  0  0  0  0
   15.2030    3.7472    0.4365 H   0  0  0  0  0  0  0  0  0  0  0  0
   15.4664    1.9982   -0.7976 C   0  0  0  0  0  0  0  0  0  0  0  0
   15.3562    1.2695   -0.0001 H   0  0  0  0  0  0  0  0  0  0  0  0
   15.3145   -0.8431   -1.4965 C   0  0  0  0  0  0  0  0  0  0  0  0
   14.8680   -0.5096   -0.5632 H   0  0  0  0  0  0  0  0  0  0  0  0
   15.2995   -2.8685    0.5643 N   0  0  0  0  0  4  0  0  0  0  0  0
   16.2496   -2.9694    0.9333 H   0  0  0  0  0  0  0  0  0  0  0  0
   14.2743   -2.6222    1.2956 C   0  0  0  0  0  0  0  0  0  0  0  0
   14.4959   -2.3508    2.6102 N   0  0  0  0  0  0  0  0  0  0  0  0
   14.8166   -3.1661    3.1160 H   0  0  0  0  0  0  0  0  0  0  0  0
   15.1330   -1.5775    2.7522 H   0  0  0  0  0  0  0  0  0  0  0  0
  1  2  1  0
  2  3  1  0
  2  4  2  0
  4  5  1  0
  4  6  1  0
  6  7  1  0
  7  8  2  0
  7  9  1  0
  9 10  1  6
 10 11  2  0
 11 12  1  0
 11 13  1  0
 13 14  1  0
 13 15  2  0
 15 16  1  0
 15 17  1  0
 17 18  1  0
 17 19  2  0
 19 20  1  0
  9 21  1  0
 21 22  2  0
 22 23  1  0
 22 24  1  0
 24 25  1  0
 24 26  2  0
 26 27  1  0
 26 28  1  0
 28 29  1  0
 29 30  2  0
 30 31  1  0
 30 32  1  0
 32 33  2  0
 33 34  1  0
 33 35  1  0
 35 36  1  0
 35 37  2  0
 37 38  1  0
 28 39  2  0
 39 40  1  0
  9 41  1  0
 41 42  1  0
 41 43  2  0
 43 44  1  0
 44 45  1  0
 44 46  1  0
 43  6  1  0
 19 10  1  0
 39 21  1  0
 37 29  1  0
M  CHG  1  41   1
M  END
>  <score>  (348) 
5.45063

$$$$

     RDKit          3D

 60 64  0  0  0  0  0  0  0  0999 V2000
   15.5282    5.3277   -1.4170 H   0  0  0  0  0  0  0  0  0  0  0  0
   15.5903    4.2617   -1.6120 C   0  0  0  0  0  0  0  0  0  0  0  0
   15.8381    3.8486   -2.8640 N   0  0  0  0  0  0  0  0  0  0  0  0
   15.9050    2.5252   -3.0957 C   0  0  0  0  0  0  0  0  0  0  0  0
   16.1028    2.1946   -4.1108 H   0  0  0  0  0  0  0  0  0  0  0  0
   15.7222    1.5572   -2.0942 C   0  0  0  0  0  0  0  0  0  0  0  0
   15.7979    0.1214   -2.4036 C   0  0  0  0  0  0  0  0  0  0  0  0
   16.3390   -0.3165   -3.6185 C   0  0  0  0  0  0  0  0  0  0  0  0
   16.7040    0.4111   -4.3345 H   0  0  0  0  0  0  0  0  0  0  0  0
   16.4219   -1.6796   -3.9147 C   0  0  0  0  0  0  0  0  0  0  0  0
   16.8431   -2.0025   -4.8597 H   0  0  0  0  0  0  0  0  0  0  0  0
   15.9663   -2.6245   -2.9938 C   0  0  0  0  0  0  0  0  0  0  0  0
   16.0148   -3.6837   -3.2271 H   0  0  0  0  0  0  0  0  0  0  0  0
   15.4386   -2.2169   -1.7641 C   0  0  0  0  0  0  0  0  0  0  0  0
   14.9061   -3.2224   -0.7649 C   0  0  2  0  0  0  0  0  0  0  0  0
   15.2362   -4.6772   -1.0639 C   0  0  0  0  0  0  0  0  0  0  0  0
   16.4428   -5.2160   -0.6011 C   0  0  0  0  0  0  0  0  0  0  0  0
   17.1320   -4.5760   -0.0574 H   0  0  0  0  0  0  0  0  0  0  0  0
   16.7519   -6.5608   -0.8048 C   0  0  0  0  0  0  0  0  0  0  0  0
   17.6870   -6.9531   -0.4192 H   0  0  0  0  0  0  0  0  0  0  0  0
   15.8565   -7.3883   -1.4887 C   0  0  0  0  0  0  0  0  0  0  0  0
   16.0961   -8.4360   -1.6405 H   0  0  0  0  0  0  0  0  0  0  0  0
   14.6492   -6.8660   -1.9648 C   0  0  0  0  0  0  0  0  0  0  0  0
   13.9487   -7.5077   -2.4909 H   0  0  0  0  0  0  0  0  0  0  0  0
   14.3383   -5.5171   -1.7525 C   0  0  0  0  0  0  0  0  0  0  0  0
   13.3895   -5.1291   -2.1135 H   0  0  0  0  0  0  0  0  0  0  0  0
   13.3983   -3.0101   -0.6228 C   0  0  0  0  0  0  0  0  0  0  0  0
   12.5529   -3.1696   -1.5050 O   0  0  0  0  0  0  0  0  0  0  0  0
   13.1463   -2.6695    0.6843 N   0  0  0  0  0  0  0  0  0  0  0  0
   11.8803   -2.5773    1.2264 C   0  0  0  0  0  0  0  0  0  0  0  0
   11.5421   -3.3340    2.3446 C   0  0  0  0  0  0  0  0  0  0  0  0
   12.3061   -3.9578    2.7997 H   0  0  0  0  0  0  0  0  0  0  0  0
   10.2467   -3.2581    2.8549 C   0  0  0  0  0  0  0  0  0  0  0  0
    9.9849   -3.8131    3.7464 H   0  0  0  0  0  0  0  0  0  0  0  0
    9.3211   -2.3972    2.2512 C   0  0  0  0  0  0  0  0  0  0  0  0
    8.0670   -2.1518    2.7814 N   0  0  0  0  0  0  0  0  0  0  0  0
    7.9351   -0.7259    3.1333 C   0  0  0  0  0  0  0  0  0  0  0  0
    8.8405   -0.3639    3.6156 H   0  0  0  0  0  0  0  0  0  0  0  0
    7.7793   -0.1290    2.2273 H   0  0  0  0  0  0  0  0  0  0  0  0
    7.1420   -0.5284    3.8454 H   0  0  0  0  0  0  0  0  0  0  0  0
    7.3743   -3.2444    3.5031 C   0  0  0  0  0  0  0  0  0  0  0  0
    6.3346   -2.9842    3.7463 H   0  0  0  0  0  0  0  0  0  0  0  0
    7.9314   -3.4527    4.4209 H   0  0  0  0  0  0  0  0  0  0  0  0
    7.3467   -4.1622    2.8990 H   0  0  0  0  0  0  0  0  0  0  0  0
    9.6918   -1.6211    1.1555 C   0  0  0  0  0  0  0  0  0  0  0  0
    8.9845   -0.9062    0.7534 H   0  0  0  0  0  0  0  0  0  0  0  0
   10.9667   -1.7213    0.6281 C   0  0  0  0  0  0  0  0  0  0  0  0
   11.2792   -1.1096   -0.2126 H   0  0  0  0  0  0  0  0  0  0  0  0
   14.3299   -2.6678    1.3850 C   0  0  0  0  0  0  0  0  0  0  0  0
   14.4643   -2.4595    2.7318 N   0  0  0  0  0  0  0  0  0  0  0  0
   13.6633   -2.0715    3.2295 H   0  0  0  0  0  0  0  0  0  0  0  0
   15.3998   -2.2651    3.0849 H   0  0  0  0  0  0  0  0  0  0  0  0
   15.3396   -2.8952    0.6122 N   0  0  0  0  0  4  0  0  0  0  0  0
   16.2933   -3.0299    0.9543 H   0  0  0  0  0  0  0  0  0  0  0  0
   15.3395   -0.8397   -1.4908 C   0  0  0  0  0  0  0  0  0  0  0  0
   14.8943   -0.5091   -0.5558 H   0  0  0  0  0  0  0  0  0  0  0  0
   15.4805    1.9974   -0.7921 C   0  0  0  0  0  0  0  0  0  0  0  0
   15.3705    1.2818    0.0172 H   0  0  0  0  0  0  0  0  0  0  0  0
   15.4086    3.3668   -0.5551 C   0  0  0  0  0  0  0  0  0  0  0  0
   15.2166    3.7401    0.4432 H   0  0  0  0  0  0  0  0  0  0  0  0
  1  2  1  0
  2  3  2  0
  3  4  1  0
  4  5  1  0
  4  6  2  0
  6  7  1  0
  7  8  2  0
  8  9  1  0
  8 10  1  0
 10 11  1  0
 10 12  2  0
 12 13  1  0
 12 14  1  0
 15 14  1  6
 15 16  1  0
 16 17  2  0
 17 18  1  0
 17 19  1  0
 19 20  1  0
 19 21  2  0
 21 22  1  0
 21 23  1  0
 23 24  1  0
 23 25  2  0
 25 26  1  0
 15 27  1  0
 27 28  2  0
 27 29  1  0
 29 30  1  0
 30 31  2  0
 31 32  1  0
 31 33  1  0
 33 34  1  0
 33 35  2  0
 35 36  1  0
 36 37  1  0
 37 38  1  0
 37 39  1  0
 37 40  1  0
 36 41  1  0
 41 42  1  0
 41 43  1  0
 41 44  1  0
 35 45  1  0
 45 46  1  0
 45 47  2  0
 47 48  1  0
 29 49  1  0
 49 50  1  0
 50 51  1  0
 50 52  1  0
 49 53  2  0
 53 54  1  0
 14 55  2  0
 55 56  1  0
  6 57  1  0
 57 58  1  0
 57 59  2  0
 59 60  1  0
 59  2  1  0
 55  7  1  0
 53 15  1  0
 25 16  1  0
 47 30  1  0
M  CHG  1  53   1
M  END
>  <score>  (349) 
5.45

$$$$

     RDKit          3D

 60 64  0  0  0  0  0  0  0  0999 V2000
   15.5665    5.3396   -1.4088 H   0  0  0  0  0  0  0  0  0  0  0  0
   15.6524    4.2762   -1.6104 C   0  0  0  0  0  0  0  0  0  0  0  0
   15.8940    3.8735   -2.8670 N   0  0  0  0  0  0  0  0  0  0  0  0
   16.0013    2.5527   -3.1046 C   0  0  0  0  0  0  0  0  0  0  0  0
   16.1847    2.2291   -4.1252 H   0  0  0  0  0  0  0  0  0  0  0  0
   15.8701    1.5776   -2.1016 C   0  0  0  0  0  0  0  0  0  0  0  0
   15.9759    0.1422   -2.4096 C   0  0  0  0  0  0  0  0  0  0  0  0
   16.4182   -0.3021   -3.6637 C   0  0  0  0  0  0  0  0  0  0  0  0
   16.7056    0.4217   -4.4191 H   0  0  0  0  0  0  0  0  0  0  0  0
   16.4794   -1.6699   -3.9517 C   0  0  0  0  0  0  0  0  0  0  0  0
   16.8166   -2.0020   -4.9281 H   0  0  0  0  0  0  0  0  0  0  0  0
   16.0844   -2.6083   -2.9926 C   0  0  0  0  0  0  0  0  0  0  0  0
   16.0963   -3.6677   -3.2293 H   0  0  0  0  0  0  0  0  0  0  0  0
   15.6410   -2.1917   -1.7295 C   0  0  0  0  0  0  0  0  0  0  0  0
   15.0507   -3.1724   -0.7290 C   0  0  2  0  0  0  0  0  0  0  0  0
   15.3699   -4.6353   -1.0189 C   0  0  0  0  0  0  0  0  0  0  0  0
   16.5709   -5.2131   -0.5791 C   0  0  0  0  0  0  0  0  0  0  0  0
   17.2934   -4.6073   -0.0382 H   0  0  0  0  0  0  0  0  0  0  0  0
   16.8471   -6.5632   -0.8245 C   0  0  0  0  0  0  0  0  0  0  0  0
   17.7771   -6.9968   -0.4722 H   0  0  0  0  0  0  0  0  0  0  0  0
   15.9271   -7.3543   -1.5204 C   0  0  0  0  0  0  0  0  0  0  0  0
   16.1380   -8.4041   -1.7030 H   0  0  0  0  0  0  0  0  0  0  0  0
   14.7340   -6.7893   -1.9767 C   0  0  0  0  0  0  0  0  0  0  0  0
   14.0216   -7.4009   -2.5223 H   0  0  0  0  0  0  0  0  0  0  0  0
   14.4578   -5.4396   -1.7295 C   0  0  0  0  0  0  0  0  0  0  0  0
   13.5271   -5.0140   -2.0916 H   0  0  0  0  0  0  0  0  0  0  0  0
   13.5346   -2.9184   -0.6649 C   0  0  0  0  0  0  0  0  0  0  0  0
   12.7260   -2.9666   -1.5870 O   0  0  0  0  0  0  0  0  0  0  0  0
   13.1785   -2.5138    0.5950 N   0  0  0  0  0  0  0  0  0  0  0  0
   11.8299   -2.6679    1.0686 C   0  0  0  0  0  0  0  0  0  0  0  0
   11.7376   -2.3647    2.1219 H   0  0  0  0  0  0  0  0  0  0  0  0
   11.1450   -2.0338    0.4880 H   0  0  0  0  0  0  0  0  0  0  0  0
   11.4933   -4.0916    0.8943 N   0  0  0  0  0  0  0  0  0  0  0  0
   11.1991   -4.8093    2.0759 C   0  0  0  0  0  0  0  0  0  0  0  0
   10.3648   -5.9430    2.1095 C   0  0  0  0  0  0  0  0  0  0  0  0
   10.0058   -6.3596    1.1732 H   0  0  0  0  0  0  0  0  0  0  0  0
   10.0136   -6.5297    3.3407 C   0  0  0  0  0  0  0  0  0  0  0  0
    9.3801   -7.4130    3.3736 H   0  0  0  0  0  0  0  0  0  0  0  0
   10.4896   -5.9853    4.5434 C   0  0  0  0  0  0  0  0  0  0  0  0
   10.2113   -6.4224    5.4950 H   0  0  0  0  0  0  0  0  0  0  0  0
   11.3910   -4.9171    4.5172 C   0  0  0  0  0  0  0  0  0  0  0  0
   11.8481   -4.5530    5.4339 H   0  0  0  0  0  0  0  0  0  0  0  0
   11.7420   -4.3477    3.2900 C   0  0  0  0  0  0  0  0  0  0  0  0
   12.4470   -3.5224    3.2588 H   0  0  0  0  0  0  0  0  0  0  0  0
   11.0262   -4.5307   -0.4411 C   0  0  0  0  0  0  0  0  0  0  0  0
   10.1581   -5.1869   -0.3489 H   0  0  0  0  0  0  0  0  0  0  0  0
   11.8218   -5.0665   -0.9715 H   0  0  0  0  0  0  0  0  0  0  0  0
   10.7187   -3.6755   -1.0568 H   0  0  0  0  0  0  0  0  0  0  0  0
   14.3141   -2.5842    1.3631 C   0  0  0  0  0  0  0  0  0  0  0  0
   14.3894   -2.4314    2.7138 N   0  0  0  0  0  0  0  0  0  0  0  0
   15.3231   -2.3133    3.1090 H   0  0  0  0  0  0  0  0  0  0  0  0
   13.6101   -1.9801    3.1825 H   0  0  0  0  0  0  0  0  0  0  0  0
   15.3768   -2.8425    0.6746 N   0  0  0  0  0  4  0  0  0  0  0  0
   16.2946   -2.9981    1.0968 H   0  0  0  0  0  0  0  0  0  0  0  0
   15.5997   -0.8146   -1.4565 C   0  0  0  0  0  0  0  0  0  0  0  0
   15.2313   -0.4732   -0.4938 H   0  0  0  0  0  0  0  0  0  0  0  0
   15.6173    2.0076   -0.7964 C   0  0  0  0  0  0  0  0  0  0  0  0
   15.5144    1.2885    0.0128 H   0  0  0  0  0  0  0  0  0  0  0  0
   15.5066    3.3731   -0.5557 C   0  0  0  0  0  0  0  0  0  0  0  0
   15.3096    3.7385    0.4440 H   0  0  0  0  0  0  0  0  0  0  0  0
  1  2  1  0
  2  3  2  0
  3  4  1  0
  4  5  1  0
  4  6  2  0
  6  7  1  0
  7  8  2  0
  8  9  1  0
  8 10  1  0
 10 11  1  0
 10 12  2  0
 12 13  1  0
 12 14  1  0
 15 14  1  6
 15 16  1  0
 16 17  2  0
 17 18  1  0
 17 19  1  0
 19 20  1  0
 19 21  2  0
 21 22  1  0
 21 23  1  0
 23 24  1  0
 23 25  2  0
 25 26  1  0
 15 27  1  0
 27 28  2  0
 27 29  1  0
 29 30  1  0
 30 31  1  0
 30 32  1  0
 30 33  1  0
 33 34  1  0
 34 35  2  0
 35 36  1  0
 35 37  1  0
 37 38  1  0
 37 39  2  0
 39 40  1  0
 39 41  1  0
 41 42  1  0
 41 43  2  0
 43 44  1  0
 33 45  1  0
 45 46  1  0
 45 47  1  0
 45 48  1  0
 29 49  1  0
 49 50  1  0
 50 51  1  0
 50 52  1  0
 49 53  2  0
 53 54  1  0
 14 55  2  0
 55 56  1  0
  6 57  1  0
 57 58  1  0
 57 59  2  0
 59 60  1  0
 59  2  1  0
 55  7  1  0
 53 15  1  0
 25 16  1  0
 43 34  1  0
M  CHG  1  53   1
M  END
>  <score>  (350) 
5.4491

$$$$

     RDKit          3D

 56 60  0  0  0  0  0  0  0  0999 V2000
   15.5686    5.3708   -1.3882 H   0  0  0  0  0  0  0  0  0  0  0  0
   15.5855    4.3017   -1.5966 C   0  0  0  0  0  0  0  0  0  0  0  0
   15.8200    3.8803   -2.8494 N   0  0  0  0  0  0  0  0  0  0  0  0
   15.8653    2.5526   -3.0871 C   0  0  0  0  0  0  0  0  0  0  0  0
   16.0446    2.2273   -4.1056 H   0  0  0  0  0  0  0  0  0  0  0  0
   15.6853    1.5710   -2.0959 C   0  0  0  0  0  0  0  0  0  0  0  0
   15.7743    0.1207   -2.4108 C   0  0  0  0  0  0  0  0  0  0  0  0
   16.3440   -0.3211   -3.6137 C   0  0  0  0  0  0  0  0  0  0  0  0
   16.7273    0.4050   -4.3225 H   0  0  0  0  0  0  0  0  0  0  0  0
   16.4324   -1.6881   -3.9111 C   0  0  0  0  0  0  0  0  0  0  0  0
   16.8653   -2.0082   -4.8534 H   0  0  0  0  0  0  0  0  0  0  0  0
   15.9483   -2.6434   -3.0095 C   0  0  0  0  0  0  0  0  0  0  0  0
   16.0052   -3.7009   -3.2601 H   0  0  0  0  0  0  0  0  0  0  0  0
   15.3844   -2.2406   -1.7888 C   0  0  0  0  0  0  0  0  0  0  0  0
   14.8178   -3.2466   -0.7897 C   0  0  2  0  0  0  0  0  0  0  0  0
   15.1740   -4.7163   -1.0751 C   0  0  0  0  0  0  0  0  0  0  0  0
   16.3908   -5.2398   -0.6069 C   0  0  0  0  0  0  0  0  0  0  0  0
   17.0700   -4.5882   -0.0658 H   0  0  0  0  0  0  0  0  0  0  0  0
   16.7308   -6.5825   -0.8021 C   0  0  0  0  0  0  0  0  0  0  0  0
   17.6736   -6.9569   -0.4167 H   0  0  0  0  0  0  0  0  0  0  0  0
   15.8547   -7.4396   -1.4719 C   0  0  0  0  0  0  0  0  0  0  0  0
   16.1203   -8.4853   -1.6120 H   0  0  0  0  0  0  0  0  0  0  0  0
   14.6433   -6.9404   -1.9603 C   0  0  0  0  0  0  0  0  0  0  0  0
   13.9709   -7.6106   -2.4883 H   0  0  0  0  0  0  0  0  0  0  0  0
   14.3043   -5.5894   -1.7677 C   0  0  0  0  0  0  0  0  0  0  0  0
   13.3549   -5.2309   -2.1553 H   0  0  0  0  0  0  0  0  0  0  0  0
   13.3017   -3.0131   -0.6210 C   0  0  0  0  0  0  0  0  0  0  0  0
   12.4735   -3.1241   -1.5316 O   0  0  0  0  0  0  0  0  0  0  0  0
   13.0208   -2.6318    0.6910 N   0  0  0  0  0  0  0  0  0  0  0  0
   11.7147   -2.6540    1.3285 N   0  0  0  0  0  0  0  0  0  0  0  0
   11.5934   -1.9264    2.0456 H   0  0  0  0  0  0  0  0  0  0  0  0
   11.4164   -3.9630    1.9006 C   0  0  0  0  0  0  0  0  0  0  0  0
   12.0967   -4.1650    2.7368 H   0  0  0  0  0  0  0  0  0  0  0  0
   11.5825   -4.7356    1.1446 H   0  0  0  0  0  0  0  0  0  0  0  0
    9.9986   -3.9592    2.3610 C   0  0  0  0  0  0  0  0  0  0  0  0
    8.9652   -4.2986    1.4753 C   0  0  0  0  0  0  0  0  0  0  0  0
    9.2200   -4.5741    0.4603 H   0  0  0  0  0  0  0  0  0  0  0  0
    7.6692   -4.3247    1.8260 N   0  0  0  0  0  0  0  0  0  0  0  0
    7.3813   -4.0124    3.0964 C   0  0  0  0  0  0  0  0  0  0  0  0
    6.3475   -4.0216    3.4156 H   0  0  0  0  0  0  0  0  0  0  0  0
    8.3588   -3.6591    4.0302 C   0  0  0  0  0  0  0  0  0  0  0  0
    8.0769   -3.4191    5.0394 H   0  0  0  0  0  0  0  0  0  0  0  0
    9.6966   -3.6159    3.6724 C   0  0  0  0  0  0  0  0  0  0  0  0
   10.4793   -3.3344    4.3817 H   0  0  0  0  0  0  0  0  0  0  0  0
   14.2482   -2.6120    1.3538 C   0  0  0  0  0  0  0  0  0  0  0  0
   14.4252   -2.3491    2.6911 N   0  0  0  0  0  0  0  0  0  0  0  0
   13.6128   -2.1299    3.2647 H   0  0  0  0  0  0  0  0  0  0  0  0
   15.3609   -2.3545    3.0992 H   0  0  0  0  0  0  0  0  0  0  0  0
   15.2466   -2.8916    0.5815 N   0  0  0  0  0  4  0  0  0  0  0  0
   16.2191   -2.9215    0.8963 H   0  0  0  0  0  0  0  0  0  0  0  0
   15.3044   -0.8560   -1.5143 C   0  0  0  0  0  0  0  0  0  0  0  0
   14.8672   -0.5289   -0.5775 H   0  0  0  0  0  0  0  0  0  0  0  0
   15.4315    2.0249   -0.7974 C   0  0  0  0  0  0  0  0  0  0  0  0
   15.2979    1.3113    0.0068 H   0  0  0  0  0  0  0  0  0  0  0  0
   15.3722    3.4011   -0.5506 C   0  0  0  0  0  0  0  0  0  0  0  0
   15.1682    3.7868    0.4433 H   0  0  0  0  0  0  0  0  0  0  0  0
  1  2  1  0
  2  3  2  0
  3  4  1  0
  4  5  1  0
  4  6  2  0
  6  7  1  0
  7  8  2  0
  8  9  1  0
  8 10  1  0
 10 11  1  0
 10 12  2  0
 12 13  1  0
 12 14  1  0
 15 14  1  6
 15 16  1  0
 16 17  2  0
 17 18  1  0
 17 19  1  0
 19 20  1  0
 19 21  2  0
 21 22  1  0
 21 23  1  0
 23 24  1  0
 23 25  2  0
 25 26  1  0
 15 27  1  0
 27 28  2  0
 27 29  1  0
 29 30  1  0
 30 31  1  0
 30 32  1  0
 32 33  1  0
 32 34  1  0
 32 35  1  0
 35 36  2  0
 36 37  1  0
 36 38  1  0
 38 39  2  0
 39 40  1  0
 39 41  1  0
 41 42  1  0
 41 43  2  0
 43 44  1  0
 29 45  1  0
 45 46  1  0
 46 47  1  0
 46 48  1  0
 45 49  2  0
 49 50  1  0
 14 51  2  0
 51 52  1  0
  6 53  1  0
 53 54  1  0
 53 55  2  0
 55 56  1  0
 55  2  1  0
 51  7  1  0
 49 15  1  0
 25 16  1  0
 43 35  1  0
M  CHG  1  49   1
M  END
>  <score>  (351) 
5.44864

$$$$

     RDKit          3D

 54 58  0  0  0  0  0  0  0  0999 V2000
   15.5588    5.3585   -1.3921 H   0  0  0  0  0  0  0  0  0  0  0  0
   15.5869    4.2910   -1.6023 C   0  0  0  0  0  0  0  0  0  0  0  0
   15.8208    3.8732   -2.8564 N   0  0  0  0  0  0  0  0  0  0  0  0
   15.8743    2.5461   -3.0916 C   0  0  0  0  0  0  0  0  0  0  0  0
   16.0618    2.2108   -4.1055 H   0  0  0  0  0  0  0  0  0  0  0  0
   15.6923    1.5697   -2.0974 C   0  0  0  0  0  0  0  0  0  0  0  0
   15.7746    0.1220   -2.4081 C   0  0  0  0  0  0  0  0  0  0  0  0
   16.3344   -0.3190   -3.6123 C   0  0  0  0  0  0  0  0  0  0  0  0
   16.7167    0.4204   -4.3082 H   0  0  0  0  0  0  0  0  0  0  0  0
   16.4259   -1.6865   -3.9062 C   0  0  0  0  0  0  0  0  0  0  0  0
   16.8648   -2.0039   -4.8461 H   0  0  0  0  0  0  0  0  0  0  0  0
   15.9432   -2.6379   -2.9979 C   0  0  0  0  0  0  0  0  0  0  0  0
   16.0002   -3.6970   -3.2405 H   0  0  0  0  0  0  0  0  0  0  0  0
   15.3776   -2.2319   -1.7779 C   0  0  0  0  0  0  0  0  0  0  0  0
   14.8077   -3.2372   -0.7771 C   0  0  2  0  0  0  0  0  0  0  0  0
   15.1707   -4.7017   -1.0698 C   0  0  0  0  0  0  0  0  0  0  0  0
   16.3909   -5.2257   -0.6049 C   0  0  0  0  0  0  0  0  0  0  0  0
   17.0712   -4.5778   -0.0601 H   0  0  0  0  0  0  0  0  0  0  0  0
   16.7327   -6.5700   -0.8034 C   0  0  0  0  0  0  0  0  0  0  0  0
   17.6713   -6.9553   -0.4145 H   0  0  0  0  0  0  0  0  0  0  0  0
   15.8571   -7.4237   -1.4777 C   0  0  0  0  0  0  0  0  0  0  0  0
   16.1105   -8.4724   -1.6133 H   0  0  0  0  0  0  0  0  0  0  0  0
   14.6452   -6.9234   -1.9636 C   0  0  0  0  0  0  0  0  0  0  0  0
   13.9662   -7.5909   -2.4873 H   0  0  0  0  0  0  0  0  0  0  0  0
   14.3059   -5.5730   -1.7650 C   0  0  0  0  0  0  0  0  0  0  0  0
   13.3539   -5.2076   -2.1382 H   0  0  0  0  0  0  0  0  0  0  0  0
   13.2913   -3.0070   -0.6147 C   0  0  0  0  0  0  0  0  0  0  0  0
   12.4508   -3.1043   -1.5044 O   0  0  0  0  0  0  0  0  0  0  0  0
   13.0079   -2.6901    0.7043 N   0  0  0  0  0  0  0  0  0  0  0  0
   11.7304   -2.4808    1.2582 C   0  0  0  0  0  0  0  0  0  0  0  0
   11.3033   -3.1763    2.4113 C   0  0  0  0  0  0  0  0  0  0  0  0
   11.9644   -3.8910    2.8856 H   0  0  0  0  0  0  0  0  0  0  0  0
   10.0897   -3.0397    2.9450 N   0  0  0  0  0  0  0  0  0  0  0  0
    9.2588   -2.1829    2.3689 C   0  0  0  0  0  0  0  0  0  0  0  0
    7.9044   -2.1564    2.9259 C   0  0  0  0  0  0  0  0  0  0  0  0
    7.2310   -2.5736    2.1751 H   0  0  0  0  0  0  0  0  0  0  0  0
    7.6440   -1.1286    3.1834 H   0  0  0  0  0  0  0  0  0  0  0  0
    7.8844   -2.7823    3.8261 H   0  0  0  0  0  0  0  0  0  0  0  0
    9.5856   -1.4263    1.2412 C   0  0  0  0  0  0  0  0  0  0  0  0
    8.8487   -0.7464    0.8360 H   0  0  0  0  0  0  0  0  0  0  0  0
   10.8460   -1.5777    0.6596 C   0  0  0  0  0  0  0  0  0  0  0  0
   11.1490   -1.0089   -0.2204 H   0  0  0  0  0  0  0  0  0  0  0  0
   14.2167   -2.6515    1.3779 C   0  0  0  0  0  0  0  0  0  0  0  0
   14.4048   -2.3571    2.6972 N   0  0  0  0  0  0  0  0  0  0  0  0
   13.6174   -2.0441    3.2642 H   0  0  0  0  0  0  0  0  0  0  0  0
   15.3517   -2.3604    3.0800 H   0  0  0  0  0  0  0  0  0  0  0  0
   15.2207   -2.9119    0.6050 N   0  0  0  0  0  4  0  0  0  0  0  0
   16.1892   -2.9359    0.9276 H   0  0  0  0  0  0  0  0  0  0  0  0
   15.3052   -0.8481   -1.5045 C   0  0  0  0  0  0  0  0  0  0  0  0
   14.8646   -0.5146   -0.5708 H   0  0  0  0  0  0  0  0  0  0  0  0
   15.4407    2.0161   -0.7997 C   0  0  0  0  0  0  0  0  0  0  0  0
   15.3229    1.2851   -0.0065 H   0  0  0  0  0  0  0  0  0  0  0  0
   15.3801    3.3913   -0.5540 C   0  0  0  0  0  0  0  0  0  0  0  0
   15.1766    3.7776    0.4383 H   0  0  0  0  0  0  0  0  0  0  0  0
  1  2  1  0
  2  3  2  0
  3  4  1  0
  4  5  1  0
  4  6  2  0
  6  7  1  0
  7  8  2  0
  8  9  1  0
  8 10  1  0
 10 11  1  0
 10 12  2  0
 12 13  1  0
 12 14  1  0
 15 14  1  6
 15 16  1  0
 16 17  2  0
 17 18  1  0
 17 19  1  0
 19 20  1  0
 19 21  2  0
 21 22  1  0
 21 23  1  0
 23 24  1  0
 23 25  2  0
 25 26  1  0
 15 27  1  0
 27 28  2  0
 27 29  1  0
 29 30  1  0
 30 31  2  0
 31 32  1  0
 31 33  1  0
 33 34  2  0
 34 35  1  0
 35 36  1  0
 35 37  1  0
 35 38  1  0
 34 39  1  0
 39 40  1  0
 39 41  2  0
 41 42  1  0
 29 43  1  0
 43 44  1  0
 44 45  1  0
 44 46  1  0
 43 47  2  0
 47 48  1  0
 14 49  2  0
 49 50  1  0
  6 51  1  0
 51 52  1  0
 51 53  2  0
 53 54  1  0
 53  2  1  0
 49  7  1  0
 47 15  1  0
 25 16  1  0
 41 30  1  0
M  CHG  1  47   1
M  END
>  <score>  (352) 
5.44856

$$$$

     RDKit          3D

 49 53  0  0  0  0  0  0  0  0999 V2000
   15.5567    5.3577   -1.3918 H   0  0  0  0  0  0  0  0  0  0  0  0
   15.5864    4.2896   -1.6039 C   0  0  0  0  0  0  0  0  0  0  0  0
   15.8198    3.8711   -2.8586 N   0  0  0  0  0  0  0  0  0  0  0  0
   15.8768    2.5436   -3.0924 C   0  0  0  0  0  0  0  0  0  0  0  0
   16.0674    2.2030   -4.1038 H   0  0  0  0  0  0  0  0  0  0  0  0
   15.6949    1.5683   -2.0986 C   0  0  0  0  0  0  0  0  0  0  0  0
   15.7726    0.1221   -2.4069 C   0  0  0  0  0  0  0  0  0  0  0  0
   16.3319   -0.3182   -3.6098 C   0  0  0  0  0  0  0  0  0  0  0  0
   16.7119    0.4267   -4.3013 H   0  0  0  0  0  0  0  0  0  0  0  0
   16.4247   -1.6858   -3.9016 C   0  0  0  0  0  0  0  0  0  0  0  0
   16.8619   -2.0049   -4.8410 H   0  0  0  0  0  0  0  0  0  0  0  0
   15.9398   -2.6368   -2.9943 C   0  0  0  0  0  0  0  0  0  0  0  0
   15.9962   -3.6965   -3.2342 H   0  0  0  0  0  0  0  0  0  0  0  0
   15.3723   -2.2297   -1.7750 C   0  0  0  0  0  0  0  0  0  0  0  0
   14.8043   -3.2375   -0.7720 C   0  0  2  0  0  0  0  0  0  0  0  0
   15.1726   -4.7000   -1.0704 C   0  0  0  0  0  0  0  0  0  0  0  0
   16.3920   -5.2231   -0.6047 C   0  0  0  0  0  0  0  0  0  0  0  0
   17.0677   -4.5720   -0.0578 H   0  0  0  0  0  0  0  0  0  0  0  0
   16.7331   -6.5667   -0.8053 C   0  0  0  0  0  0  0  0  0  0  0  0
   17.6685   -6.9544   -0.4143 H   0  0  0  0  0  0  0  0  0  0  0  0
   15.8563   -7.4194   -1.4793 C   0  0  0  0  0  0  0  0  0  0  0  0
   16.1081   -8.4688   -1.6138 H   0  0  0  0  0  0  0  0  0  0  0  0
   14.6447   -6.9193   -1.9641 C   0  0  0  0  0  0  0  0  0  0  0  0
   13.9662   -7.5868   -2.4877 H   0  0  0  0  0  0  0  0  0  0  0  0
   14.3052   -5.5695   -1.7644 C   0  0  0  0  0  0  0  0  0  0  0  0
   13.3525   -5.2006   -2.1327 H   0  0  0  0  0  0  0  0  0  0  0  0
   13.2845   -3.0180   -0.5946 C   0  0  0  0  0  0  0  0  0  0  0  0
   12.4414   -3.1177   -1.4829 O   0  0  0  0  0  0  0  0  0  0  0  0
   13.0037   -2.7136    0.7180 N   0  0  0  0  0  0  0  0  0  0  0  0
   11.7330   -2.5594    1.2625 C   0  0  0  0  0  0  0  0  0  0  0  0
   11.3523   -3.1338    2.4342 C   0  0  0  0  0  0  0  0  0  0  0  0
   12.0234   -3.7419    3.0243 H   0  0  0  0  0  0  0  0  0  0  0  0
    9.6830   -2.7924    2.8522 S   0  0  0  0  0  0  0  0  0  0  0  0
    9.5209   -1.8464    1.3812 C   0  0  0  0  0  0  0  0  0  0  0  0
    8.6175   -1.3251    1.1064 H   0  0  0  0  0  0  0  0  0  0  0  0
   10.6733   -1.8043    0.6457 C   0  0  0  0  0  0  0  0  0  0  0  0
   10.8055   -1.2372   -0.2662 H   0  0  0  0  0  0  0  0  0  0  0  0
   14.2107   -2.6712    1.3888 C   0  0  0  0  0  0  0  0  0  0  0  0
   14.4054   -2.3779    2.7117 N   0  0  0  0  0  0  0  0  0  0  0  0
   15.3550   -2.3513    3.0886 H   0  0  0  0  0  0  0  0  0  0  0  0
   13.6245   -2.0197    3.2606 H   0  0  0  0  0  0  0  0  0  0  0  0
   15.2210   -2.9171    0.6124 N   0  0  0  0  0  4  0  0  0  0  0  0
   16.1942   -2.9385    0.9301 H   0  0  0  0  0  0  0  0  0  0  0  0
   15.3014   -0.8454   -1.5026 C   0  0  0  0  0  0  0  0  0  0  0  0
   14.8658   -0.5053   -0.5688 H   0  0  0  0  0  0  0  0  0  0  0  0
   15.4462    2.0124   -0.8010 C   0  0  0  0  0  0  0  0  0  0  0  0
   15.3306    1.2750   -0.0130 H   0  0  0  0  0  0  0  0  0  0  0  0
   15.3834    3.3884   -0.5550 C   0  0  0  0  0  0  0  0  0  0  0  0
   15.1771    3.7770    0.4364 H   0  0  0  0  0  0  0  0  0  0  0  0
  1  2  1  0
  2  3  2  0
  3  4  1  0
  4  5  1  0
  4  6  2  0
  6  7  1  0
  7  8  2  0
  8  9  1  0
  8 10  1  0
 10 11  1  0
 10 12  2  0
 12 13  1  0
 12 14  1  0
 15 14  1  6
 15 16  1  0
 16 17  2  0
 17 18  1  0
 17 19  1  0
 19 20  1  0
 19 21  2  0
 21 22  1  0
 21 23  1  0
 23 24  1  0
 23 25  2  0
 25 26  1  0
 15 27  1  0
 27 28  2  0
 27 29  1  0
 29 30  1  0
 30 31  2  0
 31 32  1  0
 31 33  1  0
 33 34  1  0
 34 35  1  0
 34 36  2  0
 36 37  1  0
 29 38  1  0
 38 39  1  0
 39 40  1  0
 39 41  1  0
 38 42  2  0
 42 43  1  0
 14 44  2  0
 44 45  1  0
  6 46  1  0
 46 47  1  0
 46 48  2  0
 48 49  1  0
 48  2  1  0
 44  7  1  0
 42 15  1  0
 25 16  1  0
 36 30  1  0
M  CHG  1  42   1
M  END
>  <score>  (353) 
5.44476

$$$$

     RDKit          3D

 55 60  0  0  0  0  0  0  0  0999 V2000
   15.5201    5.3266   -1.4167 H   0  0  0  0  0  0  0  0  0  0  0  0
   15.5955    4.2612   -1.6122 C   0  0  0  0  0  0  0  0  0  0  0  0
   15.8455    3.8514   -2.8651 N   0  0  0  0  0  0  0  0  0  0  0  0
   15.9284    2.5286   -3.0980 C   0  0  0  0  0  0  0  0  0  0  0  0
   16.1262    2.1970   -4.1127 H   0  0  0  0  0  0  0  0  0  0  0  0
   15.7590    1.5575   -2.0988 C   0  0  0  0  0  0  0  0  0  0  0  0
   15.8408    0.1232   -2.4158 C   0  0  0  0  0  0  0  0  0  0  0  0
   16.3597   -0.3134   -3.6418 C   0  0  0  0  0  0  0  0  0  0  0  0
   16.7068    0.4179   -4.3644 H   0  0  0  0  0  0  0  0  0  0  0  0
   16.4398   -1.6783   -3.9342 C   0  0  0  0  0  0  0  0  0  0  0  0
   16.8422   -1.9972   -4.8895 H   0  0  0  0  0  0  0  0  0  0  0  0
   15.9984   -2.6229   -3.0019 C   0  0  0  0  0  0  0  0  0  0  0  0
   16.0539   -3.6811   -3.2365 H   0  0  0  0  0  0  0  0  0  0  0  0
   15.4709   -2.2116   -1.7690 C   0  0  0  0  0  0  0  0  0  0  0  0
   14.9135   -3.1969   -0.7596 C   0  0  2  0  0  0  0  0  0  0  0  0
   15.2554   -4.6519   -1.0497 C   0  0  0  0  0  0  0  0  0  0  0  0
   16.4701   -5.2020   -0.6032 C   0  0  0  0  0  0  0  0  0  0  0  0
   17.1819   -4.5776   -0.0693 H   0  0  0  0  0  0  0  0  0  0  0  0
   16.7650   -6.5509   -0.8178 C   0  0  0  0  0  0  0  0  0  0  0  0
   17.6966   -6.9641   -0.4438 H   0  0  0  0  0  0  0  0  0  0  0  0
   15.8562   -7.3654   -1.4999 C   0  0  0  0  0  0  0  0  0  0  0  0
   16.0762   -8.4167   -1.6583 H   0  0  0  0  0  0  0  0  0  0  0  0
   14.6540   -6.8244   -1.9678 C   0  0  0  0  0  0  0  0  0  0  0  0
   13.9413   -7.4501   -2.4948 H   0  0  0  0  0  0  0  0  0  0  0  0
   14.3561   -5.4761   -1.7454 C   0  0  0  0  0  0  0  0  0  0  0  0
   13.4162   -5.0674   -2.1061 H   0  0  0  0  0  0  0  0  0  0  0  0
   13.4019   -2.9259   -0.5843 C   0  0  0  0  0  0  0  0  0  0  0  0
   12.5015   -3.2029   -1.3748 O   0  0  0  0  0  0  0  0  0  0  0  0
   13.1909   -2.4380    0.6730 N   0  0  0  0  0  0  0  0  0  0  0  0
   11.9632   -2.4761    1.2723 C   0  0  0  0  0  0  0  0  0  0  0  0
   10.8172   -2.1890    0.7129 N   0  0  0  0  0  0  0  0  0  0  0  0
    9.8526   -2.4853    1.6889 C   0  0  0  0  0  0  0  0  0  0  0  0
    8.4538   -2.4814    1.6309 C   0  0  0  0  0  0  0  0  0  0  0  0
    7.9890   -2.1213    0.7189 H   0  0  0  0  0  0  0  0  0  0  0  0
    7.7117   -3.0119    2.7201 C   0  0  0  0  0  0  0  0  0  0  0  0
    6.6265   -3.0630    2.6777 H   0  0  0  0  0  0  0  0  0  0  0  0
    8.3726   -3.4950    3.8677 C   0  0  0  0  0  0  0  0  0  0  0  0
    7.8388   -3.9153    4.7189 H   0  0  0  0  0  0  0  0  0  0  0  0
    9.7689   -3.4558    3.9189 C   0  0  0  0  0  0  0  0  0  0  0  0
   10.3257   -3.8314    4.7651 H   0  0  0  0  0  0  0  0  0  0  0  0
   10.4699   -2.9693    2.8288 C   0  0  0  0  0  0  0  0  0  0  0  0
   11.8015   -2.9089    2.5552 N   0  0  0  0  0  0  0  0  0  0  0  0
   12.5458   -3.2794    3.1296 H   0  0  0  0  0  0  0  0  0  0  0  0
   14.3620   -2.5520    1.3635 C   0  0  0  0  0  0  0  0  0  0  0  0
   14.4806   -2.4157    2.7146 N   0  0  0  0  0  0  0  0  0  0  0  0
   13.6928   -1.9989    3.2066 H   0  0  0  0  0  0  0  0  0  0  0  0
   15.4201   -2.2515    3.0717 H   0  0  0  0  0  0  0  0  0  0  0  0
   15.3583   -2.8667    0.6094 N   0  0  0  0  0  4  0  0  0  0  0  0
   16.2769   -3.1220    0.9753 H   0  0  0  0  0  0  0  0  0  0  0  0
   15.3898   -0.8354   -1.4989 C   0  0  0  0  0  0  0  0  0  0  0  0
   14.9538   -0.5013   -0.5609 H   0  0  0  0  0  0  0  0  0  0  0  0
   15.5126    1.9938   -0.7948 C   0  0  0  0  0  0  0  0  0  0  0  0
   15.4072    1.2763    0.0142 H   0  0  0  0  0  0  0  0  0  0  0  0
   15.4280    3.3631   -0.5556 C   0  0  0  0  0  0  0  0  0  0  0  0
   15.2371    3.7363    0.4430 H   0  0  0  0  0  0  0  0  0  0  0  0
  1  2  1  0
  2  3  2  0
  3  4  1  0
  4  5  1  0
  4  6  2  0
  6  7  1  0
  7  8  2  0
  8  9  1  0
  8 10  1  0
 10 11  1  0
 10 12  2  0
 12 13  1  0
 12 14  1  0
 15 14  1  6
 15 16  1  0
 16 17  2  0
 17 18  1  0
 17 19  1  0
 19 20  1  0
 19 21  2  0
 21 22  1  0
 21 23  1  0
 23 24  1  0
 23 25  2  0
 25 26  1  0
 15 27  1  0
 27 28  2  0
 27 29  1  0
 29 30  1  0
 30 31  2  0
 31 32  1  0
 32 33  2  0
 33 34  1  0
 33 35  1  0
 35 36  1  0
 35 37  2  0
 37 38  1  0
 37 39  1  0
 39 40  1  0
 39 41  2  0
 41 42  1  0
 42 43  1  0
 29 44  1  0
 44 45  1  0
 45 46  1  0
 45 47  1  0
 44 48  2  0
 48 49  1  0
 14 50  2  0
 50 51  1  0
  6 52  1  0
 52 53  1  0
 52 54  2  0
 54 55  1  0
 54  2  1  0
 50  7  1  0
 48 15  1  0
 25 16  1  0
 42 30  1  0
 41 32  1  0
M  CHG  1  48   1
M  END
>  <score>  (354) 
5.44376

$$$$

     RDKit          3D

 48 51  0  0  0  0  0  0  0  0999 V2000
   15.5361    5.3277   -1.4091 H   0  0  0  0  0  0  0  0  0  0  0  0
   15.5845    4.2626   -1.6133 C   0  0  0  0  0  0  0  0  0  0  0  0
   15.8345    3.8517   -2.8659 N   0  0  0  0  0  0  0  0  0  0  0  0
   15.8924    2.5272   -3.1002 C   0  0  0  0  0  0  0  0  0  0  0  0
   16.0947    2.1898   -4.1123 H   0  0  0  0  0  0  0  0  0  0  0  0
   15.7066    1.5586   -2.0991 C   0  0  0  0  0  0  0  0  0  0  0  0
   15.7815    0.1198   -2.3987 C   0  0  0  0  0  0  0  0  0  0  0  0
   16.3301   -0.3132   -3.6079 C   0  0  0  0  0  0  0  0  0  0  0  0
   16.6968    0.4327   -4.3056 H   0  0  0  0  0  0  0  0  0  0  0  0
   16.4137   -1.6777   -3.9047 C   0  0  0  0  0  0  0  0  0  0  0  0
   16.8563   -1.9976   -4.8429 H   0  0  0  0  0  0  0  0  0  0  0  0
   15.9487   -2.6254   -2.9835 C   0  0  0  0  0  0  0  0  0  0  0  0
   16.0076   -3.6833   -3.2204 H   0  0  0  0  0  0  0  0  0  0  0  0
   15.4135   -2.2249   -1.7495 C   0  0  0  0  0  0  0  0  0  0  0  0
   14.8607   -3.2355   -0.7495 C   0  0  2  0  0  0  0  0  0  0  0  0
   15.2118   -4.6913   -1.0576 C   0  0  0  0  0  0  0  0  0  0  0  0
   16.4273   -5.2258   -0.6043 C   0  0  0  0  0  0  0  0  0  0  0  0
   17.1077   -4.5816   -0.0561 H   0  0  0  0  0  0  0  0  0  0  0  0
   16.7491   -6.5725   -0.8056 C   0  0  0  0  0  0  0  0  0  0  0  0
   17.6822   -6.9667   -0.4124 H   0  0  0  0  0  0  0  0  0  0  0  0
   15.8593   -7.4076   -1.4886 C   0  0  0  0  0  0  0  0  0  0  0  0
   16.0977   -8.4589   -1.6255 H   0  0  0  0  0  0  0  0  0  0  0  0
   14.6518   -6.8895   -1.9708 C   0  0  0  0  0  0  0  0  0  0  0  0
   13.9554   -7.5463   -2.4856 H   0  0  0  0  0  0  0  0  0  0  0  0
   14.3282   -5.5402   -1.7547 C   0  0  0  0  0  0  0  0  0  0  0  0
   13.3736   -5.1605   -2.1081 H   0  0  0  0  0  0  0  0  0  0  0  0
   13.3469   -3.0054   -0.6047 C   0  0  0  0  0  0  0  0  0  0  0  0
   12.5248   -3.1282   -1.5101 O   0  0  0  0  0  0  0  0  0  0  0  0
   13.0446   -2.5885    0.6902 N   0  0  0  0  0  0  0  0  0  0  0  0
   11.7491   -2.1113    1.2041 N   0  0  0  0  0  0  0  0  0  0  0  0
   11.7315   -1.2389    1.7218 H   0  0  0  0  0  0  0  0  0  0  0  0
   10.4624   -2.5692    0.9540 C   0  0  0  0  0  0  0  0  0  0  0  0
   10.1639   -3.5733    0.3408 O   0  0  0  0  0  0  0  0  0  0  0  0
    9.4188   -1.8314    1.4210 N   0  0  0  0  0  0  0  0  0  0  0  0
    8.4962   -2.0954    1.0862 H   0  0  0  0  0  0  0  0  0  0  0  0
    9.6163   -0.8919    1.7454 H   0  0  0  0  0  0  0  0  0  0  0  0
   14.2685   -2.5636    1.3660 C   0  0  0  0  0  0  0  0  0  0  0  0
   14.4706   -2.2270    2.6791 N   0  0  0  0  0  0  0  0  0  0  0  0
   15.3964   -2.3654    3.0835 H   0  0  0  0  0  0  0  0  0  0  0  0
   13.6590   -2.1600    3.2903 H   0  0  0  0  0  0  0  0  0  0  0  0
   15.2781   -2.9066    0.6253 N   0  0  0  0  0  4  0  0  0  0  0  0
   16.2413   -3.0085    0.9562 H   0  0  0  0  0  0  0  0  0  0  0  0
   15.3193   -0.8429   -1.4855 C   0  0  0  0  0  0  0  0  0  0  0  0
   14.8730   -0.5009   -0.5567 H   0  0  0  0  0  0  0  0  0  0  0  0
   15.4674    1.9951   -0.7993 C   0  0  0  0  0  0  0  0  0  0  0  0
   15.3636    1.2595   -0.0074 H   0  0  0  0  0  0  0  0  0  0  0  0
   15.3937    3.3659   -0.5600 C   0  0  0  0  0  0  0  0  0  0  0  0
   15.2027    3.7486    0.4341 H   0  0  0  0  0  0  0  0  0  0  0  0
  1  2  1  0
  2  3  2  0
  3  4  1  0
  4  5  1  0
  4  6  2  0
  6  7  1  0
  7  8  2  0
  8  9  1  0
  8 10  1  0
 10 11  1  0
 10 12  2  0
 12 13  1  0
 12 14  1  0
 15 14  1  6
 15 16  1  0
 16 17  2  0
 17 18  1  0
 17 19  1  0
 19 20  1  0
 19 21  2  0
 21 22  1  0
 21 23  1  0
 23 24  1  0
 23 25  2  0
 25 26  1  0
 15 27  1  0
 27 28  2  0
 27 29  1  0
 29 30  1  0
 30 31  1  0
 30 32  1  0
 32 33  2  0
 32 34  1  0
 34 35  1  0
 34 36  1  0
 29 37  1  0
 37 38  1  0
 38 39  1  0
 38 40  1  0
 37 41  2  0
 41 42  1  0
 14 43  2  0
 43 44  1  0
  6 45  1  0
 45 46  1  0
 45 47  2  0
 47 48  1  0
 47  2  1  0
 43  7  1  0
 41 15  1  0
 25 16  1  0
M  CHG  1  41   1
M  END
>  <score>  (355) 
5.44032

$$$$

     RDKit          3D

 50 54  0  0  0  0  0  0  0  0999 V2000
   15.5307    5.3234   -1.4125 H   0  0  0  0  0  0  0  0  0  0  0  0
   15.5834    4.2590   -1.6154 C   0  0  0  0  0  0  0  0  0  0  0  0
   15.8392    3.8494   -2.8672 N   0  0  0  0  0  0  0  0  0  0  0  0
   15.8987    2.5254   -3.1018 C   0  0  0  0  0  0  0  0  0  0  0  0
   16.1019    2.1882   -4.1141 H   0  0  0  0  0  0  0  0  0  0  0  0
   15.7114    1.5589   -2.0980 C   0  0  0  0  0  0  0  0  0  0  0  0
   15.7753    0.1209   -2.3913 C   0  0  0  0  0  0  0  0  0  0  0  0
   16.3247   -0.3153   -3.5985 C   0  0  0  0  0  0  0  0  0  0  0  0
   16.6965    0.4241   -4.3017 H   0  0  0  0  0  0  0  0  0  0  0  0
   16.4005   -1.6806   -3.8883 C   0  0  0  0  0  0  0  0  0  0  0  0
   16.8507   -2.0071   -4.8218 H   0  0  0  0  0  0  0  0  0  0  0  0
   15.9225   -2.6200   -2.9636 C   0  0  0  0  0  0  0  0  0  0  0  0
   15.9850   -3.6776   -3.1977 H   0  0  0  0  0  0  0  0  0  0  0  0
   15.3764   -2.2167   -1.7342 C   0  0  0  0  0  0  0  0  0  0  0  0
   14.8113   -3.2278   -0.7407 C   0  0  2  0  0  0  0  0  0  0  0  0
   15.1873   -4.6756   -1.0470 C   0  0  0  0  0  0  0  0  0  0  0  0
   16.4086   -5.2012   -0.5952 C   0  0  0  0  0  0  0  0  0  0  0  0
   17.0873   -4.5568   -0.0443 H   0  0  0  0  0  0  0  0  0  0  0  0
   16.7368   -6.5469   -0.7985 C   0  0  0  0  0  0  0  0  0  0  0  0
   17.6753   -6.9375   -0.4124 H   0  0  0  0  0  0  0  0  0  0  0  0
   15.8498   -7.3844   -1.4831 C   0  0  0  0  0  0  0  0  0  0  0  0
   16.0977   -8.4321   -1.6282 H   0  0  0  0  0  0  0  0  0  0  0  0
   14.6414   -6.8714   -1.9679 C   0  0  0  0  0  0  0  0  0  0  0  0
   13.9526   -7.5297   -2.4905 H   0  0  0  0  0  0  0  0  0  0  0  0
   14.3115   -5.5259   -1.7483 C   0  0  0  0  0  0  0  0  0  0  0  0
   13.3566   -5.1507   -2.1028 H   0  0  0  0  0  0  0  0  0  0  0  0
   13.2913   -3.0334   -0.6021 C   0  0  0  0  0  0  0  0  0  0  0  0
   12.4127   -3.1765   -1.4523 O   0  0  0  0  0  0  0  0  0  0  0  0
   13.0252   -2.6997    0.6939 N   0  0  0  0  0  0  0  0  0  0  0  0
   11.7575   -2.5870    1.1684 C   0  0  0  0  0  0  0  0  0  0  0  0
   11.4895   -2.6465    2.4231 N   0  0  0  0  0  0  0  0  0  0  0  0
   10.1250   -2.5083    2.4307 C   0  0  0  0  0  0  0  0  0  0  0  0
    9.3261   -2.4977    3.6756 C   0  0  0  0  0  0  0  0  0  0  0  0
    9.8503   -3.0004    4.4912 H   0  0  0  0  0  0  0  0  0  0  0  0
    9.1516   -1.4635    3.9535 H   0  0  0  0  0  0  0  0  0  0  0  0
    8.3702   -2.9899    3.4970 H   0  0  0  0  0  0  0  0  0  0  0  0
    9.5512   -2.3985    1.2643 N   0  0  0  0  0  0  0  0  0  0  0  0
   10.6501   -2.4458    0.3866 O   0  0  0  0  0  0  0  0  0  0  0  0
   14.1877   -2.6759    1.4136 C   0  0  0  0  0  0  0  0  0  0  0  0
   14.3369   -2.4324    2.7456 N   0  0  0  0  0  0  0  0  0  0  0  0
   15.2844   -2.2519    3.0786 H   0  0  0  0  0  0  0  0  0  0  0  0
   13.5394   -2.0586    3.2623 H   0  0  0  0  0  0  0  0  0  0  0  0
   15.2010   -2.9087    0.6516 N   0  0  0  0  0  4  0  0  0  0  0  0
   16.1579   -2.9971    1.0002 H   0  0  0  0  0  0  0  0  0  0  0  0
   15.3005   -0.8339   -1.4735 C   0  0  0  0  0  0  0  0  0  0  0  0
   14.8634   -0.4792   -0.5463 H   0  0  0  0  0  0  0  0  0  0  0  0
   15.4774    1.9945   -0.7983 C   0  0  0  0  0  0  0  0  0  0  0  0
   15.3727    1.2613   -0.0051 H   0  0  0  0  0  0  0  0  0  0  0  0
   15.3979    3.3633   -0.5609 C   0  0  0  0  0  0  0  0  0  0  0  0
   15.2070    3.7423    0.4343 H   0  0  0  0  0  0  0  0  0  0  0  0
  1  2  1  0
  2  3  2  0
  3  4  1  0
  4  5  1  0
  4  6  2  0
  6  7  1  0
  7  8  2  0
  8  9  1  0
  8 10  1  0
 10 11  1  0
 10 12  2  0
 12 13  1  0
 12 14  1  0
 15 14  1  6
 15 16  1  0
 16 17  2  0
 17 18  1  0
 17 19  1  0
 19 20  1  0
 19 21  2  0
 21 22  1  0
 21 23  1  0
 23 24  1  0
 23 25  2  0
 25 26  1  0
 15 27  1  0
 27 28  2  0
 27 29  1  0
 29 30  1  0
 30 31  2  0
 31 32  1  0
 32 33  1  0
 33 34  1  0
 33 35  1  0
 33 36  1  0
 32 37  2  0
 37 38  1  0
 29 39  1  0
 39 40  1  0
 40 41  1  0
 40 42  1  0
 39 43  2  0
 43 44  1  0
 14 45  2  0
 45 46  1  0
  6 47  1  0
 47 48  1  0
 47 49  2  0
 49 50  1  0
 49  2  1  0
 45  7  1  0
 43 15  1  0
 25 16  1  0
 38 30  1  0
M  CHG  1  43   1
M  END
>  <score>  (356) 
5.43863

$$$$

     RDKit          3D

 48 51  0  0  0  0  0  0  0  0999 V2000
    7.8227   -2.0671    3.1399 H   0  0  0  0  0  0  0  0  0  0  0  0
    8.7455   -2.4228    2.7277 C   0  0  0  0  0  0  0  0  0  0  0  0
    9.7970   -2.8329    2.2703 C   0  0  0  0  0  0  0  0  0  0  0  0
   11.0792   -3.3041    1.7215 C   0  0  0  0  0  0  0  0  0  0  0  0
   11.6750   -3.7969    2.4981 H   0  0  0  0  0  0  0  0  0  0  0  0
   10.9086   -4.0335    0.9256 H   0  0  0  0  0  0  0  0  0  0  0  0
   11.8058   -2.2001    1.1764 O   0  0  0  0  0  0  0  0  0  0  0  0
   13.0628   -2.6284    0.6671 N   0  0  0  0  0  0  0  0  0  0  0  0
   13.3276   -3.0057   -0.6298 C   0  0  0  0  0  0  0  0  0  0  0  0
   12.4684   -3.1084   -1.5071 O   0  0  0  0  0  0  0  0  0  0  0  0
   14.8375   -3.2515   -0.7907 C   0  0  1  0  0  0  0  0  0  0  0  0
   15.1838   -4.7162   -1.0816 C   0  0  0  0  0  0  0  0  0  0  0  0
   16.3976   -5.2383   -0.6119 C   0  0  0  0  0  0  0  0  0  0  0  0
   17.0669   -4.5823   -0.0617 H   0  0  0  0  0  0  0  0  0  0  0  0
   16.7326   -6.5813   -0.8050 C   0  0  0  0  0  0  0  0  0  0  0  0
   17.6716   -6.9581   -0.4144 H   0  0  0  0  0  0  0  0  0  0  0  0
   15.8541   -7.4355   -1.4750 C   0  0  0  0  0  0  0  0  0  0  0  0
   16.1166   -8.4822   -1.6124 H   0  0  0  0  0  0  0  0  0  0  0  0
   14.6433   -6.9348   -1.9623 C   0  0  0  0  0  0  0  0  0  0  0  0
   13.9701   -7.6053   -2.4884 H   0  0  0  0  0  0  0  0  0  0  0  0
   14.3064   -5.5841   -1.7688 C   0  0  0  0  0  0  0  0  0  0  0  0
   13.3551   -5.2209   -2.1477 H   0  0  0  0  0  0  0  0  0  0  0  0
   15.3908   -2.2406   -1.7865 C   0  0  0  0  0  0  0  0  0  0  0  0
   15.9493   -2.6425   -3.0072 C   0  0  0  0  0  0  0  0  0  0  0  0
   16.0027   -3.7021   -3.2518 H   0  0  0  0  0  0  0  0  0  0  0  0
   16.4324   -1.6864   -3.9081 C   0  0  0  0  0  0  0  0  0  0  0  0
   16.8632   -2.0066   -4.8508 H   0  0  0  0  0  0  0  0  0  0  0  0
   16.3431   -0.3195   -3.6101 C   0  0  0  0  0  0  0  0  0  0  0  0
   16.7187    0.4186   -4.3112 H   0  0  0  0  0  0  0  0  0  0  0  0
   15.7699    0.1199   -2.4106 C   0  0  0  0  0  0  0  0  0  0  0  0
   15.6889    1.5695   -2.0980 C   0  0  0  0  0  0  0  0  0  0  0  0
   15.8679    2.5495   -3.0891 C   0  0  0  0  0  0  0  0  0  0  0  0
   16.0544    2.2136   -4.1035 H   0  0  0  0  0  0  0  0  0  0  0  0
   15.8185    3.8782   -2.8518 N   0  0  0  0  0  0  0  0  0  0  0  0
   15.5838    4.2996   -1.5984 C   0  0  0  0  0  0  0  0  0  0  0  0
   15.5656    5.3693   -1.3874 H   0  0  0  0  0  0  0  0  0  0  0  0
   15.3774    3.3967   -0.5532 C   0  0  0  0  0  0  0  0  0  0  0  0
   15.1697    3.7844    0.4386 H   0  0  0  0  0  0  0  0  0  0  0  0
   15.4422    2.0201   -0.7996 C   0  0  0  0  0  0  0  0  0  0  0  0
   15.3104    1.2937   -0.0057 H   0  0  0  0  0  0  0  0  0  0  0  0
   15.3005   -0.8557   -1.5137 C   0  0  0  0  0  0  0  0  0  0  0  0
   14.8718   -0.5194   -0.5756 H   0  0  0  0  0  0  0  0  0  0  0  0
   15.2603   -2.9120    0.5893 N   0  0  0  0  0  4  0  0  0  0  0  0
   16.2351   -2.9357    0.8986 H   0  0  0  0  0  0  0  0  0  0  0  0
   14.2635   -2.6037    1.3537 C   0  0  0  0  0  0  0  0  0  0  0  0
   14.4213   -2.3199    2.6921 N   0  0  0  0  0  0  0  0  0  0  0  0
   15.3508   -2.3435    3.1147 H   0  0  0  0  0  0  0  0  0  0  0  0
   13.6018   -2.1147    3.2620 H   0  0  0  0  0  0  0  0  0  0  0  0
  1  2  1  0
  2  3  3  0
  3  4  1  0
  4  5  1  0
  4  6  1  0
  4  7  1  0
  7  8  1  0
  8  9  1  0
  9 10  2  0
  9 11  1  0
 11 12  1  6
 12 13  2  0
 13 14  1  0
 13 15  1  0
 15 16  1  0
 15 17  2  0
 17 18  1  0
 17 19  1  0
 19 20  1  0
 19 21  2  0
 21 22  1  0
 11 23  1  0
 23 24  2  0
 24 25  1  0
 24 26  1  0
 26 27  1  0
 26 28  2  0
 28 29  1  0
 28 30  1  0
 30 31  1  0
 31 32  2  0
 32 33  1  0
 32 34  1  0
 34 35  2  0
 35 36  1  0
 35 37  1  0
 37 38  1  0
 37 39  2  0
 39 40  1  0
 30 41  2  0
 41 42  1  0
 11 43  1  0
 43 44  1  0
 43 45  2  0
 45 46  1  0
 46 47  1  0
 46 48  1  0
 45  8  1  0
 21 12  1  0
 41 23  1  0
 39 31  1  0
M  CHG  1  43   1
M  END
>  <score>  (357) 
5.43486

$$$$

     RDKit          3D

 59 63  0  0  0  0  0  0  0  0999 V2000
   15.5185    5.3146   -1.4256 H   0  0  0  0  0  0  0  0  0  0  0  0
   15.5880    4.2489   -1.6187 C   0  0  0  0  0  0  0  0  0  0  0  0
   15.8451    3.8368   -2.8685 N   0  0  0  0  0  0  0  0  0  0  0  0
   15.9143    2.5139   -3.1006 C   0  0  0  0  0  0  0  0  0  0  0  0
   16.1123    2.1916   -4.1192 H   0  0  0  0  0  0  0  0  0  0  0  0
   15.7220    1.5497   -2.0943 C   0  0  0  0  0  0  0  0  0  0  0  0
   15.7768    0.1154   -2.3900 C   0  0  0  0  0  0  0  0  0  0  0  0
   16.3216   -0.3252   -3.5993 C   0  0  0  0  0  0  0  0  0  0  0  0
   16.6979    0.3994   -4.3162 H   0  0  0  0  0  0  0  0  0  0  0  0
   16.4010   -1.6874   -3.8752 C   0  0  0  0  0  0  0  0  0  0  0  0
   16.8353   -2.0085   -4.8143 H   0  0  0  0  0  0  0  0  0  0  0  0
   15.9194   -2.6199   -2.9502 C   0  0  0  0  0  0  0  0  0  0  0  0
   15.9777   -3.6764   -3.1852 H   0  0  0  0  0  0  0  0  0  0  0  0
   15.3599   -2.2101   -1.7287 C   0  0  0  0  0  0  0  0  0  0  0  0
   14.7972   -3.2107   -0.7220 C   0  0  2  0  0  0  0  0  0  0  0  0
   15.1770   -4.6578   -1.0284 C   0  0  0  0  0  0  0  0  0  0  0  0
   16.4034   -5.1834   -0.5827 C   0  0  0  0  0  0  0  0  0  0  0  0
   17.0983   -4.5453   -0.0425 H   0  0  0  0  0  0  0  0  0  0  0  0
   16.7326   -6.5255   -0.7993 C   0  0  0  0  0  0  0  0  0  0  0  0
   17.6733   -6.9147   -0.4204 H   0  0  0  0  0  0  0  0  0  0  0  0
   15.8452   -7.3605   -1.4841 C   0  0  0  0  0  0  0  0  0  0  0  0
   16.0960   -8.4050   -1.6433 H   0  0  0  0  0  0  0  0  0  0  0  0
   14.6343   -6.8468   -1.9599 C   0  0  0  0  0  0  0  0  0  0  0  0
   13.9458   -7.4907   -2.4986 H   0  0  0  0  0  0  0  0  0  0  0  0
   14.3036   -5.5038   -1.7364 C   0  0  0  0  0  0  0  0  0  0  0  0
   13.3526   -5.1234   -2.0987 H   0  0  0  0  0  0  0  0  0  0  0  0
   13.2777   -3.0139   -0.5526 C   0  0  0  0  0  0  0  0  0  0  0  0
   12.4247   -3.1516   -1.4311 O   0  0  0  0  0  0  0  0  0  0  0  0
   13.0065   -2.7148    0.7638 N   0  0  0  0  0  0  0  0  0  0  0  0
   11.7412   -2.5355    1.3106 C   0  0  0  0  0  0  0  0  0  0  0  0
   10.8400   -1.6524    0.7062 C   0  0  0  0  0  0  0  0  0  0  0  0
   11.1514   -1.0870   -0.1636 H   0  0  0  0  0  0  0  0  0  0  0  0
    9.5604   -1.4675    1.2408 C   0  0  0  0  0  0  0  0  0  0  0  0
    8.8711   -0.7471    0.8040 H   0  0  0  0  0  0  0  0  0  0  0  0
    9.1728   -2.2193    2.3513 C   0  0  0  0  0  0  0  0  0  0  0  0
    8.1756   -2.1129    2.7614 H   0  0  0  0  0  0  0  0  0  0  0  0
   10.0620   -3.1084    2.9600 C   0  0  0  0  0  0  0  0  0  0  0  0
    9.6476   -3.8644    4.0496 N   0  0  0  0  0  0  0  0  0  0  0  0
   10.3448   -4.2059    4.6973 H   0  0  0  0  0  0  0  0  0  0  0  0
    8.3226   -4.1861    4.2788 C   0  0  0  0  0  0  0  0  0  0  0  0
    7.4533   -3.8772    3.4791 O   0  0  0  0  0  0  0  0  0  0  0  0
    7.9165   -4.9048    5.5393 C   0  0  0  0  0  0  0  0  0  0  0  0
    6.8406   -5.0857    5.5222 H   0  0  0  0  0  0  0  0  0  0  0  0
    8.4448   -5.8611    5.6082 H   0  0  0  0  0  0  0  0  0  0  0  0
    8.1361   -4.2706    6.3999 H   0  0  0  0  0  0  0  0  0  0  0  0
   11.3548   -3.2396    2.4537 C   0  0  0  0  0  0  0  0  0  0  0  0
   12.0475   -3.9197    2.9322 H   0  0  0  0  0  0  0  0  0  0  0  0
   14.2023   -2.6925    1.4454 C   0  0  0  0  0  0  0  0  0  0  0  0
   14.4002   -2.4611    2.7763 N   0  0  0  0  0  0  0  0  0  0  0  0
   15.3545   -2.2381    3.0621 H   0  0  0  0  0  0  0  0  0  0  0  0
   13.6300   -2.0572    3.3025 H   0  0  0  0  0  0  0  0  0  0  0  0
   15.2065   -2.8986    0.6624 N   0  0  0  0  0  4  0  0  0  0  0  0
   16.1662   -3.0062    0.9978 H   0  0  0  0  0  0  0  0  0  0  0  0
   15.2939   -0.8305   -1.4667 C   0  0  0  0  0  0  0  0  0  0  0  0
   14.8519   -0.4859   -0.5350 H   0  0  0  0  0  0  0  0  0  0  0  0
   15.4870    1.9891   -0.7925 C   0  0  0  0  0  0  0  0  0  0  0  0
   15.3828    1.2750    0.0200 H   0  0  0  0  0  0  0  0  0  0  0  0
   15.4127    3.3564   -0.5585 C   0  0  0  0  0  0  0  0  0  0  0  0
   15.2230    3.7253    0.4408 H   0  0  0  0  0  0  0  0  0  0  0  0
  1  2  1  0
  2  3  2  0
  3  4  1  0
  4  5  1  0
  4  6  2  0
  6  7  1  0
  7  8  2  0
  8  9  1  0
  8 10  1  0
 10 11  1  0
 10 12  2  0
 12 13  1  0
 12 14  1  0
 15 14  1  6
 15 16  1  0
 16 17  2  0
 17 18  1  0
 17 19  1  0
 19 20  1  0
 19 21  2  0
 21 22  1  0
 21 23  1  0
 23 24  1  0
 23 25  2  0
 25 26  1  0
 15 27  1  0
 27 28  2  0
 27 29  1  0
 29 30  1  0
 30 31  2  0
 31 32  1  0
 31 33  1  0
 33 34  1  0
 33 35  2  0
 35 36  1  0
 35 37  1  0
 37 38  1  0
 38 39  1  0
 38 40  1  0
 40 41  2  0
 40 42  1  0
 42 43  1  0
 42 44  1  0
 42 45  1  0
 37 46  2  0
 46 47  1  0
 29 48  1  0
 48 49  1  0
 49 50  1  0
 49 51  1  0
 48 52  2  0
 52 53  1  0
 14 54  2  0
 54 55  1  0
  6 56  1  0
 56 57  1  0
 56 58  2  0
 58 59  1  0
 58  2  1  0
 54  7  1  0
 52 15  1  0
 25 16  1  0
 46 30  1  0
M  CHG  1  52   1
M  END
>  <score>  (358) 
5.43463

$$$$

     RDKit          3D

 55 59  0  0  0  0  0  0  0  0999 V2000
   15.5261    5.3219   -1.4217 H   0  0  0  0  0  0  0  0  0  0  0  0
   15.5914    4.2553   -1.6127 C   0  0  0  0  0  0  0  0  0  0  0  0
   15.8404    3.8386   -2.8632 N   0  0  0  0  0  0  0  0  0  0  0  0
   15.9064    2.5150   -3.0931 C   0  0  0  0  0  0  0  0  0  0  0  0
   16.1027    2.1912   -4.1113 H   0  0  0  0  0  0  0  0  0  0  0  0
   15.7195    1.5486   -2.0881 C   0  0  0  0  0  0  0  0  0  0  0  0
   15.7850    0.1099   -2.3876 C   0  0  0  0  0  0  0  0  0  0  0  0
   16.3275   -0.3327   -3.6003 C   0  0  0  0  0  0  0  0  0  0  0  0
   16.6973    0.3858   -4.3238 H   0  0  0  0  0  0  0  0  0  0  0  0
   16.4084   -1.6951   -3.8881 C   0  0  0  0  0  0  0  0  0  0  0  0
   16.8318   -2.0175   -4.8329 H   0  0  0  0  0  0  0  0  0  0  0  0
   15.9460   -2.6369   -2.9650 C   0  0  0  0  0  0  0  0  0  0  0  0
   15.9983   -3.6945   -3.2039 H   0  0  0  0  0  0  0  0  0  0  0  0
   15.4019   -2.2295   -1.7372 C   0  0  0  0  0  0  0  0  0  0  0  0
   14.8403   -3.2398   -0.7428 C   0  0  2  0  0  0  0  0  0  0  0  0
   15.2191   -4.6843   -1.0354 C   0  0  0  0  0  0  0  0  0  0  0  0
   16.4370   -5.2138   -0.5797 C   0  0  0  0  0  0  0  0  0  0  0  0
   17.1324   -4.5771   -0.0396 H   0  0  0  0  0  0  0  0  0  0  0  0
   16.7558   -6.5578   -0.7969 C   0  0  0  0  0  0  0  0  0  0  0  0
   17.6966   -6.9498   -0.4225 H   0  0  0  0  0  0  0  0  0  0  0  0
   15.8636   -7.3874   -1.4850 C   0  0  0  0  0  0  0  0  0  0  0  0
   16.1073   -8.4326   -1.6458 H   0  0  0  0  0  0  0  0  0  0  0  0
   14.6556   -6.8691   -1.9604 C   0  0  0  0  0  0  0  0  0  0  0  0
   13.9588   -7.5043   -2.4988 H   0  0  0  0  0  0  0  0  0  0  0  0
   14.3386   -5.5264   -1.7394 C   0  0  0  0  0  0  0  0  0  0  0  0
   13.3937   -5.1401   -2.1105 H   0  0  0  0  0  0  0  0  0  0  0  0
   13.3131   -3.0798   -0.6471 C   0  0  0  0  0  0  0  0  0  0  0  0
   12.5079   -3.2452   -1.5646 O   0  0  0  0  0  0  0  0  0  0  0  0
   12.9655   -2.7350    0.6354 N   0  0  0  0  0  0  0  0  0  0  0  0
   11.7171   -2.1877    0.9278 C   0  0  0  0  0  0  0  0  0  0  0  0
   11.5669   -0.8086    0.7980 C   0  0  0  0  0  0  0  0  0  0  0  0
   12.4206   -0.1987    0.5174 H   0  0  0  0  0  0  0  0  0  0  0  0
   10.3223   -0.2195    0.9702 C   0  0  0  0  0  0  0  0  0  0  0  0
   10.2145    0.8533    0.8548 H   0  0  0  0  0  0  0  0  0  0  0  0
    9.2374   -1.0039    1.3577 C   0  0  0  0  0  0  0  0  0  0  0  0
    8.2849   -0.5335    1.5451 H   0  0  0  0  0  0  0  0  0  0  0  0
    9.3687   -2.3891    1.4724 C   0  0  0  0  0  0  0  0  0  0  0  0
    8.5016   -2.9847    1.7367 H   0  0  0  0  0  0  0  0  0  0  0  0
   10.5960   -3.0014    1.1901 C   0  0  0  0  0  0  0  0  0  0  0  0
   10.6555   -4.4978    1.0170 C   0  0  0  0  0  0  0  0  0  0  0  0
   11.6178   -4.9003    1.3446 H   0  0  0  0  0  0  0  0  0  0  0  0
   10.5258   -4.7407   -0.0428 H   0  0  0  0  0  0  0  0  0  0  0  0
    9.8543   -4.9839    1.5776 H   0  0  0  0  0  0  0  0  0  0  0  0
   14.1491   -2.5765    1.3447 C   0  0  0  0  0  0  0  0  0  0  0  0
   14.3616   -2.1652    2.6325 N   0  0  0  0  0  0  0  0  0  0  0  0
   13.5723   -2.1319    3.2736 H   0  0  0  0  0  0  0  0  0  0  0  0
   15.3004   -2.2858    3.0127 H   0  0  0  0  0  0  0  0  0  0  0  0
   15.1915   -2.8883    0.6464 N   0  0  0  0  0  4  0  0  0  0  0  0
   16.1491   -2.8836    1.0131 H   0  0  0  0  0  0  0  0  0  0  0  0
   15.3160   -0.8485   -1.4714 C   0  0  0  0  0  0  0  0  0  0  0  0
   14.8694   -0.5122   -0.5393 H   0  0  0  0  0  0  0  0  0  0  0  0
   15.4826    1.9939   -0.7868 C   0  0  0  0  0  0  0  0  0  0  0  0
   15.3725    1.2851    0.0282 H   0  0  0  0  0  0  0  0  0  0  0  0
   15.4125    3.3628   -0.5537 C   0  0  0  0  0  0  0  0  0  0  0  0
   15.2226    3.7344    0.4452 H   0  0  0  0  0  0  0  0  0  0  0  0
  1  2  1  0
  2  3  2  0
  3  4  1  0
  4  5  1  0
  4  6  2  0
  6  7  1  0
  7  8  2  0
  8  9  1  0
  8 10  1  0
 10 11  1  0
 10 12  2  0
 12 13  1  0
 12 14  1  0
 15 14  1  6
 15 16  1  0
 16 17  2  0
 17 18  1  0
 17 19  1  0
 19 20  1  0
 19 21  2  0
 21 22  1  0
 21 23  1  0
 23 24  1  0
 23 25  2  0
 25 26  1  0
 15 27  1  0
 27 28  2  0
 27 29  1  0
 29 30  1  0
 30 31  2  0
 31 32  1  0
 31 33  1  0
 33 34  1  0
 33 35  2  0
 35 36  1  0
 35 37  1  0
 37 38  1  0
 37 39  2  0
 39 40  1  0
 40 41  1  0
 40 42  1  0
 40 43  1  0
 29 44  1  0
 44 45  1  0
 45 46  1  0
 45 47  1  0
 44 48  2  0
 48 49  1  0
 14 50  2  0
 50 51  1  0
  6 52  1  0
 52 53  1  0
 52 54  2  0
 54 55  1  0
 54  2  1  0
 50  7  1  0
 48 15  1  0
 25 16  1  0
 39 30  1  0
M  CHG  1  48   1
M  END
>  <score>  (359) 
5.43323

$$$$

     RDKit          3D

 51 55  0  0  0  0  0  0  0  0999 V2000
   15.5543    5.3536   -1.3938 H   0  0  0  0  0  0  0  0  0  0  0  0
   15.5871    4.2866   -1.6049 C   0  0  0  0  0  0  0  0  0  0  0  0
   15.8218    3.8692   -2.8598 N   0  0  0  0  0  0  0  0  0  0  0  0
   15.8790    2.5424   -3.0931 C   0  0  0  0  0  0  0  0  0  0  0  0
   16.0696    2.2024   -4.1050 H   0  0  0  0  0  0  0  0  0  0  0  0
   15.6973    1.5680   -2.0983 C   0  0  0  0  0  0  0  0  0  0  0  0
   15.7744    0.1224   -2.4037 C   0  0  0  0  0  0  0  0  0  0  0  0
   16.3309   -0.3191   -3.6079 C   0  0  0  0  0  0  0  0  0  0  0  0
   16.7106    0.4243   -4.3005 H   0  0  0  0  0  0  0  0  0  0  0  0
   16.4210   -1.6867   -3.8966 C   0  0  0  0  0  0  0  0  0  0  0  0
   16.8611   -2.0062   -4.8352 H   0  0  0  0  0  0  0  0  0  0  0  0
   15.9321   -2.6354   -2.9877 C   0  0  0  0  0  0  0  0  0  0  0  0
   15.9917   -3.6940   -3.2283 H   0  0  0  0  0  0  0  0  0  0  0  0
   15.3571   -2.2264   -1.7701 C   0  0  0  0  0  0  0  0  0  0  0  0
   14.7718   -3.2309   -0.7710 C   0  0  2  0  0  0  0  0  0  0  0  0
   15.1557   -4.6933   -1.0616 C   0  0  0  0  0  0  0  0  0  0  0  0
   16.3812   -5.2143   -0.6003 C   0  0  0  0  0  0  0  0  0  0  0  0
   17.0640   -4.5665   -0.0577 H   0  0  0  0  0  0  0  0  0  0  0  0
   16.7289   -6.5579   -0.8037 C   0  0  0  0  0  0  0  0  0  0  0  0
   17.6657   -6.9479   -0.4165 H   0  0  0  0  0  0  0  0  0  0  0  0
   15.8555   -7.4127   -1.4795 C   0  0  0  0  0  0  0  0  0  0  0  0
   16.1070   -8.4621   -1.6142 H   0  0  0  0  0  0  0  0  0  0  0  0
   14.6434   -6.9135   -1.9640 C   0  0  0  0  0  0  0  0  0  0  0  0
   13.9662   -7.5813   -2.4885 H   0  0  0  0  0  0  0  0  0  0  0  0
   14.2974   -5.5658   -1.7606 C   0  0  0  0  0  0  0  0  0  0  0  0
   13.3470   -5.1969   -2.1317 H   0  0  0  0  0  0  0  0  0  0  0  0
   13.2500   -3.0018   -0.5860 C   0  0  0  0  0  0  0  0  0  0  0  0
   12.3605   -3.1205   -1.4268 O   0  0  0  0  0  0  0  0  0  0  0  0
   13.0001   -2.7032    0.7227 N   0  0  0  0  0  0  0  0  0  0  0  0
   11.7484   -2.5801    1.2479 C   0  0  0  0  0  0  0  0  0  0  0  0
   10.7562   -1.9529    0.5354 N   0  0  0  0  0  0  0  0  0  0  0  0
    9.6634   -1.9186    1.2558 C   0  0  0  0  0  0  0  0  0  0  0  0
    8.3977   -1.2868    0.7933 C   0  0  0  0  0  0  0  0  0  0  0  0
    8.2841   -0.2968    1.2488 H   0  0  0  0  0  0  0  0  0  0  0  0
    8.3881   -1.1788   -0.2960 H   0  0  0  0  0  0  0  0  0  0  0  0
    7.5839   -1.9404    1.1088 H   0  0  0  0  0  0  0  0  0  0  0  0
    9.7446   -2.7352    2.8093 S   0  0  0  0  0  0  0  0  0  0  0  0
   11.4114   -3.0843    2.4585 C   0  0  0  0  0  0  0  0  0  0  0  0
   12.1100   -3.6104    3.0944 H   0  0  0  0  0  0  0  0  0  0  0  0
   14.1813   -2.6710    1.3972 C   0  0  0  0  0  0  0  0  0  0  0  0
   14.3641   -2.4009    2.7227 N   0  0  0  0  0  0  0  0  0  0  0  0
   15.3213   -2.3433    3.0679 H   0  0  0  0  0  0  0  0  0  0  0  0
   13.6036   -1.9765    3.2540 H   0  0  0  0  0  0  0  0  0  0  0  0
   15.1826   -2.9138    0.6193 N   0  0  0  0  0  4  0  0  0  0  0  0
   16.1514   -2.9381    0.9418 H   0  0  0  0  0  0  0  0  0  0  0  0
   15.2981   -0.8423   -1.4987 C   0  0  0  0  0  0  0  0  0  0  0  0
   14.8601   -0.4998   -0.5667 H   0  0  0  0  0  0  0  0  0  0  0  0
   15.4471    2.0114   -0.8007 C   0  0  0  0  0  0  0  0  0  0  0  0
   15.3337    1.2740   -0.0128 H   0  0  0  0  0  0  0  0  0  0  0  0
   15.3841    3.3866   -0.5556 C   0  0  0  0  0  0  0  0  0  0  0  0
   15.1793    3.7739    0.4360 H   0  0  0  0  0  0  0  0  0  0  0  0
  1  2  1  0
  2  3  2  0
  3  4  1  0
  4  5  1  0
  4  6  2  0
  6  7  1  0
  7  8  2  0
  8  9  1  0
  8 10  1  0
 10 11  1  0
 10 12  2  0
 12 13  1  0
 12 14  1  0
 15 14  1  6
 15 16  1  0
 16 17  2  0
 17 18  1  0
 17 19  1  0
 19 20  1  0
 19 21  2  0
 21 22  1  0
 21 23  1  0
 23 24  1  0
 23 25  2  0
 25 26  1  0
 15 27  1  0
 27 28  2  0
 27 29  1  0
 29 30  1  0
 30 31  1  0
 31 32  2  0
 32 33  1  0
 33 34  1  0
 33 35  1  0
 33 36  1  0
 32 37  1  0
 37 38  1  0
 38 39  1  0
 29 40  1  0
 40 41  1  0
 41 42  1  0
 41 43  1  0
 40 44  2  0
 44 45  1  0
 14 46  2  0
 46 47  1  0
  6 48  1  0
 48 49  1  0
 48 50  2  0
 50 51  1  0
 50  2  1  0
 46  7  1  0
 44 15  1  0
 25 16  1  0
 38 30  2  0
M  CHG  1  44   1
M  END
>  <score>  (360) 
5.43295

$$$$

     RDKit          3D

 61 65  0  0  0  0  0  0  0  0999 V2000
   15.5929    5.3325   -1.4041 H   0  0  0  0  0  0  0  0  0  0  0  0
   15.6771    4.2682   -1.6029 C   0  0  0  0  0  0  0  0  0  0  0  0
   15.9002    3.8526   -2.8595 N   0  0  0  0  0  0  0  0  0  0  0  0
   15.9956    2.5285   -3.0893 C   0  0  0  0  0  0  0  0  0  0  0  0
   16.1690    2.2051   -4.1108 H   0  0  0  0  0  0  0  0  0  0  0  0
   15.8642    1.5568   -2.0806 C   0  0  0  0  0  0  0  0  0  0  0  0
   15.9291    0.1097   -2.3728 C   0  0  0  0  0  0  0  0  0  0  0  0
   16.3752   -0.3789   -3.6116 C   0  0  0  0  0  0  0  0  0  0  0  0
   16.7167    0.3106   -4.3772 H   0  0  0  0  0  0  0  0  0  0  0  0
   16.3886   -1.7551   -3.8682 C   0  0  0  0  0  0  0  0  0  0  0  0
   16.7215   -2.1268   -4.8310 H   0  0  0  0  0  0  0  0  0  0  0  0
   15.9534   -2.6549   -2.8928 C   0  0  0  0  0  0  0  0  0  0  0  0
   15.9472   -3.7198   -3.1070 H   0  0  0  0  0  0  0  0  0  0  0  0
   15.5105   -2.1994   -1.6423 C   0  0  0  0  0  0  0  0  0  0  0  0
   14.9728   -3.1648   -0.5956 C   0  0  2  0  0  0  0  0  0  0  0  0
   15.3165   -4.6135   -0.9285 C   0  0  0  0  0  0  0  0  0  0  0  0
   16.5332   -5.1791   -0.5148 C   0  0  0  0  0  0  0  0  0  0  0  0
   17.2383   -4.5792    0.0533 H   0  0  0  0  0  0  0  0  0  0  0  0
   16.8450   -6.5069   -0.8264 C   0  0  0  0  0  0  0  0  0  0  0  0
   17.7904   -6.9286   -0.4981 H   0  0  0  0  0  0  0  0  0  0  0  0
   15.9406   -7.2877   -1.5535 C   0  0  0  0  0  0  0  0  0  0  0  0
   16.1704   -8.3254   -1.7744 H   0  0  0  0  0  0  0  0  0  0  0  0
   14.7359   -6.7312   -1.9944 C   0  0  0  0  0  0  0  0  0  0  0  0
   14.0378   -7.3286   -2.5736 H   0  0  0  0  0  0  0  0  0  0  0  0
   14.4316   -5.3996   -1.6899 C   0  0  0  0  0  0  0  0  0  0  0  0
   13.4984   -4.9714   -2.0447 H   0  0  0  0  0  0  0  0  0  0  0  0
   13.4599   -2.9610   -0.3943 C   0  0  0  0  0  0  0  0  0  0  0  0
   12.5631   -3.2084   -1.1980 O   0  0  0  0  0  0  0  0  0  0  0  0
   13.1999   -2.5305    0.8906 N   0  0  0  0  0  0  0  0  0  0  0  0
   11.8778   -2.5914    1.5327 C   0  0  0  0  0  0  0  0  0  0  0  0
   11.8858   -2.0787    2.4997 H   0  0  0  0  0  0  0  0  0  0  0  0
   11.1334   -2.0808    0.9133 H   0  0  0  0  0  0  0  0  0  0  0  0
   11.4266   -4.0417    1.7378 C   0  0  0  0  0  0  0  0  0  0  0  0
   11.3829   -4.5437    0.7646 H   0  0  0  0  0  0  0  0  0  0  0  0
   12.1682   -4.5633    2.3562 H   0  0  0  0  0  0  0  0  0  0  0  0
   10.0978   -4.0963    2.3880 N   0  0  0  0  0  0  0  0  0  0  0  0
   10.0836   -3.8679    3.8538 C   0  0  0  0  0  0  0  0  0  0  0  0
   11.0250   -3.4056    4.1823 H   0  0  0  0  0  0  0  0  0  0  0  0
    9.9900   -4.8236    4.3929 H   0  0  0  0  0  0  0  0  0  0  0  0
    8.9235   -2.9298    4.2200 C   0  0  0  0  0  0  0  0  0  0  0  0
    8.9208   -2.7649    5.2962 H   0  0  0  0  0  0  0  0  0  0  0  0
    9.0887   -1.9573    3.7437 H   0  0  0  0  0  0  0  0  0  0  0  0
    7.6509   -3.4520    3.7843 O   0  0  0  0  0  0  0  0  0  0  0  0
    7.6234   -3.8413    2.3892 C   0  0  0  0  0  0  0  0  0  0  0  0
    6.8112   -3.2914    1.8947 H   0  0  0  0  0  0  0  0  0  0  0  0
    7.4014   -4.9151    2.3201 H   0  0  0  0  0  0  0  0  0  0  0  0
    8.9391   -3.5651    1.6363 C   0  0  0  0  0  0  0  0  0  0  0  0
    9.0517   -2.4823    1.5407 H   0  0  0  0  0  0  0  0  0  0  0  0
    8.9019   -4.0033    0.6324 H   0  0  0  0  0  0  0  0  0  0  0  0
   14.4070   -2.5388    1.5529 C   0  0  0  0  0  0  0  0  0  0  0  0
   14.5477   -2.3361    2.8962 N   0  0  0  0  0  0  0  0  0  0  0  0
   15.4857   -2.1905    3.2569 H   0  0  0  0  0  0  0  0  0  0  0  0
   13.7596   -1.9614    3.4212 H   0  0  0  0  0  0  0  0  0  0  0  0
   15.4062   -2.8031    0.7710 N   0  0  0  0  0  4  0  0  0  0  0  0
   16.3620   -2.9356    1.1033 H   0  0  0  0  0  0  0  0  0  0  0  0
   15.5081   -0.8154   -1.4026 C   0  0  0  0  0  0  0  0  0  0  0  0
   15.1480   -0.4441   -0.4484 H   0  0  0  0  0  0  0  0  0  0  0  0
   15.6399    2.0056   -0.7747 C   0  0  0  0  0  0  0  0  0  0  0  0
   15.5473    1.2994    0.0462 H   0  0  0  0  0  0  0  0  0  0  0  0
   15.5401    3.3740   -0.5417 C   0  0  0  0  0  0  0  0  0  0  0  0
   15.3463    3.7509    0.4551 H   0  0  0  0  0  0  0  0  0  0  0  0
  1  2  1  0
  2  3  2  0
  3  4  1  0
  4  5  1  0
  4  6  2  0
  6  7  1  0
  7  8  2  0
  8  9  1  0
  8 10  1  0
 10 11  1  0
 10 12  2  0
 12 13  1  0
 12 14  1  0
 15 14  1  6
 15 16  1  0
 16 17  2  0
 17 18  1  0
 17 19  1  0
 19 20  1  0
 19 21  2  0
 21 22  1  0
 21 23  1  0
 23 24  1  0
 23 25  2  0
 25 26  1  0
 15 27  1  0
 27 28  2  0
 27 29  1  0
 29 30  1  0
 30 31  1  0
 30 32  1  0
 30 33  1  0
 33 34  1  0
 33 35  1  0
 33 36  1  0
 36 37  1  0
 37 38  1  0
 37 39  1  0
 37 40  1  0
 40 41  1  0
 40 42  1  0
 40 43  1  0
 43 44  1  0
 44 45  1  0
 44 46  1  0
 44 47  1  0
 47 48  1  0
 47 49  1  0
 29 50  1  0
 50 51  1  0
 51 52  1  0
 51 53  1  0
 50 54  2  0
 54 55  1  0
 14 56  2  0
 56 57  1  0
  6 58  1  0
 58 59  1  0
 58 60  2  0
 60 61  1  0
 60  2  1  0
 56  7  1  0
 54 15  1  0
 25 16  1  0
 47 36  1  0
M  CHG  1  54   1
M  END
>  <score>  (361) 
5.43261

$$$$

     RDKit          3D

 58 62  0  0  0  0  0  0  0  0999 V2000
   15.5250    5.3125   -1.4105 H   0  0  0  0  0  0  0  0  0  0  0  0
   15.6098    4.2476   -1.6064 C   0  0  0  0  0  0  0  0  0  0  0  0
   15.8560    3.8364   -2.8593 N   0  0  0  0  0  0  0  0  0  0  0  0
   15.9523    2.5135   -3.0889 C   0  0  0  0  0  0  0  0  0  0  0  0
   16.1395    2.1880   -4.1072 H   0  0  0  0  0  0  0  0  0  0  0  0
   15.8051    1.5402   -2.0858 C   0  0  0  0  0  0  0  0  0  0  0  0
   15.8929    0.1007   -2.4005 C   0  0  0  0  0  0  0  0  0  0  0  0
   16.3828   -0.3445   -3.6364 C   0  0  0  0  0  0  0  0  0  0  0  0
   16.7120    0.3802   -4.3753 H   0  0  0  0  0  0  0  0  0  0  0  0
   16.4508   -1.7126   -3.9215 C   0  0  0  0  0  0  0  0  0  0  0  0
   16.8376   -2.0346   -4.8835 H   0  0  0  0  0  0  0  0  0  0  0  0
   16.0091   -2.6530   -2.9796 C   0  0  0  0  0  0  0  0  0  0  0  0
   16.0637   -3.7098   -3.2252 H   0  0  0  0  0  0  0  0  0  0  0  0
   15.4924   -2.2363   -1.7372 C   0  0  0  0  0  0  0  0  0  0  0  0
   14.9049   -3.2087   -0.7102 C   0  0  2  0  0  0  0  0  0  0  0  0
   15.2650   -4.6675   -1.0052 C   0  0  0  0  0  0  0  0  0  0  0  0
   16.4873   -5.2187   -0.5762 C   0  0  0  0  0  0  0  0  0  0  0  0
   17.2005   -4.6007   -0.0396 H   0  0  0  0  0  0  0  0  0  0  0  0
   16.8004   -6.5633   -0.8184 C   0  0  0  0  0  0  0  0  0  0  0  0
   17.7411   -6.9751   -0.4626 H   0  0  0  0  0  0  0  0  0  0  0  0
   15.8992   -7.3797   -1.5075 C   0  0  0  0  0  0  0  0  0  0  0  0
   16.1321   -8.4275   -1.6796 H   0  0  0  0  0  0  0  0  0  0  0  0
   14.6976   -6.8395   -1.9767 C   0  0  0  0  0  0  0  0  0  0  0  0
   14.0013   -7.4691   -2.5238 H   0  0  0  0  0  0  0  0  0  0  0  0
   14.3879   -5.4931   -1.7330 C   0  0  0  0  0  0  0  0  0  0  0  0
   13.4524   -5.0890   -2.1079 H   0  0  0  0  0  0  0  0  0  0  0  0
   13.3821   -2.9575   -0.5534 C   0  0  0  0  0  0  0  0  0  0  0  0
   12.5345   -3.1721   -1.4205 O   0  0  0  0  0  0  0  0  0  0  0  0
   13.1030   -2.3949    0.6920 N   0  0  0  0  0  0  0  0  0  0  0  0
   11.8119   -1.9874    1.2335 N   0  0  0  0  0  0  0  0  0  0  0  0
   11.4493   -1.0399    1.0646 H   0  0  0  0  0  0  0  0  0  0  0  0
   11.0782   -2.7905    2.1171 C   0  0  0  0  0  0  0  0  0  0  0  0
    9.8081   -2.3970    2.5638 C   0  0  0  0  0  0  0  0  0  0  0  0
    9.3971   -1.4443    2.2434 H   0  0  0  0  0  0  0  0  0  0  0  0
    9.0750   -3.2246    3.4299 C   0  0  0  0  0  0  0  0  0  0  0  0
    8.1017   -2.9055    3.7775 H   0  0  0  0  0  0  0  0  0  0  0  0
    9.6172   -4.4382    3.8924 C   0  0  0  0  0  0  0  0  0  0  0  0
    8.9976   -5.2801    4.7776 O   0  0  0  0  0  0  0  0  0  0  0  0
    7.9253   -4.7358    5.5452 C   0  0  0  0  0  0  0  0  0  0  0  0
    7.2104   -4.2237    4.8984 H   0  0  0  0  0  0  0  0  0  0  0  0
    7.4128   -5.5493    6.0646 H   0  0  0  0  0  0  0  0  0  0  0  0
    8.3174   -4.0363    6.2858 H   0  0  0  0  0  0  0  0  0  0  0  0
   10.8793   -4.8272    3.4385 C   0  0  0  0  0  0  0  0  0  0  0  0
   11.3068   -5.7579    3.8009 H   0  0  0  0  0  0  0  0  0  0  0  0
   11.6022   -4.0096    2.5610 C   0  0  0  0  0  0  0  0  0  0  0  0
   12.5958   -4.3042    2.2382 H   0  0  0  0  0  0  0  0  0  0  0  0
   14.3150   -2.4119    1.3734 C   0  0  0  0  0  0  0  0  0  0  0  0
   14.4954   -2.0446    2.6750 N   0  0  0  0  0  0  0  0  0  0  0  0
   13.6568   -1.9865    3.2508 H   0  0  0  0  0  0  0  0  0  0  0  0
   15.3818   -2.2900    3.1145 H   0  0  0  0  0  0  0  0  0  0  0  0
   15.3111   -2.8371    0.6591 N   0  0  0  0  0  4  0  0  0  0  0  0
   16.2519   -2.9954    1.0262 H   0  0  0  0  0  0  0  0  0  0  0  0
   15.4578   -0.8564   -1.4707 C   0  0  0  0  0  0  0  0  0  0  0  0
   15.0642   -0.5189   -0.5180 H   0  0  0  0  0  0  0  0  0  0  0  0
   15.5584    1.9810   -0.7810 C   0  0  0  0  0  0  0  0  0  0  0  0
   15.4591    1.2688    0.0343 H   0  0  0  0  0  0  0  0  0  0  0  0
   15.4558    3.3511   -0.5471 C   0  0  0  0  0  0  0  0  0  0  0  0
   15.2585    3.7283    0.4492 H   0  0  0  0  0  0  0  0  0  0  0  0
  1  2  1  0
  2  3  2  0
  3  4  1  0
  4  5  1  0
  4  6  2  0
  6  7  1  0
  7  8  2  0
  8  9  1  0
  8 10  1  0
 10 11  1  0
 10 12  2  0
 12 13  1  0
 12 14  1  0
 15 14  1  6
 15 16  1  0
 16 17  2  0
 17 18  1  0
 17 19  1  0
 19 20  1  0
 19 21  2  0
 21 22  1  0
 21 23  1  0
 23 24  1  0
 23 25  2  0
 25 26  1  0
 15 27  1  0
 27 28  2  0
 27 29  1  0
 29 30  1  0
 30 31  1  0
 30 32  1  0
 32 33  2  0
 33 34  1  0
 33 35  1  0
 35 36  1  0
 35 37  2  0
 37 38  1  0
 38 39  1  0
 39 40  1  0
 39 41  1  0
 39 42  1  0
 37 43  1  0
 43 44  1  0
 43 45  2  0
 45 46  1  0
 29 47  1  0
 47 48  1  0
 48 49  1  0
 48 50  1  0
 47 51  2  0
 51 52  1  0
 14 53  2  0
 53 54  1  0
  6 55  1  0
 55 56  1  0
 55 57  2  0
 57 58  1  0
 57  2  1  0
 53  7  1  0
 51 15  1  0
 25 16  1  0
 45 32  1  0
M  CHG  1  51   1
M  END
>  <score>  (362) 
5.43222

$$$$

     RDKit          3D

 55 58  0  0  0  0  0  0  0  0999 V2000
   15.5103    5.3167   -1.4105 H   0  0  0  0  0  0  0  0  0  0  0  0
   15.6020    4.2515   -1.6061 C   0  0  0  0  0  0  0  0  0  0  0  0
   15.8493    3.8413   -2.8590 N   0  0  0  0  0  0  0  0  0  0  0  0
   15.9538    2.5192   -3.0923 C   0  0  0  0  0  0  0  0  0  0  0  0
   16.1436    2.1926   -4.1101 H   0  0  0  0  0  0  0  0  0  0  0  0
   15.8059    1.5435   -2.0930 C   0  0  0  0  0  0  0  0  0  0  0  0
   15.8904    0.1048   -2.4179 C   0  0  0  0  0  0  0  0  0  0  0  0
   16.3773   -0.3351   -3.6576 C   0  0  0  0  0  0  0  0  0  0  0  0
   16.7047    0.3884   -4.3977 H   0  0  0  0  0  0  0  0  0  0  0  0
   16.4542   -1.7019   -3.9503 C   0  0  0  0  0  0  0  0  0  0  0  0
   16.8417   -2.0187   -4.9145 H   0  0  0  0  0  0  0  0  0  0  0  0
   16.0339   -2.6508   -3.0063 C   0  0  0  0  0  0  0  0  0  0  0  0
   16.1054   -3.7086   -3.2484 H   0  0  0  0  0  0  0  0  0  0  0  0
   15.5157   -2.2385   -1.7613 C   0  0  0  0  0  0  0  0  0  0  0  0
   14.9444   -3.2107   -0.7287 C   0  0  2  0  0  0  0  0  0  0  0  0
   15.3133   -4.6614   -1.0179 C   0  0  0  0  0  0  0  0  0  0  0  0
   16.5309   -5.2230   -0.5861 C   0  0  0  0  0  0  0  0  0  0  0  0
   17.2553   -4.6092   -0.0569 H   0  0  0  0  0  0  0  0  0  0  0  0
   16.8172   -6.5749   -0.8233 C   0  0  0  0  0  0  0  0  0  0  0  0
   17.7535   -7.0015   -0.4726 H   0  0  0  0  0  0  0  0  0  0  0  0
   15.8960   -7.3764   -1.5069 C   0  0  0  0  0  0  0  0  0  0  0  0
   16.1009   -8.4298   -1.6735 H   0  0  0  0  0  0  0  0  0  0  0  0
   14.7031   -6.8177   -1.9754 C   0  0  0  0  0  0  0  0  0  0  0  0
   13.9862   -7.4250   -2.5183 H   0  0  0  0  0  0  0  0  0  0  0  0
   14.4219   -5.4700   -1.7390 C   0  0  0  0  0  0  0  0  0  0  0  0
   13.4970   -5.0443   -2.1156 H   0  0  0  0  0  0  0  0  0  0  0  0
   13.4128   -2.9929   -0.5831 C   0  0  0  0  0  0  0  0  0  0  0  0
   12.5656   -3.2139   -1.4480 O   0  0  0  0  0  0  0  0  0  0  0  0
   13.1009   -2.5175    0.6925 N   0  0  0  0  0  0  0  0  0  0  0  0
   11.7766   -2.2198    1.2550 N   0  0  0  0  0  0  0  0  0  0  0  0
   11.3488   -1.3153    1.0455 H   0  0  0  0  0  0  0  0  0  0  0  0
   11.0734   -3.0149    2.1605 C   0  0  0  0  0  0  0  0  0  0  0  0
   11.4996   -4.1257    2.4440 O   0  0  0  0  0  0  0  0  0  0  0  0
    9.7294   -2.5411    2.7569 C   0  0  0  0  0  0  0  0  0  0  0  0
    9.5897   -1.5040    2.4506 H   0  0  0  0  0  0  0  0  0  0  0  0
    8.5251   -3.3480    2.2403 C   0  0  0  0  0  0  0  0  0  0  0  0
    7.5954   -2.8651    2.5643 H   0  0  0  0  0  0  0  0  0  0  0  0
    8.5377   -4.3765    2.6216 H   0  0  0  0  0  0  0  0  0  0  0  0
    8.5376   -3.3924    1.1453 H   0  0  0  0  0  0  0  0  0  0  0  0
    9.7770   -2.5999    4.2911 C   0  0  0  0  0  0  0  0  0  0  0  0
    8.7865   -2.5038    4.7383 H   0  0  0  0  0  0  0  0  0  0  0  0
   10.3916   -1.7876    4.6800 H   0  0  0  0  0  0  0  0  0  0  0  0
   10.2065   -3.5479    4.6187 H   0  0  0  0  0  0  0  0  0  0  0  0
   14.3241   -2.4731    1.3643 C   0  0  0  0  0  0  0  0  0  0  0  0
   14.5367   -2.1371    2.6735 N   0  0  0  0  0  0  0  0  0  0  0  0
   15.4749   -2.2879    3.0389 H   0  0  0  0  0  0  0  0  0  0  0  0
   13.7494   -2.1738    3.3161 H   0  0  0  0  0  0  0  0  0  0  0  0
   15.3376   -2.8392    0.6456 N   0  0  0  0  0  4  0  0  0  0  0  0
   16.2877   -2.9451    1.0133 H   0  0  0  0  0  0  0  0  0  0  0  0
   15.4594   -0.8593   -1.4955 C   0  0  0  0  0  0  0  0  0  0  0  0
   15.0570   -0.5227   -0.5468 H   0  0  0  0  0  0  0  0  0  0  0  0
   15.5600    1.9812   -0.7870 C   0  0  0  0  0  0  0  0  0  0  0  0
   15.4593    1.2645    0.0240 H   0  0  0  0  0  0  0  0  0  0  0  0
   15.4564    3.3516   -0.5489 C   0  0  0  0  0  0  0  0  0  0  0  0
   15.2644    3.7288    0.4479 H   0  0  0  0  0  0  0  0  0  0  0  0
  1  2  1  0
  2  3  2  0
  3  4  1  0
  4  5  1  0
  4  6  2  0
  6  7  1  0
  7  8  2  0
  8  9  1  0
  8 10  1  0
 10 11  1  0
 10 12  2  0
 12 13  1  0
 12 14  1  0
 15 14  1  6
 15 16  1  0
 16 17  2  0
 17 18  1  0
 17 19  1  0
 19 20  1  0
 19 21  2  0
 21 22  1  0
 21 23  1  0
 23 24  1  0
 23 25  2  0
 25 26  1  0
 15 27  1  0
 27 28  2  0
 27 29  1  0
 29 30  1  0
 30 31  1  0
 30 32  1  0
 32 33  2  0
 32 34  1  0
 34 35  1  0
 34 36  1  0
 36 37  1  0
 36 38  1  0
 36 39  1  0
 34 40  1  0
 40 41  1  0
 40 42  1  0
 40 43  1  0
 29 44  1  0
 44 45  1  0
 45 46  1  0
 45 47  1  0
 44 48  2  0
 48 49  1  0
 14 50  2  0
 50 51  1  0
  6 52  1  0
 52 53  1  0
 52 54  2  0
 54 55  1  0
 54  2  1  0
 50  7  1  0
 48 15  1  0
 25 16  1  0
M  CHG  1  48   1
M  END
>  <score>  (363) 
5.43024

$$$$

     RDKit          3D

 50 54  0  0  0  0  0  0  0  0999 V2000
    8.4731   -2.4798    4.1156 H   0  0  0  0  0  0  0  0  0  0  0  0
    9.3777   -2.8107    3.6142 C   0  0  0  0  0  0  0  0  0  0  0  0
    9.9244   -2.1291    2.5396 N   0  0  0  0  0  0  0  0  0  0  0  0
   11.0425   -2.7113    2.1925 C   0  0  0  0  0  0  0  0  0  0  0  0
   11.7144   -2.1181    1.1413 N   0  0  0  0  0  0  0  0  0  0  0  0
   11.3072   -1.2175    0.8870 H   0  0  0  0  0  0  0  0  0  0  0  0
   13.0226   -2.5294    0.6413 N   0  0  0  0  0  0  0  0  0  0  0  0
   13.3182   -2.9988   -0.6372 C   0  0  0  0  0  0  0  0  0  0  0  0
   12.5004   -3.1709   -1.5449 O   0  0  0  0  0  0  0  0  0  0  0  0
   14.8328   -3.2400   -0.7639 C   0  0  1  0  0  0  0  0  0  0  0  0
   15.1934   -4.6984   -1.0615 C   0  0  0  0  0  0  0  0  0  0  0  0
   16.4126   -5.2273   -0.6042 C   0  0  0  0  0  0  0  0  0  0  0  0
   17.0974   -4.5839   -0.0615 H   0  0  0  0  0  0  0  0  0  0  0  0
   16.7461   -6.5730   -0.8030 C   0  0  0  0  0  0  0  0  0  0  0  0
   17.6827   -6.9651   -0.4127 H   0  0  0  0  0  0  0  0  0  0  0  0
   15.8618   -7.4142   -1.4866 C   0  0  0  0  0  0  0  0  0  0  0  0
   16.1026   -8.4654   -1.6216 H   0  0  0  0  0  0  0  0  0  0  0  0
   14.6524   -6.9044   -1.9734 C   0  0  0  0  0  0  0  0  0  0  0  0
   13.9571   -7.5639   -2.4879 H   0  0  0  0  0  0  0  0  0  0  0  0
   14.3215   -5.5558   -1.7617 C   0  0  0  0  0  0  0  0  0  0  0  0
   13.3698   -5.1790   -2.1221 H   0  0  0  0  0  0  0  0  0  0  0  0
   15.4021   -2.2289   -1.7548 C   0  0  0  0  0  0  0  0  0  0  0  0
   15.9432   -2.6296   -2.9867 C   0  0  0  0  0  0  0  0  0  0  0  0
   16.0063   -3.6864   -3.2271 H   0  0  0  0  0  0  0  0  0  0  0  0
   16.4115   -1.6818   -3.9058 C   0  0  0  0  0  0  0  0  0  0  0  0
   16.8620   -1.9997   -4.8411 H   0  0  0  0  0  0  0  0  0  0  0  0
   16.3279   -0.3167   -3.6084 C   0  0  0  0  0  0  0  0  0  0  0  0
   16.7044    0.4237   -4.3067 H   0  0  0  0  0  0  0  0  0  0  0  0
   15.7820    0.1191   -2.3971 C   0  0  0  0  0  0  0  0  0  0  0  0
   15.7017    1.5616   -2.0967 C   0  0  0  0  0  0  0  0  0  0  0  0
   15.8877    2.5321   -3.0977 C   0  0  0  0  0  0  0  0  0  0  0  0
   16.0839    2.1995   -4.1124 H   0  0  0  0  0  0  0  0  0  0  0  0
   15.8339    3.8570   -2.8642 N   0  0  0  0  0  0  0  0  0  0  0  0
   15.5872    4.2674   -1.6111 C   0  0  0  0  0  0  0  0  0  0  0  0
   15.5407    5.3315   -1.4062 H   0  0  0  0  0  0  0  0  0  0  0  0
   15.3876    3.3724   -0.5588 C   0  0  0  0  0  0  0  0  0  0  0  0
   15.1968    3.7527    0.4364 H   0  0  0  0  0  0  0  0  0  0  0  0
   15.4550    2.0018   -0.7981 C   0  0  0  0  0  0  0  0  0  0  0  0
   15.3519    1.2720   -0.0019 H   0  0  0  0  0  0  0  0  0  0  0  0
   15.3174   -0.8461   -1.4857 C   0  0  0  0  0  0  0  0  0  0  0  0
   14.8636   -0.5098   -0.5585 H   0  0  0  0  0  0  0  0  0  0  0  0
   15.2381   -2.9134    0.6162 N   0  0  0  0  0  4  0  0  0  0  0  0
   16.2039   -2.9947    0.9494 H   0  0  0  0  0  0  0  0  0  0  0  0
   14.2320   -2.5580    1.3481 C   0  0  0  0  0  0  0  0  0  0  0  0
   14.4335   -2.2870    2.6779 N   0  0  0  0  0  0  0  0  0  0  0  0
   15.3814   -2.3413    3.0535 H   0  0  0  0  0  0  0  0  0  0  0  0
   13.6449   -2.0626    3.2822 H   0  0  0  0  0  0  0  0  0  0  0  0
   11.5186   -4.1545    3.0775 S   0  0  0  0  0  0  0  0  0  0  0  0
   10.0547   -3.9393    4.0008 C   0  0  0  0  0  0  0  0  0  0  0  0
    9.7381   -4.5981    4.7996 H   0  0  0  0  0  0  0  0  0  0  0  0
  1  2  1  0
  2  3  1  0
  3  4  2  0
  4  5  1  0
  5  6  1  0
  5  7  1  0
  7  8  1  0
  8  9  2  0
  8 10  1  0
 10 11  1  6
 11 12  2  0
 12 13  1  0
 12 14  1  0
 14 15  1  0
 14 16  2  0
 16 17  1  0
 16 18  1  0
 18 19  1  0
 18 20  2  0
 20 21  1  0
 10 22  1  0
 22 23  2  0
 23 24  1  0
 23 25  1  0
 25 26  1  0
 25 27  2  0
 27 28  1  0
 27 29  1  0
 29 30  1  0
 30 31  2  0
 31 32  1  0
 31 33  1  0
 33 34  2  0
 34 35  1  0
 34 36  1  0
 36 37  1  0
 36 38  2  0
 38 39  1  0
 29 40  2  0
 40 41  1  0
 10 42  1  0
 42 43  1  0
 42 44  2  0
 44 45  1  0
 45 46  1  0
 45 47  1  0
  4 48  1  0
 48 49  1  0
 49 50  1  0
 49  2  2  0
 44  7  1  0
 20 11  1  0
 40 22  1  0
 38 30  1  0
M  CHG  1  42   1
M  END
>  <score>  (364) 
5.42877

$$$$

     RDKit          3D

 55 59  0  0  0  0  0  0  0  0999 V2000
   15.5525    5.3492   -1.3961 H   0  0  0  0  0  0  0  0  0  0  0  0
   15.5869    4.2832   -1.6053 C   0  0  0  0  0  0  0  0  0  0  0  0
   15.8245    3.8682   -2.8591 N   0  0  0  0  0  0  0  0  0  0  0  0
   15.8795    2.5418   -3.0942 C   0  0  0  0  0  0  0  0  0  0  0  0
   16.0709    2.2031   -4.1077 H   0  0  0  0  0  0  0  0  0  0  0  0
   15.6984    1.5690   -2.0965 C   0  0  0  0  0  0  0  0  0  0  0  0
   15.7754    0.1226   -2.4012 C   0  0  0  0  0  0  0  0  0  0  0  0
   16.3327   -0.3200   -3.6053 C   0  0  0  0  0  0  0  0  0  0  0  0
   16.7108    0.4202   -4.3025 H   0  0  0  0  0  0  0  0  0  0  0  0
   16.4163   -1.6869   -3.8958 C   0  0  0  0  0  0  0  0  0  0  0  0
   16.8620   -2.0080   -4.8314 H   0  0  0  0  0  0  0  0  0  0  0  0
   15.9273   -2.6337   -2.9845 C   0  0  0  0  0  0  0  0  0  0  0  0
   15.9897   -3.6921   -3.2236 H   0  0  0  0  0  0  0  0  0  0  0  0
   15.3551   -2.2259   -1.7655 C   0  0  0  0  0  0  0  0  0  0  0  0
   14.7553   -3.2267   -0.7692 C   0  0  2  0  0  0  0  0  0  0  0  0
   15.1463   -4.6901   -1.0563 C   0  0  0  0  0  0  0  0  0  0  0  0
   16.3750   -5.2095   -0.5976 C   0  0  0  0  0  0  0  0  0  0  0  0
   17.0612   -4.5632   -0.0574 H   0  0  0  0  0  0  0  0  0  0  0  0
   16.7244   -6.5537   -0.8002 C   0  0  0  0  0  0  0  0  0  0  0  0
   17.6648   -6.9414   -0.4184 H   0  0  0  0  0  0  0  0  0  0  0  0
   15.8538   -7.4075   -1.4799 C   0  0  0  0  0  0  0  0  0  0  0  0
   16.1072   -8.4564   -1.6146 H   0  0  0  0  0  0  0  0  0  0  0  0
   14.6418   -6.9094   -1.9642 C   0  0  0  0  0  0  0  0  0  0  0  0
   13.9657   -7.5775   -2.4892 H   0  0  0  0  0  0  0  0  0  0  0  0
   14.2915   -5.5632   -1.7569 C   0  0  0  0  0  0  0  0  0  0  0  0
   13.3423   -5.1957   -2.1325 H   0  0  0  0  0  0  0  0  0  0  0  0
   13.2281   -2.9836   -0.5990 C   0  0  0  0  0  0  0  0  0  0  0  0
   12.3345   -3.1020   -1.4352 O   0  0  0  0  0  0  0  0  0  0  0  0
   12.9732   -2.6650    0.7052 N   0  0  0  0  0  0  0  0  0  0  0  0
   11.7284   -2.4423    1.2139 C   0  0  0  0  0  0  0  0  0  0  0  0
   10.9091   -1.6833    0.4912 N   0  0  0  0  0  0  0  0  0  0  0  0
    9.6808   -1.4578    0.9931 C   0  0  0  0  0  0  0  0  0  0  0  0
    8.7416   -0.6550    0.3992 O   0  0  0  0  0  0  0  0  0  0  0  0
    9.1135    0.0086   -0.8072 C   0  0  0  0  0  0  0  0  0  0  0  0
    8.2513    0.5941   -1.1517 H   0  0  0  0  0  0  0  0  0  0  0  0
    9.3793   -0.7235   -1.5805 H   0  0  0  0  0  0  0  0  0  0  0  0
    9.9578    0.6884   -0.6319 H   0  0  0  0  0  0  0  0  0  0  0  0
    9.2435   -2.0408    2.1775 C   0  0  0  0  0  0  0  0  0  0  0  0
    8.2378   -1.8129    2.4940 H   0  0  0  0  0  0  0  0  0  0  0  0
   10.0731   -2.8713    2.9177 C   0  0  0  0  0  0  0  0  0  0  0  0
    9.7347   -3.3478    3.8405 H   0  0  0  0  0  0  0  0  0  0  0  0
   11.3548   -3.0486    2.4100 C   0  0  0  0  0  0  0  0  0  0  0  0
   12.0740   -3.6732    2.9173 H   0  0  0  0  0  0  0  0  0  0  0  0
   14.1489   -2.6467    1.3903 C   0  0  0  0  0  0  0  0  0  0  0  0
   14.3392   -2.3794    2.7146 N   0  0  0  0  0  0  0  0  0  0  0  0
   15.2978   -2.3368    3.0579 H   0  0  0  0  0  0  0  0  0  0  0  0
   13.5805   -1.9932    3.2740 H   0  0  0  0  0  0  0  0  0  0  0  0
   15.1527   -2.9085    0.6230 N   0  0  0  0  0  4  0  0  0  0  0  0
   16.1186   -2.9377    0.9568 H   0  0  0  0  0  0  0  0  0  0  0  0
   15.2954   -0.8415   -1.4956 C   0  0  0  0  0  0  0  0  0  0  0  0
   14.8564   -0.4984   -0.5641 H   0  0  0  0  0  0  0  0  0  0  0  0
   15.4476    2.0120   -0.7989 C   0  0  0  0  0  0  0  0  0  0  0  0
   15.3342    1.2766   -0.0093 H   0  0  0  0  0  0  0  0  0  0  0  0
   15.3830    3.3852   -0.5567 C   0  0  0  0  0  0  0  0  0  0  0  0
   15.1826    3.7688    0.4355 H   0  0  0  0  0  0  0  0  0  0  0  0
  1  2  1  0
  2  3  2  0
  3  4  1  0
  4  5  1  0
  4  6  2  0
  6  7  1  0
  7  8  2  0
  8  9  1  0
  8 10  1  0
 10 11  1  0
 10 12  2  0
 12 13  1  0
 12 14  1  0
 15 14  1  6
 15 16  1  0
 16 17  2  0
 17 18  1  0
 17 19  1  0
 19 20  1  0
 19 21  2  0
 21 22  1  0
 21 23  1  0
 23 24  1  0
 23 25  2  0
 25 26  1  0
 15 27  1  0
 27 28  2  0
 27 29  1  0
 29 30  1  0
 30 31  2  0
 31 32  1  0
 32 33  1  0
 33 34  1  0
 34 35  1  0
 34 36  1  0
 34 37  1  0
 32 38  2  0
 38 39  1  0
 38 40  1  0
 40 41  1  0
 40 42  2  0
 42 43  1  0
 29 44  1  0
 44 45  1  0
 45 46  1  0
 45 47  1  0
 44 48  2  0
 48 49  1  0
 14 50  2  0
 50 51  1  0
  6 52  1  0
 52 53  1  0
 52 54  2  0
 54 55  1  0
 54  2  1  0
 50  7  1  0
 48 15  1  0
 25 16  1  0
 42 30  1  0
M  CHG  1  48   1
M  END
>  <score>  (365) 
5.42794

$$$$

     RDKit          3D

 63 66  0  0  0  0  0  0  0  0999 V2000
   15.5030    5.3069   -1.4354 H   0  0  0  0  0  0  0  0  0  0  0  0
   15.6054    4.2423   -1.6166 C   0  0  0  0  0  0  0  0  0  0  0  0
   15.8570    3.8259   -2.8670 N   0  0  0  0  0  0  0  0  0  0  0  0
   15.9448    2.5020   -3.0873 C   0  0  0  0  0  0  0  0  0  0  0  0
   16.1482    2.1587   -4.0965 H   0  0  0  0  0  0  0  0  0  0  0  0
   15.7720    1.5402   -2.0804 C   0  0  0  0  0  0  0  0  0  0  0  0
   15.8220    0.1039   -2.3889 C   0  0  0  0  0  0  0  0  0  0  0  0
   16.3311   -0.3535   -3.6117 C   0  0  0  0  0  0  0  0  0  0  0  0
   16.6914    0.3613   -4.3438 H   0  0  0  0  0  0  0  0  0  0  0  0
   16.3844   -1.7212   -3.8946 C   0  0  0  0  0  0  0  0  0  0  0  0
   16.7936   -2.0552   -4.8445 H   0  0  0  0  0  0  0  0  0  0  0  0
   15.9273   -2.6474   -2.9490 C   0  0  0  0  0  0  0  0  0  0  0  0
   15.9818   -3.7087   -3.1746 H   0  0  0  0  0  0  0  0  0  0  0  0
   15.4068   -2.2162   -1.7138 C   0  0  0  0  0  0  0  0  0  0  0  0
   14.8685   -3.1895   -0.6734 C   0  0  2  0  0  0  0  0  0  0  0  0
   15.2397   -4.6285   -0.9793 C   0  0  0  0  0  0  0  0  0  0  0  0
   16.4627   -5.1682   -0.5540 C   0  0  0  0  0  0  0  0  0  0  0  0
   17.1727   -4.5417   -0.0217 H   0  0  0  0  0  0  0  0  0  0  0  0
   16.7702   -6.5090   -0.8015 C   0  0  0  0  0  0  0  0  0  0  0  0
   17.7134   -6.9151   -0.4474 H   0  0  0  0  0  0  0  0  0  0  0  0
   15.8653   -7.3182   -1.4988 C   0  0  0  0  0  0  0  0  0  0  0  0
   16.0984   -8.3615   -1.6835 H   0  0  0  0  0  0  0  0  0  0  0  0
   14.6616   -6.7798   -1.9650 C   0  0  0  0  0  0  0  0  0  0  0  0
   13.9542   -7.3944   -2.5146 H   0  0  0  0  0  0  0  0  0  0  0  0
   14.3582   -5.4418   -1.7109 C   0  0  0  0  0  0  0  0  0  0  0  0
   13.4225   -5.0374   -2.0831 H   0  0  0  0  0  0  0  0  0  0  0  0
   13.3440   -3.0226   -0.5048 C   0  0  0  0  0  0  0  0  0  0  0  0
   12.4655   -3.3783   -1.2896 O   0  0  0  0  0  0  0  0  0  0  0  0
   13.0640   -2.5584    0.7629 N   0  0  0  0  0  0  0  0  0  0  0  0
   11.7345   -2.6155    1.3652 C   0  0  0  0  0  0  0  0  0  0  0  0
   10.9878   -2.2495    0.6495 H   0  0  0  0  0  0  0  0  0  0  0  0
   11.6820   -1.9632    2.2459 H   0  0  0  0  0  0  0  0  0  0  0  0
   11.4011   -4.0600    1.7474 C   0  0  0  0  0  0  0  0  0  0  0  0
   11.4609   -4.6989    0.8591 H   0  0  0  0  0  0  0  0  0  0  0  0
   12.1399   -4.4254    2.4694 H   0  0  0  0  0  0  0  0  0  0  0  0
    9.9960   -4.1298    2.3603 C   0  0  0  0  0  0  0  0  0  0  0  0
    9.7045   -5.1749    2.5000 H   0  0  0  0  0  0  0  0  0  0  0  0
    9.2747   -3.6643    1.6802 H   0  0  0  0  0  0  0  0  0  0  0  0
   10.0061   -3.4014    3.7085 C   0  0  0  0  0  0  0  0  0  0  0  0
   10.7473   -3.8697    4.3598 H   0  0  0  0  0  0  0  0  0  0  0  0
   10.3092   -2.3629    3.5511 H   0  0  0  0  0  0  0  0  0  0  0  0
    8.6620   -3.3900    4.4256 C   0  0  0  0  0  0  0  0  0  0  0  0
    8.8013   -2.8468    5.3617 H   0  0  0  0  0  0  0  0  0  0  0  0
    7.9363   -2.8476    3.8130 H   0  0  0  0  0  0  0  0  0  0  0  0
    8.1307   -4.7868    4.7409 C   0  0  0  0  0  0  0  0  0  0  0  0
    8.1140   -5.3762    3.8232 H   0  0  0  0  0  0  0  0  0  0  0  0
    8.7922   -5.2930    5.4496 H   0  0  0  0  0  0  0  0  0  0  0  0
    6.7177   -4.6980    5.3179 C   0  0  0  0  0  0  0  0  0  0  0  0
    6.7184   -4.1814    6.2815 H   0  0  0  0  0  0  0  0  0  0  0  0
    6.3075   -5.7008    5.4525 H   0  0  0  0  0  0  0  0  0  0  0  0
    6.0627   -4.1462    4.6409 H   0  0  0  0  0  0  0  0  0  0  0  0
   14.2596   -2.5912    1.4530 C   0  0  0  0  0  0  0  0  0  0  0  0
   14.4194   -2.4463    2.8001 N   0  0  0  0  0  0  0  0  0  0  0  0
   13.6490   -2.0203    3.3118 H   0  0  0  0  0  0  0  0  0  0  0  0
   15.3684   -2.2393    3.1067 H   0  0  0  0  0  0  0  0  0  0  0  0
   15.2837   -2.8273    0.6999 N   0  0  0  0  0  4  0  0  0  0  0  0
   16.1995   -3.0719    1.0862 H   0  0  0  0  0  0  0  0  0  0  0  0
   15.3446   -0.8367   -1.4661 C   0  0  0  0  0  0  0  0  0  0  0  0
   14.9102   -0.4848   -0.5359 H   0  0  0  0  0  0  0  0  0  0  0  0
   15.5476    1.9849   -0.7761 C   0  0  0  0  0  0  0  0  0  0  0  0
   15.4466    1.2737    0.0392 H   0  0  0  0  0  0  0  0  0  0  0  0
   15.4610    3.3539   -0.5474 C   0  0  0  0  0  0  0  0  0  0  0  0
   15.2755    3.7268    0.4527 H   0  0  0  0  0  0  0  0  0  0  0  0
  1  2  1  0
  2  3  2  0
  3  4  1  0
  4  5  1  0
  4  6  2  0
  6  7  1  0
  7  8  2  0
  8  9  1  0
  8 10  1  0
 10 11  1  0
 10 12  2  0
 12 13  1  0
 12 14  1  0
 15 14  1  6
 15 16  1  0
 16 17  2  0
 17 18  1  0
 17 19  1  0
 19 20  1  0
 19 21  2  0
 21 22  1  0
 21 23  1  0
 23 24  1  0
 23 25  2  0
 25 26  1  0
 15 27  1  0
 27 28  2  0
 27 29  1  0
 29 30  1  0
 30 31  1  0
 30 32  1  0
 30 33  1  0
 33 34  1  0
 33 35  1  0
 33 36  1  0
 36 37  1  0
 36 38  1  0
 36 39  1  0
 39 40  1  0
 39 41  1  0
 39 42  1  0
 42 43  1  0
 42 44  1  0
 42 45  1  0
 45 46  1  0
 45 47  1  0
 45 48  1  0
 48 49  1  0
 48 50  1  0
 48 51  1  0
 29 52  1  0
 52 53  1  0
 53 54  1  0
 53 55  1  0
 52 56  2  0
 56 57  1  0
 14 58  2  0
 58 59  1  0
  6 60  1  0
 60 61  1  0
 60 62  2  0
 62 63  1  0
 62  2  1  0
 58  7  1  0
 56 15  1  0
 25 16  1  0
M  CHG  1  56   1
M  END
>  <score>  (366) 
5.42745

$$$$

     RDKit          3D

 55 59  0  0  0  0  0  0  0  0999 V2000
   15.5665    5.3702   -1.3877 H   0  0  0  0  0  0  0  0  0  0  0  0
   15.5839    4.3006   -1.5978 C   0  0  0  0  0  0  0  0  0  0  0  0
   15.8184    3.8788   -2.8509 N   0  0  0  0  0  0  0  0  0  0  0  0
   15.8673    2.5504   -3.0889 C   0  0  0  0  0  0  0  0  0  0  0  0
   16.0523    2.2171   -4.1041 H   0  0  0  0  0  0  0  0  0  0  0  0
   15.6884    1.5699   -2.0977 C   0  0  0  0  0  0  0  0  0  0  0  0
   15.7705    0.1196   -2.4110 C   0  0  0  0  0  0  0  0  0  0  0  0
   16.3435   -0.3202   -3.6111 C   0  0  0  0  0  0  0  0  0  0  0  0
   16.7205    0.4160   -4.3141 H   0  0  0  0  0  0  0  0  0  0  0  0
   16.4323   -1.6880   -3.9074 C   0  0  0  0  0  0  0  0  0  0  0  0
   16.8645   -2.0053   -4.8517 H   0  0  0  0  0  0  0  0  0  0  0  0
   15.9445   -2.6429   -3.0044 C   0  0  0  0  0  0  0  0  0  0  0  0
   16.0021   -3.7017   -3.2507 H   0  0  0  0  0  0  0  0  0  0  0  0
   15.3747   -2.2403   -1.7856 C   0  0  0  0  0  0  0  0  0  0  0  0
   14.8157   -3.2490   -0.7836 C   0  0  2  0  0  0  0  0  0  0  0  0
   15.1774   -4.7123   -1.0737 C   0  0  0  0  0  0  0  0  0  0  0  0
   16.3947   -5.2343   -0.6094 C   0  0  0  0  0  0  0  0  0  0  0  0
   17.0674   -4.5818   -0.0608 H   0  0  0  0  0  0  0  0  0  0  0  0
   16.7316   -6.5784   -0.8049 C   0  0  0  0  0  0  0  0  0  0  0  0
   17.6709   -6.9570   -0.4150 H   0  0  0  0  0  0  0  0  0  0  0  0
   15.8540   -7.4352   -1.4739 C   0  0  0  0  0  0  0  0  0  0  0  0
   16.1168   -8.4826   -1.6118 H   0  0  0  0  0  0  0  0  0  0  0  0
   14.6432   -6.9339   -1.9608 C   0  0  0  0  0  0  0  0  0  0  0  0
   13.9699   -7.6054   -2.4863 H   0  0  0  0  0  0  0  0  0  0  0  0
   14.3060   -5.5829   -1.7656 C   0  0  0  0  0  0  0  0  0  0  0  0
   13.3542   -5.2227   -2.1463 H   0  0  0  0  0  0  0  0  0  0  0  0
   13.3019   -3.0420   -0.5891 C   0  0  0  0  0  0  0  0  0  0  0  0
   12.4261   -3.1274   -1.4456 O   0  0  0  0  0  0  0  0  0  0  0  0
   13.0220   -2.6680    0.7036 N   0  0  0  0  0  0  0  0  0  0  0  0
   11.7053   -2.7437    1.3339 C   0  0  0  0  0  0  0  0  0  0  0  0
   10.9047   -2.5217    0.6155 H   0  0  0  0  0  0  0  0  0  0  0  0
   11.6252   -2.0093    2.1415 H   0  0  0  0  0  0  0  0  0  0  0  0
   11.5091   -4.1304    1.8748 C   0  0  0  0  0  0  0  0  0  0  0  0
   11.5687   -4.3601    3.2537 C   0  0  0  0  0  0  0  0  0  0  0  0
   11.7545   -3.5539    3.9540 H   0  0  0  0  0  0  0  0  0  0  0  0
   11.3934   -5.6398    3.7596 C   0  0  0  0  0  0  0  0  0  0  0  0
   11.4468   -5.7735    4.8371 H   0  0  0  0  0  0  0  0  0  0  0  0
   11.1801   -6.7078    2.8750 C   0  0  0  0  0  0  0  0  0  0  0  0
   11.0813   -7.7228    3.2219 H   0  0  0  0  0  0  0  0  0  0  0  0
   11.1072   -6.5015    1.5014 C   0  0  0  0  0  0  0  0  0  0  0  0
   10.8953   -7.5457    0.6649 F   0  0  0  0  0  0  0  0  0  0  0  0
   11.2655   -5.2081    1.0090 C   0  0  0  0  0  0  0  0  0  0  0  0
   11.2084   -5.0500   -0.0595 H   0  0  0  0  0  0  0  0  0  0  0  0
   14.2255   -2.6319    1.3657 C   0  0  0  0  0  0  0  0  0  0  0  0
   14.3938   -2.3636    2.6923 N   0  0  0  0  0  0  0  0  0  0  0  0
   13.5916   -2.0788    3.2480 H   0  0  0  0  0  0  0  0  0  0  0  0
   15.3350   -2.3668    3.0861 H   0  0  0  0  0  0  0  0  0  0  0  0
   15.2222   -2.8903    0.5921 N   0  0  0  0  0  4  0  0  0  0  0  0
   16.1877   -2.9227    0.9144 H   0  0  0  0  0  0  0  0  0  0  0  0
   15.2964   -0.8554   -1.5146 C   0  0  0  0  0  0  0  0  0  0  0  0
   14.8698   -0.5230   -0.5751 H   0  0  0  0  0  0  0  0  0  0  0  0
   15.4401    2.0211   -0.7992 C   0  0  0  0  0  0  0  0  0  0  0  0
   15.3076    1.2961   -0.0041 H   0  0  0  0  0  0  0  0  0  0  0  0
   15.3762    3.3980   -0.5522 C   0  0  0  0  0  0  0  0  0  0  0  0
   15.1694    3.7863    0.4398 H   0  0  0  0  0  0  0  0  0  0  0  0
  1  2  1  0
  2  3  2  0
  3  4  1  0
  4  5  1  0
  4  6  2  0
  6  7  1  0
  7  8  2  0
  8  9  1  0
  8 10  1  0
 10 11  1  0
 10 12  2  0
 12 13  1  0
 12 14  1  0
 15 14  1  6
 15 16  1  0
 16 17  2  0
 17 18  1  0
 17 19  1  0
 19 20  1  0
 19 21  2  0
 21 22  1  0
 21 23  1  0
 23 24  1  0
 23 25  2  0
 25 26  1  0
 15 27  1  0
 27 28  2  0
 27 29  1  0
 29 30  1  0
 30 31  1  0
 30 32  1  0
 30 33  1  0
 33 34  2  0
 34 35  1  0
 34 36  1  0
 36 37  1  0
 36 38  2  0
 38 39  1  0
 38 40  1  0
 40 41  1  0
 40 42  2  0
 42 43  1  0
 29 44  1  0
 44 45  1  0
 45 46  1  0
 45 47  1  0
 44 48  2  0
 48 49  1  0
 14 50  2  0
 50 51  1  0
  6 52  1  0
 52 53  1  0
 52 54  2  0
 54 55  1  0
 54  2  1  0
 50  7  1  0
 48 15  1  0
 25 16  1  0
 42 33  1  0
M  CHG  1  48   1
M  END
>  <score>  (367) 
5.42605

$$$$

     RDKit          3D

 58 62  0  0  0  0  0  0  0  0999 V2000
   15.5589    5.3010   -1.3659 H   0  0  0  0  0  0  0  0  0  0  0  0
   15.6500    4.2424   -1.5902 C   0  0  0  0  0  0  0  0  0  0  0  0
   15.9071    3.8689   -2.8530 N   0  0  0  0  0  0  0  0  0  0  0  0
   16.0039    2.5534   -3.1199 C   0  0  0  0  0  0  0  0  0  0  0  0
   16.2017    2.2571   -4.1459 H   0  0  0  0  0  0  0  0  0  0  0  0
   15.8433    1.5506   -2.1476 C   0  0  0  0  0  0  0  0  0  0  0  0
   15.9240    0.1224   -2.5065 C   0  0  0  0  0  0  0  0  0  0  0  0
   16.4495   -0.2725   -3.7445 C   0  0  0  0  0  0  0  0  0  0  0  0
   16.8116    0.4783   -4.4395 H   0  0  0  0  0  0  0  0  0  0  0  0
   16.5011   -1.6241   -4.0944 C   0  0  0  0  0  0  0  0  0  0  0  0
   16.9037   -1.9084   -5.0608 H   0  0  0  0  0  0  0  0  0  0  0  0
   16.0266   -2.6003   -3.2105 C   0  0  0  0  0  0  0  0  0  0  0  0
   16.0603   -3.6462   -3.4991 H   0  0  0  0  0  0  0  0  0  0  0  0
   15.5079   -2.2397   -1.9560 C   0  0  0  0  0  0  0  0  0  0  0  0
   14.9637   -3.2777   -0.9795 C   0  0  2  0  0  0  0  0  0  0  0  0
   15.3715   -4.7179   -1.2647 C   0  0  0  0  0  0  0  0  0  0  0  0
   16.5717   -5.2269   -0.7477 C   0  0  0  0  0  0  0  0  0  0  0  0
   17.2385   -4.5650   -0.2029 H   0  0  0  0  0  0  0  0  0  0  0  0
   16.8904   -6.5800   -0.8796 C   0  0  0  0  0  0  0  0  0  0  0  0
   17.8072   -6.9559   -0.4384 H   0  0  0  0  0  0  0  0  0  0  0  0
   16.0192   -7.4450   -1.5463 C   0  0  0  0  0  0  0  0  0  0  0  0
   16.2558   -8.5013   -1.6256 H   0  0  0  0  0  0  0  0  0  0  0  0
   14.8329   -6.9475   -2.0924 C   0  0  0  0  0  0  0  0  0  0  0  0
   14.1468   -7.6173   -2.5996 H   0  0  0  0  0  0  0  0  0  0  0  0
   14.5128   -5.5922   -1.9588 C   0  0  0  0  0  0  0  0  0  0  0  0
   13.5726   -5.2287   -2.3663 H   0  0  0  0  0  0  0  0  0  0  0  0
   13.4327   -3.1866   -0.8295 C   0  0  0  0  0  0  0  0  0  0  0  0
   12.6241   -3.2639   -1.7518 O   0  0  0  0  0  0  0  0  0  0  0  0
   13.1036   -3.0409    0.5026 N   0  0  0  0  0  0  0  0  0  0  0  0
   11.8133   -2.8673    1.0324 C   0  0  0  0  0  0  0  0  0  0  0  0
   11.6300   -2.8464    2.4166 C   0  0  0  0  0  0  0  0  0  0  0  0
   12.4479   -3.0994    3.0794 H   0  0  0  0  0  0  0  0  0  0  0  0
   10.4084   -2.4721    2.9666 C   0  0  0  0  0  0  0  0  0  0  0  0
   10.3152   -2.4192    4.0494 H   0  0  0  0  0  0  0  0  0  0  0  0
    9.3414   -2.1389    2.1304 C   0  0  0  0  0  0  0  0  0  0  0  0
    8.1250   -1.5005    2.7259 C   0  0  0  0  0  0  0  0  0  0  0  0
    8.4053   -0.9741    3.6425 H   0  0  0  0  0  0  0  0  0  0  0  0
    7.3583   -2.2479    2.9564 H   0  0  0  0  0  0  0  0  0  0  0  0
    7.7400   -0.7534    2.0233 H   0  0  0  0  0  0  0  0  0  0  0  0
    9.4451   -2.3511    0.7454 C   0  0  0  0  0  0  0  0  0  0  0  0
    8.2312   -2.2343   -0.1353 C   0  0  0  0  0  0  0  0  0  0  0  0
    7.4013   -2.7972    0.3131 H   0  0  0  0  0  0  0  0  0  0  0  0
    8.4371   -2.6336   -1.1352 H   0  0  0  0  0  0  0  0  0  0  0  0
    7.9321   -1.1879   -0.2279 H   0  0  0  0  0  0  0  0  0  0  0  0
   10.6965   -2.6868    0.2031 C   0  0  0  0  0  0  0  0  0  0  0  0
   10.7881   -2.7891   -0.8728 H   0  0  0  0  0  0  0  0  0  0  0  0
   14.2994   -2.8603    1.1777 C   0  0  0  0  0  0  0  0  0  0  0  0
   14.5029   -2.5932    2.5050 N   0  0  0  0  0  0  0  0  0  0  0  0
   13.7213   -2.6511    3.1522 H   0  0  0  0  0  0  0  0  0  0  0  0
   15.4595   -2.6054    2.8600 H   0  0  0  0  0  0  0  0  0  0  0  0
   15.3334   -2.9416    0.4066 N   0  0  0  0  0  4  0  0  0  0  0  0
   16.2996   -2.8690    0.7326 H   0  0  0  0  0  0  0  0  0  0  0  0
   15.4586   -0.8705   -1.6283 C   0  0  0  0  0  0  0  0  0  0  0  0
   15.0432   -0.5655   -0.6716 H   0  0  0  0  0  0  0  0  0  0  0  0
   15.5918    1.9511   -0.8310 C   0  0  0  0  0  0  0  0  0  0  0  0
   15.4832    1.2143   -0.0383 H   0  0  0  0  0  0  0  0  0  0  0  0
   15.4929    3.3146   -0.5582 C   0  0  0  0  0  0  0  0  0  0  0  0
   15.2942    3.6637    0.4485 H   0  0  0  0  0  0  0  0  0  0  0  0
  1  2  1  0
  2  3  2  0
  3  4  1  0
  4  5  1  0
  4  6  2  0
  6  7  1  0
  7  8  2  0
  8  9  1  0
  8 10  1  0
 10 11  1  0
 10 12  2  0
 12 13  1  0
 12 14  1  0
 15 14  1  6
 15 16  1  0
 16 17  2  0
 17 18  1  0
 17 19  1  0
 19 20  1  0
 19 21  2  0
 21 22  1  0
 21 23  1  0
 23 24  1  0
 23 25  2  0
 25 26  1  0
 15 27  1  0
 27 28  2  0
 27 29  1  0
 29 30  1  0
 30 31  2  0
 31 32  1  0
 31 33  1  0
 33 34  1  0
 33 35  2  0
 35 36  1  0
 36 37  1  0
 36 38  1  0
 36 39  1  0
 35 40  1  0
 40 41  1  0
 41 42  1  0
 41 43  1  0
 41 44  1  0
 40 45  2  0
 45 46  1  0
 29 47  1  0
 47 48  1  0
 48 49  1  0
 48 50  1  0
 47 51  2  0
 51 52  1  0
 14 53  2  0
 53 54  1  0
  6 55  1  0
 55 56  1  0
 55 57  2  0
 57 58  1  0
 57  2  1  0
 53  7  1  0
 51 15  1  0
 25 16  1  0
 45 30  1  0
M  CHG  1  51   1
M  END
>  <score>  (368) 
5.4247

$$$$

     RDKit          3D

 61 65  0  0  0  0  0  0  0  0999 V2000
   15.5375    5.3265   -1.4033 H   0  0  0  0  0  0  0  0  0  0  0  0
   15.6131    4.2613   -1.6031 C   0  0  0  0  0  0  0  0  0  0  0  0
   15.8555    3.8541   -2.8577 N   0  0  0  0  0  0  0  0  0  0  0  0
   15.9491    2.5318   -3.0928 C   0  0  0  0  0  0  0  0  0  0  0  0
   16.1396    2.2090   -4.1111 H   0  0  0  0  0  0  0  0  0  0  0  0
   15.8028    1.5554   -2.0923 C   0  0  0  0  0  0  0  0  0  0  0  0
   15.9137    0.1180   -2.4069 C   0  0  0  0  0  0  0  0  0  0  0  0
   16.3827   -0.3114   -3.6564 C   0  0  0  0  0  0  0  0  0  0  0  0
   16.6766    0.4216   -4.4000 H   0  0  0  0  0  0  0  0  0  0  0  0
   16.4738   -1.6748   -3.9563 C   0  0  0  0  0  0  0  0  0  0  0  0
   16.8257   -1.9921   -4.9319 H   0  0  0  0  0  0  0  0  0  0  0  0
   16.1040   -2.6288   -3.0036 C   0  0  0  0  0  0  0  0  0  0  0  0
   16.1525   -3.6867   -3.2456 H   0  0  0  0  0  0  0  0  0  0  0  0
   15.6457   -2.2310   -1.7398 C   0  0  0  0  0  0  0  0  0  0  0  0
   15.1389   -3.2415   -0.7256 C   0  0  2  0  0  0  0  0  0  0  0  0
   15.4465   -4.6962   -1.0597 C   0  0  0  0  0  0  0  0  0  0  0  0
   16.6362   -5.2978   -0.6200 C   0  0  0  0  0  0  0  0  0  0  0  0
   17.3621   -4.7030   -0.0719 H   0  0  0  0  0  0  0  0  0  0  0  0
   16.8762   -6.6561   -0.8540 C   0  0  0  0  0  0  0  0  0  0  0  0
   17.7935   -7.1056   -0.4868 H   0  0  0  0  0  0  0  0  0  0  0  0
   15.9325   -7.4294   -1.5380 C   0  0  0  0  0  0  0  0  0  0  0  0
   16.1080   -8.4888   -1.6975 H   0  0  0  0  0  0  0  0  0  0  0  0
   14.7521   -6.8385   -1.9978 C   0  0  0  0  0  0  0  0  0  0  0  0
   14.0126   -7.4337   -2.5233 H   0  0  0  0  0  0  0  0  0  0  0  0
   14.5148   -5.4807   -1.7649 C   0  0  0  0  0  0  0  0  0  0  0  0
   13.5864   -5.0375   -2.1148 H   0  0  0  0  0  0  0  0  0  0  0  0
   13.6358   -3.0318   -0.5533 C   0  0  0  0  0  0  0  0  0  0  0  0
   12.7869   -3.1139   -1.4420 O   0  0  0  0  0  0  0  0  0  0  0  0
   13.3765   -2.7601    0.7644 N   0  0  0  0  0  0  0  0  0  0  0  0
   12.1091   -2.5119    1.2380 C   0  0  0  0  0  0  0  0  0  0  0  0
   11.2951   -1.7180    0.4364 C   0  0  0  0  0  0  0  0  0  0  0  0
   11.7159   -1.2071   -0.4259 H   0  0  0  0  0  0  0  0  0  0  0  0
    9.9449   -1.6186    0.7238 C   0  0  0  0  0  0  0  0  0  0  0  0
    9.2990   -1.0166    0.0918 H   0  0  0  0  0  0  0  0  0  0  0  0
    9.4324   -2.3056    1.8291 C   0  0  0  0  0  0  0  0  0  0  0  0
    8.0073   -2.1034    2.1727 C   0  0  0  0  0  0  0  0  0  0  0  0
    7.4789   -1.9014    1.2402 H   0  0  0  0  0  0  0  0  0  0  0  0
    7.3447   -3.2775    2.9036 C   0  0  0  0  0  0  0  0  0  0  0  0
    6.3646   -2.9762    3.2937 H   0  0  0  0  0  0  0  0  0  0  0  0
    7.1955   -4.1086    2.2075 H   0  0  0  0  0  0  0  0  0  0  0  0
    7.9742   -3.6057    3.7417 H   0  0  0  0  0  0  0  0  0  0  0  0
    8.0283   -0.8936    3.0742 C   0  0  0  0  0  0  0  0  0  0  0  0
    8.7792   -1.0532    3.8466 H   0  0  0  0  0  0  0  0  0  0  0  0
    8.2892    0.0118    2.5230 H   0  0  0  0  0  0  0  0  0  0  0  0
    7.0574   -0.7681    3.5373 H   0  0  0  0  0  0  0  0  0  0  0  0
   10.2554   -3.0864    2.6444 C   0  0  0  0  0  0  0  0  0  0  0  0
    9.8352   -3.6187    3.4929 H   0  0  0  0  0  0  0  0  0  0  0  0
   11.6106   -3.1882    2.3501 C   0  0  0  0  0  0  0  0  0  0  0  0
   12.2502   -3.8256    2.9536 H   0  0  0  0  0  0  0  0  0  0  0  0
   14.5516   -2.7375    1.4552 C   0  0  0  0  0  0  0  0  0  0  0  0
   14.6352   -2.5283    2.8015 N   0  0  0  0  0  0  0  0  0  0  0  0
   13.8051   -2.1984    3.2858 H   0  0  0  0  0  0  0  0  0  0  0  0
   15.5397   -2.2660    3.1734 H   0  0  0  0  0  0  0  0  0  0  0  0
   15.5511   -2.9316    0.6593 N   0  0  0  0  0  4  0  0  0  0  0  0
   16.5200   -2.9802    0.9667 H   0  0  0  0  0  0  0  0  0  0  0  0
   15.5432   -0.8546   -1.4648 C   0  0  0  0  0  0  0  0  0  0  0  0
   15.1444   -0.5320   -0.5075 H   0  0  0  0  0  0  0  0  0  0  0  0
   15.5546    1.9911   -0.7873 C   0  0  0  0  0  0  0  0  0  0  0  0
   15.4537    1.2751    0.0246 H   0  0  0  0  0  0  0  0  0  0  0  0
   15.4559    3.3607   -0.5475 C   0  0  0  0  0  0  0  0  0  0  0  0
   15.2624    3.7362    0.4500 H   0  0  0  0  0  0  0  0  0  0  0  0
  1  2  1  0
  2  3  2  0
  3  4  1  0
  4  5  1  0
  4  6  2  0
  6  7  1  0
  7  8  2  0
  8  9  1  0
  8 10  1  0
 10 11  1  0
 10 12  2  0
 12 13  1  0
 12 14  1  0
 15 14  1  6
 15 16  1  0
 16 17  2  0
 17 18  1  0
 17 19  1  0
 19 20  1  0
 19 21  2  0
 21 22  1  0
 21 23  1  0
 23 24  1  0
 23 25  2  0
 25 26  1  0
 15 27  1  0
 27 28  2  0
 27 29  1  0
 29 30  1  0
 30 31  2  0
 31 32  1  0
 31 33  1  0
 33 34  1  0
 33 35  2  0
 35 36  1  0
 36 37  1  0
 36 38  1  0
 38 39  1  0
 38 40  1  0
 38 41  1  0
 36 42  1  0
 42 43  1  0
 42 44  1  0
 42 45  1  0
 35 46  1  0
 46 47  1  0
 46 48  2  0
 48 49  1  0
 29 50  1  0
 50 51  1  0
 51 52  1  0
 51 53  1  0
 50 54  2  0
 54 55  1  0
 14 56  2  0
 56 57  1  0
  6 58  1  0
 58 59  1  0
 58 60  2  0
 60 61  1  0
 60  2  1  0
 56  7  1  0
 54 15  1  0
 25 16  1  0
 48 30  1  0
M  CHG  1  54   1
M  END
>  <score>  (369) 
5.4242

$$$$

     RDKit          3D

 64 68  0  0  0  0  0  0  0  0999 V2000
   15.5188    5.2284   -1.3927 H   0  0  0  0  0  0  0  0  0  0  0  0
   15.6104    4.1631   -1.5838 C   0  0  0  0  0  0  0  0  0  0  0  0
   15.8379    3.7504   -2.8387 N   0  0  0  0  0  0  0  0  0  0  0  0
   15.9533    2.4287   -3.0626 C   0  0  0  0  0  0  0  0  0  0  0  0
   16.1280    2.1016   -4.0821 H   0  0  0  0  0  0  0  0  0  0  0  0
   15.8465    1.4573   -2.0509 C   0  0  0  0  0  0  0  0  0  0  0  0
   15.9742    0.0215   -2.3721 C   0  0  0  0  0  0  0  0  0  0  0  0
   16.3956   -0.3921   -3.6415 C   0  0  0  0  0  0  0  0  0  0  0  0
   16.6515    0.3524   -4.3881 H   0  0  0  0  0  0  0  0  0  0  0  0
   16.4827   -1.7506   -3.9628 C   0  0  0  0  0  0  0  0  0  0  0  0
   16.7977   -2.0469   -4.9563 H   0  0  0  0  0  0  0  0  0  0  0  0
   16.1384   -2.7198   -3.0150 C   0  0  0  0  0  0  0  0  0  0  0  0
   16.1769   -3.7726   -3.2806 H   0  0  0  0  0  0  0  0  0  0  0  0
   15.7117   -2.3406   -1.7364 C   0  0  0  0  0  0  0  0  0  0  0  0
   15.1533   -3.3546   -0.7478 C   0  0  2  0  0  0  0  0  0  0  0  0
   15.5032   -4.8086   -1.0473 C   0  0  0  0  0  0  0  0  0  0  0  0
   16.7006   -5.3826   -0.5842 C   0  0  0  0  0  0  0  0  0  0  0  0
   17.4005   -4.7819   -0.0117 H   0  0  0  0  0  0  0  0  0  0  0  0
   16.9942   -6.7286   -0.8385 C   0  0  0  0  0  0  0  0  0  0  0  0
   17.9182   -7.1604   -0.4640 H   0  0  0  0  0  0  0  0  0  0  0  0
   16.0979   -7.5173   -1.5660 C   0  0  0  0  0  0  0  0  0  0  0  0
   16.3197   -8.5628   -1.7589 H   0  0  0  0  0  0  0  0  0  0  0  0
   14.9090   -6.9566   -2.0424 C   0  0  0  0  0  0  0  0  0  0  0  0
   14.2070   -7.5621   -2.6070 H   0  0  0  0  0  0  0  0  0  0  0  0
   14.6178   -5.6127   -1.7848 C   0  0  0  0  0  0  0  0  0  0  0  0
   13.6863   -5.1940   -2.1545 H   0  0  0  0  0  0  0  0  0  0  0  0
   13.6390   -3.0961   -0.6896 C   0  0  0  0  0  0  0  0  0  0  0  0
   12.8283   -3.2915   -1.5952 O   0  0  0  0  0  0  0  0  0  0  0  0
   13.3404   -2.4750    0.5063 N   0  0  0  0  0  0  0  0  0  0  0  0
   12.1030   -1.8647    0.8562 O   0  0  0  0  0  0  0  0  0  0  0  0
   11.7692   -0.8211   -0.0698 C   0  0  0  0  0  0  0  0  0  0  0  0
   12.6358   -0.1842   -0.2756 H   0  0  0  0  0  0  0  0  0  0  0  0
   11.4393   -1.2551   -1.0163 H   0  0  0  0  0  0  0  0  0  0  0  0
   10.6654    0.0483    0.4902 C   0  0  0  0  0  0  0  0  0  0  0  0
   11.0514    0.5703    1.3624 H   0  0  0  0  0  0  0  0  0  0  0  0
    9.8331   -0.5894    0.8069 H   0  0  0  0  0  0  0  0  0  0  0  0
   10.2287    1.0447   -0.5114 N   0  0  0  0  0  0  0  0  0  0  0  0
   11.3329    1.8803   -1.0389 C   0  0  0  0  0  0  0  0  0  0  0  0
   11.9238    1.2877   -1.7414 H   0  0  0  0  0  0  0  0  0  0  0  0
   11.9937    2.1727   -0.2178 H   0  0  0  0  0  0  0  0  0  0  0  0
   10.8444    3.1519   -1.7242 C   0  0  0  0  0  0  0  0  0  0  0  0
   11.7120    3.7446   -2.0167 H   0  0  0  0  0  0  0  0  0  0  0  0
   10.3031    2.8849   -2.6378 H   0  0  0  0  0  0  0  0  0  0  0  0
    9.9461    3.9992   -0.8098 C   0  0  0  0  0  0  0  0  0  0  0  0
   10.5498    4.7766   -0.3169 H   0  0  0  0  0  0  0  0  0  0  0  0
    9.2087    4.4972   -1.4445 H   0  0  0  0  0  0  0  0  0  0  0  0
    9.2243    3.1486    0.2560 C   0  0  0  0  0  0  0  0  0  0  0  0
    9.8628    3.0747    1.1358 H   0  0  0  0  0  0  0  0  0  0  0  0
    8.2944    3.6320    0.5712 H   0  0  0  0  0  0  0  0  0  0  0  0
    8.9453    1.7279   -0.2467 C   0  0  0  0  0  0  0  0  0  0  0  0
    8.3545    1.7785   -1.1721 H   0  0  0  0  0  0  0  0  0  0  0  0
    8.3735    1.1682    0.5077 H   0  0  0  0  0  0  0  0  0  0  0  0
   14.4878   -2.4922    1.2823 C   0  0  0  0  0  0  0  0  0  0  0  0
   14.6187   -2.0566    2.5742 N   0  0  0  0  0  0  0  0  0  0  0  0
   15.4844   -2.2781    3.0665 H   0  0  0  0  0  0  0  0  0  0  0  0
   13.7733   -1.8981    3.1201 H   0  0  0  0  0  0  0  0  0  0  0  0
   15.4892   -2.9997    0.6403 N   0  0  0  0  0  4  0  0  0  0  0  0
   16.4256   -3.1148    1.0315 H   0  0  0  0  0  0  0  0  0  0  0  0
   15.6428   -0.9652   -1.4302 C   0  0  0  0  0  0  0  0  0  0  0  0
   15.2876   -0.6560   -0.4533 H   0  0  0  0  0  0  0  0  0  0  0  0
   15.6084    1.8983   -0.7458 C   0  0  0  0  0  0  0  0  0  0  0  0
   15.5294    1.1882    0.0745 H   0  0  0  0  0  0  0  0  0  0  0  0
   15.4870    3.2688   -0.5173 C   0  0  0  0  0  0  0  0  0  0  0  0
   15.3017    3.6494    0.4796 H   0  0  0  0  0  0  0  0  0  0  0  0
  1  2  1  0
  2  3  2  0
  3  4  1  0
  4  5  1  0
  4  6  2  0
  6  7  1  0
  7  8  2  0
  8  9  1  0
  8 10  1  0
 10 11  1  0
 10 12  2  0
 12 13  1  0
 12 14  1  0
 15 14  1  6
 15 16  1  0
 16 17  2  0
 17 18  1  0
 17 19  1  0
 19 20  1  0
 19 21  2  0
 21 22  1  0
 21 23  1  0
 23 24  1  0
 23 25  2  0
 25 26  1  0
 15 27  1  0
 27 28  2  0
 27 29  1  0
 29 30  1  0
 30 31  1  0
 31 32  1  0
 31 33  1  0
 31 34  1  0
 34 35  1  0
 34 36  1  0
 34 37  1  0
 37 38  1  0
 38 39  1  0
 38 40  1  0
 38 41  1  0
 41 42  1  0
 41 43  1  0
 41 44  1  0
 44 45  1  0
 44 46  1  0
 44 47  1  0
 47 48  1  0
 47 49  1  0
 47 50  1  0
 50 51  1  0
 50 52  1  0
 29 53  1  0
 53 54  1  0
 54 55  1  0
 54 56  1  0
 53 57  2  0
 57 58  1  0
 14 59  2  0
 59 60  1  0
  6 61  1  0
 61 62  1  0
 61 63  2  0
 63 64  1  0
 63  2  1  0
 59  7  1  0
 57 15  1  0
 25 16  1  0
 50 37  1  0
M  CHG  1  57   1
M  END
>  <score>  (370) 
5.42416

$$$$

     RDKit          3D

 51 55  0  0  0  0  0  0  0  0999 V2000
   15.5709    5.3721   -1.3884 H   0  0  0  0  0  0  0  0  0  0  0  0
   15.5850    4.3035   -1.5946 C   0  0  0  0  0  0  0  0  0  0  0  0
   15.8205    3.8817   -2.8464 N   0  0  0  0  0  0  0  0  0  0  0  0
   15.8624    2.5546   -3.0865 C   0  0  0  0  0  0  0  0  0  0  0  0
   16.0404    2.2333   -4.1070 H   0  0  0  0  0  0  0  0  0  0  0  0
   15.6837    1.5720   -2.0945 C   0  0  0  0  0  0  0  0  0  0  0  0
   15.7739    0.1186   -2.4101 C   0  0  0  0  0  0  0  0  0  0  0  0
   16.3477   -0.3234   -3.6131 C   0  0  0  0  0  0  0  0  0  0  0  0
   16.7298    0.4000   -4.3268 H   0  0  0  0  0  0  0  0  0  0  0  0
   16.4312   -1.6915   -3.9091 C   0  0  0  0  0  0  0  0  0  0  0  0
   16.8664   -2.0083   -4.8535 H   0  0  0  0  0  0  0  0  0  0  0  0
   15.9431   -2.6460   -3.0041 C   0  0  0  0  0  0  0  0  0  0  0  0
   16.0057   -3.7006   -3.2619 H   0  0  0  0  0  0  0  0  0  0  0  0
   15.3734   -2.2447   -1.7805 C   0  0  0  0  0  0  0  0  0  0  0  0
   14.7913   -3.2463   -0.7789 C   0  0  2  0  0  0  0  0  0  0  0  0
   15.1587   -4.7142   -1.0663 C   0  0  0  0  0  0  0  0  0  0  0  0
   16.3833   -5.2368   -0.6073 C   0  0  0  0  0  0  0  0  0  0  0  0
   17.0680   -4.5904   -0.0667 H   0  0  0  0  0  0  0  0  0  0  0  0
   16.7275   -6.5810   -0.8014 C   0  0  0  0  0  0  0  0  0  0  0  0
   17.6732   -6.9551   -0.4185 H   0  0  0  0  0  0  0  0  0  0  0  0
   15.8544   -7.4418   -1.4709 C   0  0  0  0  0  0  0  0  0  0  0  0
   16.1229   -8.4872   -1.6113 H   0  0  0  0  0  0  0  0  0  0  0  0
   14.6432   -6.9419   -1.9610 C   0  0  0  0  0  0  0  0  0  0  0  0
   13.9728   -7.6151   -2.4884 H   0  0  0  0  0  0  0  0  0  0  0  0
   14.2995   -5.5910   -1.7667 C   0  0  0  0  0  0  0  0  0  0  0  0
   13.3515   -5.2385   -2.1615 H   0  0  0  0  0  0  0  0  0  0  0  0
   13.2763   -2.9996   -0.5983 C   0  0  0  0  0  0  0  0  0  0  0  0
   12.4186   -3.0857   -1.4761 O   0  0  0  0  0  0  0  0  0  0  0  0
   13.0006   -2.6724    0.7126 N   0  0  0  0  0  0  0  0  0  0  0  0
   11.7363   -2.4937    1.2639 C   0  0  0  0  0  0  0  0  0  0  0  0
   10.8273   -1.6124    0.7094 C   0  0  0  0  0  0  0  0  0  0  0  0
   11.1011   -1.0178   -0.1487 H   0  0  0  0  0  0  0  0  0  0  0  0
    9.5664   -1.4700    1.2840 C   0  0  0  0  0  0  0  0  0  0  0  0
    8.8701   -0.7709    0.8451 H   0  0  0  0  0  0  0  0  0  0  0  0
    9.1597   -2.1691    2.3498 N   0  0  0  0  0  0  0  0  0  0  0  0
   10.0484   -3.0135    2.8891 C   0  0  0  0  0  0  0  0  0  0  0  0
    9.7384   -3.5909    3.7466 H   0  0  0  0  0  0  0  0  0  0  0  0
   11.3303   -3.1986    2.3790 C   0  0  0  0  0  0  0  0  0  0  0  0
   11.9958   -3.9084    2.8455 H   0  0  0  0  0  0  0  0  0  0  0  0
   14.1996   -2.6517    1.3808 C   0  0  0  0  0  0  0  0  0  0  0  0
   14.3898   -2.3535    2.6997 N   0  0  0  0  0  0  0  0  0  0  0  0
   15.3295   -2.3872    3.0941 H   0  0  0  0  0  0  0  0  0  0  0  0
   13.5987   -2.0303    3.2556 H   0  0  0  0  0  0  0  0  0  0  0  0
   15.1988   -2.9119    0.6028 N   0  0  0  0  0  4  0  0  0  0  0  0
   16.1705   -2.9039    0.9061 H   0  0  0  0  0  0  0  0  0  0  0  0
   15.2995   -0.8596   -1.5137 C   0  0  0  0  0  0  0  0  0  0  0  0
   14.8657   -0.5327   -0.5763 H   0  0  0  0  0  0  0  0  0  0  0  0
   15.4285    2.0281   -0.7956 C   0  0  0  0  0  0  0  0  0  0  0  0
   15.2908    1.3187    0.0111 H   0  0  0  0  0  0  0  0  0  0  0  0
   15.3692    3.4037   -0.5498 C   0  0  0  0  0  0  0  0  0  0  0  0
   15.1674    3.7879    0.4439 H   0  0  0  0  0  0  0  0  0  0  0  0
  1  2  1  0
  2  3  2  0
  3  4  1  0
  4  5  1  0
  4  6  2  0
  6  7  1  0
  7  8  2  0
  8  9  1  0
  8 10  1  0
 10 11  1  0
 10 12  2  0
 12 13  1  0
 12 14  1  0
 15 14  1  6
 15 16  1  0
 16 17  2  0
 17 18  1  0
 17 19  1  0
 19 20  1  0
 19 21  2  0
 21 22  1  0
 21 23  1  0
 23 24  1  0
 23 25  2  0
 25 26  1  0
 15 27  1  0
 27 28  2  0
 27 29  1  0
 29 30  1  0
 30 31  2  0
 31 32  1  0
 31 33  1  0
 33 34  1  0
 33 35  2  0
 35 36  1  0
 36 37  1  0
 36 38  2  0
 38 39  1  0
 29 40  1  0
 40 41  1  0
 41 42  1  0
 41 43  1  0
 40 44  2  0
 44 45  1  0
 14 46  2  0
 46 47  1  0
  6 48  1  0
 48 49  1  0
 48 50  2  0
 50 51  1  0
 50  2  1  0
 46  7  1  0
 44 15  1  0
 25 16  1  0
 38 30  1  0
M  CHG  1  44   1
M  END
>  <score>  (371) 
5.42334

$$$$

     RDKit          3D

 52 55  0  0  0  0  0  0  0  0999 V2000
   15.5373    5.3280   -1.4087 H   0  0  0  0  0  0  0  0  0  0  0  0
   15.5865    4.2639   -1.6127 C   0  0  0  0  0  0  0  0  0  0  0  0
   15.8369    3.8560   -2.8658 N   0  0  0  0  0  0  0  0  0  0  0  0
   15.8908    2.5315   -3.1000 C   0  0  0  0  0  0  0  0  0  0  0  0
   16.0887    2.1981   -4.1140 H   0  0  0  0  0  0  0  0  0  0  0  0
   15.7049    1.5616   -2.0999 C   0  0  0  0  0  0  0  0  0  0  0  0
   15.7849    0.1227   -2.4030 C   0  0  0  0  0  0  0  0  0  0  0  0
   16.3313   -0.3117   -3.6141 C   0  0  0  0  0  0  0  0  0  0  0  0
   16.7051    0.4301   -4.3125 H   0  0  0  0  0  0  0  0  0  0  0  0
   16.4151   -1.6758   -3.9148 C   0  0  0  0  0  0  0  0  0  0  0  0
   16.8652   -1.9945   -4.8497 H   0  0  0  0  0  0  0  0  0  0  0  0
   15.9487   -2.6233   -2.9946 C   0  0  0  0  0  0  0  0  0  0  0  0
   16.0108   -3.6817   -3.2286 H   0  0  0  0  0  0  0  0  0  0  0  0
   15.4106   -2.2223   -1.7638 C   0  0  0  0  0  0  0  0  0  0  0  0
   14.8517   -3.2316   -0.7681 C   0  0  2  0  0  0  0  0  0  0  0  0
   15.2047   -4.6904   -1.0651 C   0  0  0  0  0  0  0  0  0  0  0  0
   16.4173   -5.2224   -0.6046 C   0  0  0  0  0  0  0  0  0  0  0  0
   17.1010   -4.5785   -0.0610 H   0  0  0  0  0  0  0  0  0  0  0  0
   16.7442   -6.5687   -0.8022 C   0  0  0  0  0  0  0  0  0  0  0  0
   17.6791   -6.9596   -0.4115 H   0  0  0  0  0  0  0  0  0  0  0  0
   15.8573   -7.4061   -1.4859 C   0  0  0  0  0  0  0  0  0  0  0  0
   16.0999   -8.4574   -1.6228 H   0  0  0  0  0  0  0  0  0  0  0  0
   14.6504   -6.8931   -1.9718 C   0  0  0  0  0  0  0  0  0  0  0  0
   13.9552   -7.5526   -2.4854 H   0  0  0  0  0  0  0  0  0  0  0  0
   14.3229   -5.5432   -1.7607 C   0  0  0  0  0  0  0  0  0  0  0  0
   13.3703   -5.1679   -2.1199 H   0  0  0  0  0  0  0  0  0  0  0  0
   13.3344   -3.0106   -0.6198 C   0  0  0  0  0  0  0  0  0  0  0  0
   12.5022   -3.1570   -1.5177 O   0  0  0  0  0  0  0  0  0  0  0  0
   13.0583   -2.6384    0.6843 N   0  0  0  0  0  0  0  0  0  0  0  0
   11.8029   -2.1824    1.2042 O   0  0  0  0  0  0  0  0  0  0  0  0
   11.0636   -3.2089    1.8771 C   0  0  0  0  0  0  0  0  0  0  0  0
   11.7538   -3.8738    2.4032 H   0  0  0  0  0  0  0  0  0  0  0  0
   10.0961   -2.5944    2.8876 C   0  0  0  0  0  0  0  0  0  0  0  0
    9.5428   -3.3723    3.4136 H   0  0  0  0  0  0  0  0  0  0  0  0
    9.3648   -1.9642    2.3822 H   0  0  0  0  0  0  0  0  0  0  0  0
   10.6259   -2.0008    3.6332 H   0  0  0  0  0  0  0  0  0  0  0  0
   10.2605   -3.9922    0.8460 C   0  0  0  0  0  0  0  0  0  0  0  0
   10.9296   -4.5092    0.1583 H   0  0  0  0  0  0  0  0  0  0  0  0
    9.6289   -4.7396    1.3285 H   0  0  0  0  0  0  0  0  0  0  0  0
    9.6208   -3.3130    0.2788 H   0  0  0  0  0  0  0  0  0  0  0  0
   14.2691   -2.5837    1.3578 C   0  0  0  0  0  0  0  0  0  0  0  0
   14.4535   -2.2688    2.6783 N   0  0  0  0  0  0  0  0  0  0  0  0
   13.6452   -2.0917    3.2749 H   0  0  0  0  0  0  0  0  0  0  0  0
   15.3904   -2.3244    3.0810 H   0  0  0  0  0  0  0  0  0  0  0  0
   15.2775   -2.8955    0.6054 N   0  0  0  0  0  4  0  0  0  0  0  0
   16.2414   -2.9951    0.9381 H   0  0  0  0  0  0  0  0  0  0  0  0
   15.3200   -0.8415   -1.4927 C   0  0  0  0  0  0  0  0  0  0  0  0
   14.8666   -0.5096   -0.5641 H   0  0  0  0  0  0  0  0  0  0  0  0
   15.4611    1.9988   -0.7997 C   0  0  0  0  0  0  0  0  0  0  0  0
   15.3580    1.2692   -0.0030 H   0  0  0  0  0  0  0  0  0  0  0  0
   15.3902    3.3684   -0.5598 C   0  0  0  0  0  0  0  0  0  0  0  0
   15.2006    3.7477    0.4366 H   0  0  0  0  0  0  0  0  0  0  0  0
  1  2  1  0
  2  3  2  0
  3  4  1  0
  4  5  1  0
  4  6  2  0
  6  7  1  0
  7  8  2  0
  8  9  1  0
  8 10  1  0
 10 11  1  0
 10 12  2  0
 12 13  1  0
 12 14  1  0
 15 14  1  6
 15 16  1  0
 16 17  2  0
 17 18  1  0
 17 19  1  0
 19 20  1  0
 19 21  2  0
 21 22  1  0
 21 23  1  0
 23 24  1  0
 23 25  2  0
 25 26  1  0
 15 27  1  0
 27 28  2  0
 27 29  1  0
 29 30  1  0
 30 31  1  0
 31 32  1  0
 31 33  1  0
 33 34  1  0
 33 35  1  0
 33 36  1  0
 31 37  1  0
 37 38  1  0
 37 39  1  0
 37 40  1  0
 29 41  1  0
 41 42  1  0
 42 43  1  0
 42 44  1  0
 41 45  2  0
 45 46  1  0
 14 47  2  0
 47 48  1  0
  6 49  1  0
 49 50  1  0
 49 51  2  0
 51 52  1  0
 51  2  1  0
 47  7  1  0
 45 15  1  0
 25 16  1  0
M  CHG  1  45   1
M  END
>  <score>  (372) 
5.42311

$$$$

     RDKit          3D

 55 58  0  0  0  0  0  0  0  0999 V2000
   15.5908    5.3354   -1.3952 H   0  0  0  0  0  0  0  0  0  0  0  0
   15.6402    4.2702   -1.6053 C   0  0  0  0  0  0  0  0  0  0  0  0
   15.8662    3.8618   -2.8633 N   0  0  0  0  0  0  0  0  0  0  0  0
   15.9447    2.5381   -3.1018 C   0  0  0  0  0  0  0  0  0  0  0  0
   16.1177    2.2208   -4.1248 H   0  0  0  0  0  0  0  0  0  0  0  0
   15.8027    1.5602   -2.1005 C   0  0  0  0  0  0  0  0  0  0  0  0
   15.8849    0.1167   -2.4025 C   0  0  0  0  0  0  0  0  0  0  0  0
   16.3715   -0.3415   -3.6345 C   0  0  0  0  0  0  0  0  0  0  0  0
   16.7193    0.3745   -4.3712 H   0  0  0  0  0  0  0  0  0  0  0  0
   16.4150   -1.7099   -3.9191 C   0  0  0  0  0  0  0  0  0  0  0  0
   16.7770   -2.0405   -4.8880 H   0  0  0  0  0  0  0  0  0  0  0  0
   15.9800   -2.6420   -2.9691 C   0  0  0  0  0  0  0  0  0  0  0  0
   16.0155   -3.7007   -3.2128 H   0  0  0  0  0  0  0  0  0  0  0  0
   15.4823   -2.2147   -1.7218 C   0  0  0  0  0  0  0  0  0  0  0  0
   14.9134   -3.1946   -0.6954 C   0  0  2  0  0  0  0  0  0  0  0  0
   15.2881   -4.6495   -0.9983 C   0  0  0  0  0  0  0  0  0  0  0  0
   16.5031   -5.2083   -0.5647 C   0  0  0  0  0  0  0  0  0  0  0  0
   17.2119   -4.5986   -0.0115 H   0  0  0  0  0  0  0  0  0  0  0  0
   16.8119   -6.5510   -0.8262 C   0  0  0  0  0  0  0  0  0  0  0  0
   17.7540   -6.9650   -0.4846 H   0  0  0  0  0  0  0  0  0  0  0  0
   15.9113   -7.3621   -1.5245 C   0  0  0  0  0  0  0  0  0  0  0  0
   16.1361   -8.4097   -1.7091 H   0  0  0  0  0  0  0  0  0  0  0  0
   14.7115   -6.8140   -1.9810 C   0  0  0  0  0  0  0  0  0  0  0  0
   14.0077   -7.4263   -2.5353 H   0  0  0  0  0  0  0  0  0  0  0  0
   14.4086   -5.4710   -1.7288 C   0  0  0  0  0  0  0  0  0  0  0  0
   13.4753   -5.0573   -2.0971 H   0  0  0  0  0  0  0  0  0  0  0  0
   13.3841   -3.0210   -0.5633 C   0  0  0  0  0  0  0  0  0  0  0  0
   12.5237   -3.2063   -1.4223 O   0  0  0  0  0  0  0  0  0  0  0  0
   13.0783   -2.7047    0.7268 N   0  0  0  0  0  0  0  0  0  0  0  0
   11.7923   -2.5770    1.1455 C   0  0  0  0  0  0  0  0  0  0  0  0
   10.9137   -2.4792    0.3053 O   0  0  0  0  0  0  0  0  0  0  0  0
   11.4782   -2.5912    2.4801 N   0  0  0  0  0  0  0  0  0  0  0  0
   12.2461   -2.5356    3.1418 H   0  0  0  0  0  0  0  0  0  0  0  0
   10.1100   -2.4278    2.9705 C   0  0  0  0  0  0  0  0  0  0  0  0
   10.1040   -2.4149    4.0673 H   0  0  0  0  0  0  0  0  0  0  0  0
    9.6847   -1.4758    2.6278 H   0  0  0  0  0  0  0  0  0  0  0  0
    9.2200   -3.5669    2.4692 C   0  0  0  0  0  0  0  0  0  0  0  0
    9.2153   -3.5800    1.3744 H   0  0  0  0  0  0  0  0  0  0  0  0
    9.6016   -4.5320    2.8152 H   0  0  0  0  0  0  0  0  0  0  0  0
    7.7931   -3.3771    2.9836 C   0  0  0  0  0  0  0  0  0  0  0  0
    7.4300   -2.3794    2.7259 H   0  0  0  0  0  0  0  0  0  0  0  0
    7.1209   -4.1270    2.5493 H   0  0  0  0  0  0  0  0  0  0  0  0
    7.7702   -3.4724    4.0722 H   0  0  0  0  0  0  0  0  0  0  0  0
   14.2300   -2.5999    1.4400 C   0  0  0  0  0  0  0  0  0  0  0  0
   14.3636   -2.3083    2.7603 N   0  0  0  0  0  0  0  0  0  0  0  0
   15.2767   -2.4685    3.1824 H   0  0  0  0  0  0  0  0  0  0  0  0
   13.5394   -2.2765    3.3517 H   0  0  0  0  0  0  0  0  0  0  0  0
   15.2670   -2.8229    0.7000 N   0  0  0  0  0  4  0  0  0  0  0  0
   16.2275   -2.8241    1.0518 H   0  0  0  0  0  0  0  0  0  0  0  0
   15.4427   -0.8327   -1.4656 C   0  0  0  0  0  0  0  0  0  0  0  0
   15.0318   -0.4898   -0.5208 H   0  0  0  0  0  0  0  0  0  0  0  0
   15.5559    1.9993   -0.7960 C   0  0  0  0  0  0  0  0  0  0  0  0
   15.4424    1.2832    0.0136 H   0  0  0  0  0  0  0  0  0  0  0  0
   15.4723    3.3693   -0.5517 C   0  0  0  0  0  0  0  0  0  0  0  0
   15.2863    3.7456    0.4480 H   0  0  0  0  0  0  0  0  0  0  0  0
  1  2  1  0
  2  3  2  0
  3  4  1  0
  4  5  1  0
  4  6  2  0
  6  7  1  0
  7  8  2  0
  8  9  1  0
  8 10  1  0
 10 11  1  0
 10 12  2  0
 12 13  1  0
 12 14  1  0
 15 14  1  6
 15 16  1  0
 16 17  2  0
 17 18  1  0
 17 19  1  0
 19 20  1  0
 19 21  2  0
 21 22  1  0
 21 23  1  0
 23 24  1  0
 23 25  2  0
 25 26  1  0
 15 27  1  0
 27 28  2  0
 27 29  1  0
 29 30  1  0
 30 31  2  0
 30 32  1  0
 32 33  1  0
 32 34  1  0
 34 35  1  0
 34 36  1  0
 34 37  1  0
 37 38  1  0
 37 39  1  0
 37 40  1  0
 40 41  1  0
 40 42  1  0
 40 43  1  0
 29 44  1  0
 44 45  1  0
 45 46  1  0
 45 47  1  0
 44 48  2  0
 48 49  1  0
 14 50  2  0
 50 51  1  0
  6 52  1  0
 52 53  1  0
 52 54  2  0
 54 55  1  0
 54  2  1  0
 50  7  1  0
 48 15  1  0
 25 16  1  0
M  CHG  1  48   1
M  END
>  <score>  (373) 
5.42257

$$$$

     RDKit          3D

 51 54  0  0  0  0  0  0  0  0999 V2000
   15.5566    5.3568   -1.3923 H   0  0  0  0  0  0  0  0  0  0  0  0
   15.5868    4.2897   -1.6035 C   0  0  0  0  0  0  0  0  0  0  0  0
   15.8207    3.8720   -2.8583 N   0  0  0  0  0  0  0  0  0  0  0  0
   15.8763    2.5451   -3.0930 C   0  0  0  0  0  0  0  0  0  0  0  0
   16.0663    2.2053   -4.1046 H   0  0  0  0  0  0  0  0  0  0  0  0
   15.6940    1.5696   -2.0991 C   0  0  0  0  0  0  0  0  0  0  0  0
   15.7752    0.1240   -2.4107 C   0  0  0  0  0  0  0  0  0  0  0  0
   16.3339   -0.3153   -3.6151 C   0  0  0  0  0  0  0  0  0  0  0  0
   16.7139    0.4287   -4.3051 H   0  0  0  0  0  0  0  0  0  0  0  0
   16.4285   -1.6831   -3.9115 C   0  0  0  0  0  0  0  0  0  0  0  0
   16.8656   -2.0014   -4.8511 H   0  0  0  0  0  0  0  0  0  0  0  0
   15.9508   -2.6365   -3.0055 C   0  0  0  0  0  0  0  0  0  0  0  0
   16.0028   -3.6968   -3.2414 H   0  0  0  0  0  0  0  0  0  0  0  0
   15.3904   -2.2280   -1.7869 C   0  0  0  0  0  0  0  0  0  0  0  0
   14.8378   -3.2330   -0.7869 C   0  0  2  0  0  0  0  0  0  0  0  0
   15.1881   -4.6996   -1.0766 C   0  0  0  0  0  0  0  0  0  0  0  0
   16.4019   -5.2275   -0.6068 C   0  0  0  0  0  0  0  0  0  0  0  0
   17.0768   -4.5777   -0.0585 H   0  0  0  0  0  0  0  0  0  0  0  0
   16.7374   -6.5727   -0.8037 C   0  0  0  0  0  0  0  0  0  0  0  0
   17.6734   -6.9602   -0.4116 H   0  0  0  0  0  0  0  0  0  0  0  0
   15.8580   -7.4239   -1.4788 C   0  0  0  0  0  0  0  0  0  0  0  0
   16.1080   -8.4729   -1.6142 H   0  0  0  0  0  0  0  0  0  0  0  0
   14.6465   -6.9210   -1.9638 C   0  0  0  0  0  0  0  0  0  0  0  0
   13.9637   -7.5869   -2.4857 H   0  0  0  0  0  0  0  0  0  0  0  0
   14.3142   -5.5690   -1.7663 C   0  0  0  0  0  0  0  0  0  0  0  0
   13.3598   -5.2009   -2.1314 H   0  0  0  0  0  0  0  0  0  0  0  0
   13.3228   -3.0105   -0.6171 C   0  0  0  0  0  0  0  0  0  0  0  0
   12.4571   -3.1366   -1.4804 O   0  0  0  0  0  0  0  0  0  0  0  0
   13.0420   -2.6516    0.6891 N   0  0  0  0  0  0  0  0  0  0  0  0
   11.6989   -2.6389    1.3289 C   0  0  0  0  0  0  0  0  0  0  0  0
   11.6820   -1.8862    2.1263 H   0  0  0  0  0  0  0  0  0  0  0  0
   10.9221   -2.3605    0.6067 H   0  0  0  0  0  0  0  0  0  0  0  0
   11.2949   -3.9807    1.9675 C   0  0  0  0  0  0  0  0  0  0  0  0
   10.7405   -4.8213    1.2567 O   0  0  0  0  0  0  0  0  0  0  0  0
   11.5623   -4.1227    3.2868 O   0  0  0  0  0  0  0  0  0  0  0  0
   11.3245   -5.4311    3.8232 C   0  0  0  0  0  0  0  0  0  0  0  0
   11.6264   -5.4416    4.8758 H   0  0  0  0  0  0  0  0  0  0  0  0
   10.2606   -5.6839    3.7517 H   0  0  0  0  0  0  0  0  0  0  0  0
   11.9059   -6.1865    3.2786 H   0  0  0  0  0  0  0  0  0  0  0  0
   14.2562   -2.5985    1.3485 C   0  0  0  0  0  0  0  0  0  0  0  0
   14.4119   -2.3340    2.6782 N   0  0  0  0  0  0  0  0  0  0  0  0
   15.3472   -2.3445    3.0853 H   0  0  0  0  0  0  0  0  0  0  0  0
   13.5935   -2.1447    3.2528 H   0  0  0  0  0  0  0  0  0  0  0  0
   15.2611   -2.8747    0.5868 N   0  0  0  0  0  4  0  0  0  0  0  0
   16.2240   -2.9525    0.9234 H   0  0  0  0  0  0  0  0  0  0  0  0
   15.3100   -0.8460   -1.5088 C   0  0  0  0  0  0  0  0  0  0  0  0
   14.8689   -0.5139   -0.5745 H   0  0  0  0  0  0  0  0  0  0  0  0
   15.4446    2.0133   -0.8005 C   0  0  0  0  0  0  0  0  0  0  0  0
   15.3297    1.2771   -0.0119 H   0  0  0  0  0  0  0  0  0  0  0  0
   15.3827    3.3890   -0.5549 C   0  0  0  0  0  0  0  0  0  0  0  0
   15.1777    3.7765    0.4367 H   0  0  0  0  0  0  0  0  0  0  0  0
  1  2  1  0
  2  3  2  0
  3  4  1  0
  4  5  1  0
  4  6  2  0
  6  7  1  0
  7  8  2  0
  8  9  1  0
  8 10  1  0
 10 11  1  0
 10 12  2  0
 12 13  1  0
 12 14  1  0
 15 14  1  6
 15 16  1  0
 16 17  2  0
 17 18  1  0
 17 19  1  0
 19 20  1  0
 19 21  2  0
 21 22  1  0
 21 23  1  0
 23 24  1  0
 23 25  2  0
 25 26  1  0
 15 27  1  0
 27 28  2  0
 27 29  1  0
 29 30  1  0
 30 31  1  0
 30 32  1  0
 30 33  1  0
 33 34  2  0
 33 35  1  0
 35 36  1  0
 36 37  1  0
 36 38  1  0
 36 39  1  0
 29 40  1  0
 40 41  1  0
 41 42  1  0
 41 43  1  0
 40 44  2  0
 44 45  1  0
 14 46  2  0
 46 47  1  0
  6 48  1  0
 48 49  1  0
 48 50  2  0
 50 51  1  0
 50  2  1  0
 46  7  1  0
 44 15  1  0
 25 16  1  0
M  CHG  1  44   1
M  END
>  <score>  (374) 
5.42222

$$$$

     RDKit          3D

 52 56  0  0  0  0  0  0  0  0999 V2000
   15.5479    5.3443   -1.3969 H   0  0  0  0  0  0  0  0  0  0  0  0
   15.5869    4.2785   -1.6087 C   0  0  0  0  0  0  0  0  0  0  0  0
   15.8239    3.8640   -2.8636 N   0  0  0  0  0  0  0  0  0  0  0  0
   15.8834    2.5373   -3.0960 C   0  0  0  0  0  0  0  0  0  0  0  0
   16.0806    2.1919   -4.1058 H   0  0  0  0  0  0  0  0  0  0  0  0
   15.6992    1.5660   -2.0987 C   0  0  0  0  0  0  0  0  0  0  0  0
   15.7737    0.1221   -2.4018 C   0  0  0  0  0  0  0  0  0  0  0  0
   16.3256   -0.3172   -3.6073 C   0  0  0  0  0  0  0  0  0  0  0  0
   16.7047    0.4318   -4.2941 H   0  0  0  0  0  0  0  0  0  0  0  0
   16.4160   -1.6837   -3.8994 C   0  0  0  0  0  0  0  0  0  0  0  0
   16.8614   -2.0042   -4.8351 H   0  0  0  0  0  0  0  0  0  0  0  0
   15.9364   -2.6327   -2.9862 C   0  0  0  0  0  0  0  0  0  0  0  0
   15.9945   -3.6926   -3.2219 H   0  0  0  0  0  0  0  0  0  0  0  0
   15.3767   -2.2266   -1.7630 C   0  0  0  0  0  0  0  0  0  0  0  0
   14.8072   -3.2369   -0.7618 C   0  0  2  0  0  0  0  0  0  0  0  0
   15.1757   -4.6950   -1.0650 C   0  0  0  0  0  0  0  0  0  0  0  0
   16.3953   -5.2176   -0.6028 C   0  0  0  0  0  0  0  0  0  0  0  0
   17.0722   -4.5681   -0.0549 H   0  0  0  0  0  0  0  0  0  0  0  0
   16.7361   -6.5620   -0.8039 C   0  0  0  0  0  0  0  0  0  0  0  0
   17.6708   -6.9541   -0.4131 H   0  0  0  0  0  0  0  0  0  0  0  0
   15.8575   -7.4094   -1.4842 C   0  0  0  0  0  0  0  0  0  0  0  0
   16.1020   -8.4601   -1.6165 H   0  0  0  0  0  0  0  0  0  0  0  0
   14.6458   -6.9076   -1.9681 C   0  0  0  0  0  0  0  0  0  0  0  0
   13.9607   -7.5720   -2.4881 H   0  0  0  0  0  0  0  0  0  0  0  0
   14.3071   -5.5590   -1.7614 C   0  0  0  0  0  0  0  0  0  0  0  0
   13.3540   -5.1840   -2.1200 H   0  0  0  0  0  0  0  0  0  0  0  0
   13.2909   -3.0110   -0.6009 C   0  0  0  0  0  0  0  0  0  0  0  0
   12.4502   -3.0801   -1.4982 O   0  0  0  0  0  0  0  0  0  0  0  0
   12.9999   -2.6542    0.6967 N   0  0  0  0  0  0  0  0  0  0  0  0
   11.7694   -2.1232    1.1107 C   0  0  0  0  0  0  0  0  0  0  0  0
   11.3592   -0.8880    0.5972 C   0  0  0  0  0  0  0  0  0  0  0  0
   12.0421   -0.3374   -0.0390 H   0  0  0  0  0  0  0  0  0  0  0  0
   10.1313   -0.3262    0.9770 C   0  0  0  0  0  0  0  0  0  0  0  0
    9.8526    0.6628    0.6249 H   0  0  0  0  0  0  0  0  0  0  0  0
    9.3118   -0.9995    1.8910 C   0  0  0  0  0  0  0  0  0  0  0  0
    8.3900   -0.5399    2.2368 H   0  0  0  0  0  0  0  0  0  0  0  0
    9.7544   -2.2017    2.4581 C   0  0  0  0  0  0  0  0  0  0  0  0
    9.1984   -2.6799    3.2562 H   0  0  0  0  0  0  0  0  0  0  0  0
   10.9626   -2.7800    2.0500 C   0  0  0  0  0  0  0  0  0  0  0  0
   11.4865   -4.2664    2.8007 Cl  0  0  0  0  0  0  0  0  0  0  0  0
   14.2056   -2.6074    1.3757 C   0  0  0  0  0  0  0  0  0  0  0  0
   14.4039   -2.2682    2.6844 N   0  0  0  0  0  0  0  0  0  0  0  0
   13.6000   -2.1154    3.2915 H   0  0  0  0  0  0  0  0  0  0  0  0
   15.3418   -2.3454    3.0770 H   0  0  0  0  0  0  0  0  0  0  0  0
   15.2151   -2.9182    0.6246 N   0  0  0  0  0  4  0  0  0  0  0  0
   16.1849   -2.9629    0.9556 H   0  0  0  0  0  0  0  0  0  0  0  0
   15.3049   -0.8422   -1.4927 C   0  0  0  0  0  0  0  0  0  0  0  0
   14.8647   -0.4974   -0.5622 H   0  0  0  0  0  0  0  0  0  0  0  0
   15.4533    2.0058   -0.8011 C   0  0  0  0  0  0  0  0  0  0  0  0
   15.3504    1.2627   -0.0166 H   0  0  0  0  0  0  0  0  0  0  0  0
   15.3877    3.3795   -0.5585 C   0  0  0  0  0  0  0  0  0  0  0  0
   15.1866    3.7642    0.4337 H   0  0  0  0  0  0  0  0  0  0  0  0
  1  2  1  0
  2  3  2  0
  3  4  1  0
  4  5  1  0
  4  6  2  0
  6  7  1  0
  7  8  2  0
  8  9  1  0
  8 10  1  0
 10 11  1  0
 10 12  2  0
 12 13  1  0
 12 14  1  0
 15 14  1  6
 15 16  1  0
 16 17  2  0
 17 18  1  0
 17 19  1  0
 19 20  1  0
 19 21  2  0
 21 22  1  0
 21 23  1  0
 23 24  1  0
 23 25  2  0
 25 26  1  0
 15 27  1  0
 27 28  2  0
 27 29  1  0
 29 30  1  0
 30 31  2  0
 31 32  1  0
 31 33  1  0
 33 34  1  0
 33 35  2  0
 35 36  1  0
 35 37  1  0
 37 38  1  0
 37 39  2  0
 39 40  1  0
 29 41  1  0
 41 42  1  0
 42 43  1  0
 42 44  1  0
 41 45  2  0
 45 46  1  0
 14 47  2  0
 47 48  1  0
  6 49  1  0
 49 50  1  0
 49 51  2  0
 51 52  1  0
 51  2  1  0
 47  7  1  0
 45 15  1  0
 25 16  1  0
 39 30  1  0
M  CHG  1  45   1
M  END
>  <score>  (375) 
5.42107

$$$$

     RDKit          3D

 50 54  0  0  0  0  0  0  0  0999 V2000
    8.9883   -0.9835    0.5520 H   0  0  0  0  0  0  0  0  0  0  0  0
    9.6970   -1.6318    1.0676 C   0  0  0  0  0  0  0  0  0  0  0  0
    9.2705   -2.1996    2.2022 N   0  0  0  0  0  0  0  0  0  0  0  0
   10.1276   -2.9628    2.8829 C   0  0  0  0  0  0  0  0  0  0  0  0
    9.7878   -3.4580    3.7946 H   0  0  0  0  0  0  0  0  0  0  0  0
   11.4186   -3.1367    2.4307 C   0  0  0  0  0  0  0  0  0  0  0  0
   12.1356   -3.7448    2.9600 H   0  0  0  0  0  0  0  0  0  0  0  0
   11.7616   -2.5322    1.2515 C   0  0  0  0  0  0  0  0  0  0  0  0
   12.9911   -2.7118    0.7270 N   0  0  0  0  0  0  0  0  0  0  0  0
   13.2286   -3.0019   -0.5843 C   0  0  0  0  0  0  0  0  0  0  0  0
   12.3179   -3.1114   -1.4029 O   0  0  0  0  0  0  0  0  0  0  0  0
   14.7558   -3.2270   -0.7664 C   0  0  1  0  0  0  0  0  0  0  0  0
   15.1469   -4.6876   -1.0540 C   0  0  0  0  0  0  0  0  0  0  0  0
   16.3751   -5.2056   -0.5950 C   0  0  0  0  0  0  0  0  0  0  0  0
   17.0610   -4.5587   -0.0547 H   0  0  0  0  0  0  0  0  0  0  0  0
   16.7253   -6.5485   -0.8015 C   0  0  0  0  0  0  0  0  0  0  0  0
   17.6630   -6.9401   -0.4180 H   0  0  0  0  0  0  0  0  0  0  0  0
   15.8543   -7.4022   -1.4809 C   0  0  0  0  0  0  0  0  0  0  0  0
   16.1042   -8.4523   -1.6151 H   0  0  0  0  0  0  0  0  0  0  0  0
   14.6421   -6.9041   -1.9642 C   0  0  0  0  0  0  0  0  0  0  0  0
   13.9653   -7.5708   -2.4893 H   0  0  0  0  0  0  0  0  0  0  0  0
   14.2915   -5.5590   -1.7551 C   0  0  0  0  0  0  0  0  0  0  0  0
   13.3417   -5.1884   -2.1265 H   0  0  0  0  0  0  0  0  0  0  0  0
   15.3465   -2.2226   -1.7642 C   0  0  0  0  0  0  0  0  0  0  0  0
   15.9231   -2.6322   -2.9802 C   0  0  0  0  0  0  0  0  0  0  0  0
   15.9864   -3.6914   -3.2168 H   0  0  0  0  0  0  0  0  0  0  0  0
   16.4147   -1.6869   -3.8912 C   0  0  0  0  0  0  0  0  0  0  0  0
   16.8601   -2.0078   -4.8267 H   0  0  0  0  0  0  0  0  0  0  0  0
   16.3285   -0.3198   -3.6040 C   0  0  0  0  0  0  0  0  0  0  0  0
   16.7070    0.4255   -4.2962 H   0  0  0  0  0  0  0  0  0  0  0  0
   15.7744    0.1229   -2.3999 C   0  0  0  0  0  0  0  0  0  0  0  0
   15.7013    1.5674   -2.0980 C   0  0  0  0  0  0  0  0  0  0  0  0
   15.8829    2.5393   -3.0952 C   0  0  0  0  0  0  0  0  0  0  0  0
   16.0762    2.1960   -4.1066 H   0  0  0  0  0  0  0  0  0  0  0  0
   15.8241    3.8661   -2.8623 N   0  0  0  0  0  0  0  0  0  0  0  0
   15.5872    4.2811   -1.6074 C   0  0  0  0  0  0  0  0  0  0  0  0
   15.5497    5.3474   -1.3961 H   0  0  0  0  0  0  0  0  0  0  0  0
   15.3865    3.3820   -0.5578 C   0  0  0  0  0  0  0  0  0  0  0  0
   15.1838    3.7664    0.4345 H   0  0  0  0  0  0  0  0  0  0  0  0
   15.4520    2.0085   -0.8009 C   0  0  0  0  0  0  0  0  0  0  0  0
   15.3430    1.2680   -0.0146 H   0  0  0  0  0  0  0  0  0  0  0  0
   15.2924   -0.8379   -1.4931 C   0  0  0  0  0  0  0  0  0  0  0  0
   14.8558   -0.4895   -0.5617 H   0  0  0  0  0  0  0  0  0  0  0  0
   15.1599   -2.9108    0.6275 N   0  0  0  0  0  4  0  0  0  0  0  0
   16.1225   -2.9413    0.9644 H   0  0  0  0  0  0  0  0  0  0  0  0
   14.1598   -2.6702    1.4042 C   0  0  0  0  0  0  0  0  0  0  0  0
   14.3425   -2.4028    2.7294 N   0  0  0  0  0  0  0  0  0  0  0  0
   15.3032   -2.3203    3.0581 H   0  0  0  0  0  0  0  0  0  0  0  0
   13.5809   -1.9948    3.2740 H   0  0  0  0  0  0  0  0  0  0  0  0
   10.9132   -1.8170    0.5453 N   0  0  0  0  0  0  0  0  0  0  0  0
  1  2  1  0
  2  3  2  0
  3  4  1  0
  4  5  1  0
  4  6  2  0
  6  7  1  0
  6  8  1  0
  8  9  1  0
  9 10  1  0
 10 11  2  0
 10 12  1  0
 12 13  1  6
 13 14  2  0
 14 15  1  0
 14 16  1  0
 16 17  1  0
 16 18  2  0
 18 19  1  0
 18 20  1  0
 20 21  1  0
 20 22  2  0
 22 23  1  0
 12 24  1  0
 24 25  2  0
 25 26  1  0
 25 27  1  0
 27 28  1  0
 27 29  2  0
 29 30  1  0
 29 31  1  0
 31 32  1  0
 32 33  2  0
 33 34  1  0
 33 35  1  0
 35 36  2  0
 36 37  1  0
 36 38  1  0
 38 39  1  0
 38 40  2  0
 40 41  1  0
 31 42  2  0
 42 43  1  0
 12 44  1  0
 44 45  1  0
 44 46  2  0
 46 47  1  0
 47 48  1  0
 47 49  1  0
  8 50  2  0
 50  2  1  0
 46  9  1  0
 22 13  1  0
 42 24  1  0
 40 32  1  0
M  CHG  1  44   1
M  END
>  <score>  (376) 
5.42024

$$$$

     RDKit          3D

 49 53  0  0  0  0  0  0  0  0999 V2000
   15.5532    5.3531   -1.3931 H   0  0  0  0  0  0  0  0  0  0  0  0
   15.5869    4.2861   -1.6061 C   0  0  0  0  0  0  0  0  0  0  0  0
   15.8210    3.8688   -2.8611 N   0  0  0  0  0  0  0  0  0  0  0  0
   15.8798    2.5420   -3.0941 C   0  0  0  0  0  0  0  0  0  0  0  0
   16.0727    2.1970   -4.1042 H   0  0  0  0  0  0  0  0  0  0  0  0
   15.6970    1.5684   -2.0991 C   0  0  0  0  0  0  0  0  0  0  0  0
   15.7734    0.1228   -2.4067 C   0  0  0  0  0  0  0  0  0  0  0  0
   16.3294   -0.3164   -3.6104 C   0  0  0  0  0  0  0  0  0  0  0  0
   16.7090    0.4322   -4.2977 H   0  0  0  0  0  0  0  0  0  0  0  0
   16.4226   -1.6846   -3.9018 C   0  0  0  0  0  0  0  0  0  0  0  0
   16.8616   -2.0042   -4.8406 H   0  0  0  0  0  0  0  0  0  0  0  0
   15.9406   -2.6345   -2.9915 C   0  0  0  0  0  0  0  0  0  0  0  0
   15.9964   -3.6944   -3.2300 H   0  0  0  0  0  0  0  0  0  0  0  0
   15.3768   -2.2269   -1.7698 C   0  0  0  0  0  0  0  0  0  0  0  0
   14.8158   -3.2363   -0.7651 C   0  0  2  0  0  0  0  0  0  0  0  0
   15.1790   -4.6964   -1.0687 C   0  0  0  0  0  0  0  0  0  0  0  0
   16.3973   -5.2215   -0.6046 C   0  0  0  0  0  0  0  0  0  0  0  0
   17.0719   -4.5709   -0.0563 H   0  0  0  0  0  0  0  0  0  0  0  0
   16.7354   -6.5655   -0.8055 C   0  0  0  0  0  0  0  0  0  0  0  0
   17.6699   -6.9565   -0.4131 H   0  0  0  0  0  0  0  0  0  0  0  0
   15.8572   -7.4161   -1.4811 C   0  0  0  0  0  0  0  0  0  0  0  0
   16.1048   -8.4660   -1.6149 H   0  0  0  0  0  0  0  0  0  0  0  0
   14.6456   -6.9136   -1.9653 C   0  0  0  0  0  0  0  0  0  0  0  0
   13.9640   -7.5802   -2.4873 H   0  0  0  0  0  0  0  0  0  0  0  0
   14.3098   -5.5635   -1.7635 C   0  0  0  0  0  0  0  0  0  0  0  0
   13.3553   -5.1921   -2.1267 H   0  0  0  0  0  0  0  0  0  0  0  0
   13.3000   -3.0320   -0.5947 C   0  0  0  0  0  0  0  0  0  0  0  0
   12.4702   -3.1336   -1.4956 O   0  0  0  0  0  0  0  0  0  0  0  0
   13.0034   -2.7274    0.7208 N   0  0  0  0  0  0  0  0  0  0  0  0
   11.7108   -2.6107    1.2721 C   0  0  0  0  0  0  0  0  0  0  0  0
   10.4966   -2.0426    0.6909 C   0  0  0  0  0  0  0  0  0  0  0  0
   10.4453   -1.5411   -0.2701 H   0  0  0  0  0  0  0  0  0  0  0  0
    9.4785   -2.1621    1.5103 N   0  0  0  0  0  0  0  0  0  0  0  0
    9.9874   -2.7910    2.6078 N   0  0  0  0  0  0  0  0  0  0  0  0
    9.4164   -3.0499    3.4134 H   0  0  0  0  0  0  0  0  0  0  0  0
   11.3458   -3.0574    2.4961 C   0  0  0  0  0  0  0  0  0  0  0  0
   11.9986   -3.5340    3.2150 H   0  0  0  0  0  0  0  0  0  0  0  0
   14.2188   -2.6802    1.3954 C   0  0  0  0  0  0  0  0  0  0  0  0
   14.4204   -2.3864    2.7162 N   0  0  0  0  0  0  0  0  0  0  0  0
   13.6495   -1.9982    3.2594 H   0  0  0  0  0  0  0  0  0  0  0  0
   15.3748   -2.3449    3.0812 H   0  0  0  0  0  0  0  0  0  0  0  0
   15.2311   -2.9167    0.6196 N   0  0  0  0  0  4  0  0  0  0  0  0
   16.2032   -2.9442    0.9371 H   0  0  0  0  0  0  0  0  0  0  0  0
   15.3045   -0.8430   -1.5000 C   0  0  0  0  0  0  0  0  0  0  0  0
   14.8667   -0.5002   -0.5677 H   0  0  0  0  0  0  0  0  0  0  0  0
   15.4493    2.0097   -0.8016 C   0  0  0  0  0  0  0  0  0  0  0  0
   15.3385    1.2680   -0.0161 H   0  0  0  0  0  0  0  0  0  0  0  0
   15.3859    3.3849   -0.5567 C   0  0  0  0  0  0  0  0  0  0  0  0
   15.1799    3.7726    0.4349 H   0  0  0  0  0  0  0  0  0  0  0  0
  1  2  1  0
  2  3  2  0
  3  4  1  0
  4  5  1  0
  4  6  2  0
  6  7  1  0
  7  8  2  0
  8  9  1  0
  8 10  1  0
 10 11  1  0
 10 12  2  0
 12 13  1  0
 12 14  1  0
 15 14  1  6
 15 16  1  0
 16 17  2  0
 17 18  1  0
 17 19  1  0
 19 20  1  0
 19 21  2  0
 21 22  1  0
 21 23  1  0
 23 24  1  0
 23 25  2  0
 25 26  1  0
 15 27  1  0
 27 28  2  0
 27 29  1  0
 29 30  1  0
 30 31  1  0
 31 32  1  0
 31 33  2  0
 33 34  1  0
 34 35  1  0
 34 36  1  0
 36 37  1  0
 29 38  1  0
 38 39  1  0
 39 40  1  0
 39 41  1  0
 38 42  2  0
 42 43  1  0
 14 44  2  0
 44 45  1  0
  6 46  1  0
 46 47  1  0
 46 48  2  0
 48 49  1  0
 48  2  1  0
 44  7  1  0
 42 15  1  0
 25 16  1  0
 36 30  2  0
M  CHG  1  42   1
M  END
>  <score>  (377) 
5.41905

$$$$

     RDKit          3D

 51 55  0  0  0  0  0  0  0  0999 V2000
   11.5217   -1.0826    0.6357 H   0  0  0  0  0  0  0  0  0  0  0  0
   11.8350   -2.0341    1.0725 C   0  0  0  0  0  0  0  0  0  0  0  0
   11.0577   -2.6687    2.0163 C   0  0  0  0  0  0  0  0  0  0  0  0
    9.5321   -2.1014    2.6892 S   0  0  0  0  0  0  0  0  0  0  0  0
    9.4451   -3.5138    3.7429 C   0  0  0  0  0  0  0  0  0  0  0  0
    8.1677   -3.8751    4.7460 S   0  0  0  0  0  0  0  0  0  0  0  0
   10.5143   -4.3661    3.5568 N   0  0  0  0  0  0  0  0  0  0  0  0
   10.7547   -5.1314    4.1799 H   0  0  0  0  0  0  0  0  0  0  0  0
   11.4197   -3.9319    2.6338 C   0  0  0  0  0  0  0  0  0  0  0  0
   12.3927   -4.6212    2.3962 O   0  0  0  0  0  0  0  0  0  0  0  0
   13.0321   -2.6369    0.6802 N   0  0  0  0  0  0  0  0  0  0  0  0
   13.3290   -3.0087   -0.6113 C   0  0  0  0  0  0  0  0  0  0  0  0
   12.4937   -3.1051   -1.5073 O   0  0  0  0  0  0  0  0  0  0  0  0
   14.8397   -3.2396   -0.7483 C   0  0  1  0  0  0  0  0  0  0  0  0
   15.2025   -4.6889   -1.0548 C   0  0  0  0  0  0  0  0  0  0  0  0
   16.4217   -5.2176   -0.6025 C   0  0  0  0  0  0  0  0  0  0  0  0
   17.1063   -4.5759   -0.0538 H   0  0  0  0  0  0  0  0  0  0  0  0
   16.7447   -6.5629   -0.8058 C   0  0  0  0  0  0  0  0  0  0  0  0
   17.6815   -6.9503   -0.4159 H   0  0  0  0  0  0  0  0  0  0  0  0
   15.8539   -7.3994   -1.4857 C   0  0  0  0  0  0  0  0  0  0  0  0
   16.1031   -8.4464   -1.6342 H   0  0  0  0  0  0  0  0  0  0  0  0
   14.6457   -6.8827   -1.9670 C   0  0  0  0  0  0  0  0  0  0  0  0
   13.9542   -7.5342   -2.4934 H   0  0  0  0  0  0  0  0  0  0  0  0
   14.3211   -5.5353   -1.7540 C   0  0  0  0  0  0  0  0  0  0  0  0
   13.3686   -5.1577   -2.1142 H   0  0  0  0  0  0  0  0  0  0  0  0
   15.4011   -2.2283   -1.7419 C   0  0  0  0  0  0  0  0  0  0  0  0
   15.9460   -2.6281   -2.9708 C   0  0  0  0  0  0  0  0  0  0  0  0
   16.0020   -3.6840   -3.2135 H   0  0  0  0  0  0  0  0  0  0  0  0
   16.4152   -1.6836   -3.8918 C   0  0  0  0  0  0  0  0  0  0  0  0
   16.8461   -2.0025   -4.8357 H   0  0  0  0  0  0  0  0  0  0  0  0
   16.3319   -0.3216   -3.6034 C   0  0  0  0  0  0  0  0  0  0  0  0
   16.6989    0.4118   -4.3159 H   0  0  0  0  0  0  0  0  0  0  0  0
   15.7799    0.1131   -2.3933 C   0  0  0  0  0  0  0  0  0  0  0  0
   15.7114    1.5515   -2.0955 C   0  0  0  0  0  0  0  0  0  0  0  0
   15.8994    2.5204   -3.0976 C   0  0  0  0  0  0  0  0  0  0  0  0
   16.0974    2.1944   -4.1150 H   0  0  0  0  0  0  0  0  0  0  0  0
   15.8383    3.8446   -2.8639 N   0  0  0  0  0  0  0  0  0  0  0  0
   15.5844    4.2586   -1.6135 C   0  0  0  0  0  0  0  0  0  0  0  0
   15.5313    5.3258   -1.4161 H   0  0  0  0  0  0  0  0  0  0  0  0
   15.4009    3.3636   -0.5576 C   0  0  0  0  0  0  0  0  0  0  0  0
   15.2102    3.7396    0.4398 H   0  0  0  0  0  0  0  0  0  0  0  0
   15.4750    1.9937   -0.7941 C   0  0  0  0  0  0  0  0  0  0  0  0
   15.3635    1.2760    0.0127 H   0  0  0  0  0  0  0  0  0  0  0  0
   15.3123   -0.8475   -1.4773 C   0  0  0  0  0  0  0  0  0  0  0  0
   14.8701   -0.5078   -0.5450 H   0  0  0  0  0  0  0  0  0  0  0  0
   15.2336   -2.9272    0.6332 N   0  0  0  0  0  4  0  0  0  0  0  0
   16.1977   -2.9864    0.9658 H   0  0  0  0  0  0  0  0  0  0  0  0
   14.2274   -2.5938    1.3741 C   0  0  0  0  0  0  0  0  0  0  0  0
   14.4198   -2.2276    2.6757 N   0  0  0  0  0  0  0  0  0  0  0  0
   13.6051   -2.1392    3.2768 H   0  0  0  0  0  0  0  0  0  0  0  0
   15.3475   -2.3475    3.0841 H   0  0  0  0  0  0  0  0  0  0  0  0
  1  2  1  0
  2  3  2  3
  3  4  1  0
  4  5  1  0
  5  6  2  0
  5  7  1  0
  7  8  1  0
  7  9  1  0
  9 10  2  0
  2 11  1  0
 11 12  1  0
 12 13  2  0
 12 14  1  0
 14 15  1  6
 15 16  2  0
 16 17  1  0
 16 18  1  0
 18 19  1  0
 18 20  2  0
 20 21  1  0
 20 22  1  0
 22 23  1  0
 22 24  2  0
 24 25  1  0
 14 26  1  0
 26 27  2  0
 27 28  1  0
 27 29  1  0
 29 30  1  0
 29 31  2  0
 31 32  1  0
 31 33  1  0
 33 34  1  0
 34 35  2  0
 35 36  1  0
 35 37  1  0
 37 38  2  0
 38 39  1  0
 38 40  1  0
 40 41  1  0
 40 42  2  0
 42 43  1  0
 33 44  2  0
 44 45  1  0
 14 46  1  0
 46 47  1  0
 46 48  2  0
 48 49  1  0
 49 50  1  0
 49 51  1  0
  9  3  1  0
 48 11  1  0
 24 15  1  0
 44 26  1  0
 42 34  1  0
M  CHG  1  46   1
M  END
>  <score>  (378) 
5.41827

$$$$

     RDKit          3D

 47 50  0  0  0  0  0  0  0  0999 V2000
   10.6017   -2.8677    2.6542 H   0  0  0  0  0  0  0  0  0  0  0  0
   11.5694   -2.9509    2.3751 N   0  0  0  0  0  0  0  0  0  0  0  0
   11.8089   -2.5386    1.2027 C   0  0  0  0  0  0  0  0  0  0  0  0
   10.7444   -2.0762    0.5154 N   0  0  0  0  0  0  0  0  0  0  0  0
    9.9761   -1.8366    1.1300 H   0  0  0  0  0  0  0  0  0  0  0  0
   10.9979   -1.4136   -0.2110 H   0  0  0  0  0  0  0  0  0  0  0  0
   13.0419   -2.5930    0.6729 N   0  0  0  0  0  0  0  0  0  0  0  0
   13.2701   -2.9918   -0.6067 C   0  0  0  0  0  0  0  0  0  0  0  0
   12.3721   -3.1211   -1.4392 O   0  0  0  0  0  0  0  0  0  0  0  0
   14.7900   -3.2299   -0.7624 C   0  0  1  0  0  0  0  0  0  0  0  0
   15.1621   -4.6882   -1.0568 C   0  0  0  0  0  0  0  0  0  0  0  0
   16.3850   -5.2087   -0.5982 C   0  0  0  0  0  0  0  0  0  0  0  0
   17.0652   -4.5604   -0.0538 H   0  0  0  0  0  0  0  0  0  0  0  0
   16.7265   -6.5521   -0.7968 C   0  0  0  0  0  0  0  0  0  0  0  0
   17.6710   -6.9310   -0.4159 H   0  0  0  0  0  0  0  0  0  0  0  0
   15.8478   -7.3987   -1.4774 C   0  0  0  0  0  0  0  0  0  0  0  0
   16.1095   -8.4437   -1.6222 H   0  0  0  0  0  0  0  0  0  0  0  0
   14.6366   -6.8976   -1.9650 C   0  0  0  0  0  0  0  0  0  0  0  0
   13.9590   -7.5632   -2.4934 H   0  0  0  0  0  0  0  0  0  0  0  0
   14.2941   -5.5507   -1.7565 C   0  0  0  0  0  0  0  0  0  0  0  0
   13.3411   -5.1867   -2.1272 H   0  0  0  0  0  0  0  0  0  0  0  0
   15.3648   -2.2243   -1.7560 C   0  0  0  0  0  0  0  0  0  0  0  0
   15.9198   -2.6283   -2.9797 C   0  0  0  0  0  0  0  0  0  0  0  0
   15.9836   -3.6860   -3.2174 H   0  0  0  0  0  0  0  0  0  0  0  0
   16.4063   -1.6850   -3.8940 C   0  0  0  0  0  0  0  0  0  0  0  0
   16.8580   -2.0115   -4.8263 H   0  0  0  0  0  0  0  0  0  0  0  0
   16.3292   -0.3198   -3.6005 C   0  0  0  0  0  0  0  0  0  0  0  0
   16.7104    0.4095   -4.3088 H   0  0  0  0  0  0  0  0  0  0  0  0
   15.7724    0.1212   -2.3947 C   0  0  0  0  0  0  0  0  0  0  0  0
   15.7010    1.5635   -2.0945 C   0  0  0  0  0  0  0  0  0  0  0  0
   15.8870    2.5335   -3.0956 C   0  0  0  0  0  0  0  0  0  0  0  0
   16.0795    2.2042   -4.1123 H   0  0  0  0  0  0  0  0  0  0  0  0
   15.8339    3.8583   -2.8607 N   0  0  0  0  0  0  0  0  0  0  0  0
   15.5847    4.2718   -1.6091 C   0  0  0  0  0  0  0  0  0  0  0  0
   15.5443    5.3381   -1.4059 H   0  0  0  0  0  0  0  0  0  0  0  0
   15.3874    3.3765   -0.5567 C   0  0  0  0  0  0  0  0  0  0  0  0
   15.1947    3.7570    0.4388 H   0  0  0  0  0  0  0  0  0  0  0  0
   15.4577    2.0061   -0.7950 C   0  0  0  0  0  0  0  0  0  0  0  0
   15.3430    1.2837    0.0059 H   0  0  0  0  0  0  0  0  0  0  0  0
   15.2933   -0.8411   -1.4867 C   0  0  0  0  0  0  0  0  0  0  0  0
   14.8547   -0.4973   -0.5559 H   0  0  0  0  0  0  0  0  0  0  0  0
   15.2062   -2.9066    0.6226 N   0  0  0  0  0  4  0  0  0  0  0  0
   16.1691   -2.9919    0.9579 H   0  0  0  0  0  0  0  0  0  0  0  0
   14.2020   -2.6342    1.3836 C   0  0  0  0  0  0  0  0  0  0  0  0
   14.3537   -2.3983    2.7199 N   0  0  0  0  0  0  0  0  0  0  0  0
   13.5582   -2.0636    3.2606 H   0  0  0  0  0  0  0  0  0  0  0  0
   15.2968   -2.3298    3.1008 H   0  0  0  0  0  0  0  0  0  0  0  0
  1  2  1  0
  2  3  2  3
  3  4  1  0
  4  5  1  0
  4  6  1  0
  3  7  1  0
  7  8  1  0
  8  9  2  0
  8 10  1  0
 10 11  1  6
 11 12  2  0
 12 13  1  0
 12 14  1  0
 14 15  1  0
 14 16  2  0
 16 17  1  0
 16 18  1  0
 18 19  1  0
 18 20  2  0
 20 21  1  0
 10 22  1  0
 22 23  2  0
 23 24  1  0
 23 25  1  0
 25 26  1  0
 25 27  2  0
 27 28  1  0
 27 29  1  0
 29 30  1  0
 30 31  2  0
 31 32  1  0
 31 33  1  0
 33 34  2  0
 34 35  1  0
 34 36  1  0
 36 37  1  0
 36 38  2  0
 38 39  1  0
 29 40  2  0
 40 41  1  0
 10 42  1  0
 42 43  1  0
 42 44  2  0
 44 45  1  0
 45 46  1  0
 45 47  1  0
 44  7  1  0
 20 11  1  0
 40 22  1  0
 38 30  1  0
M  CHG  1  42   1
M  END
>  <score>  (379) 
5.4176

$$$$

     RDKit          3D

 54 58  0  0  0  0  0  0  0  0999 V2000
   15.5381    5.3322   -1.4090 H   0  0  0  0  0  0  0  0  0  0  0  0
   15.5854    4.2668   -1.6116 C   0  0  0  0  0  0  0  0  0  0  0  0
   15.8365    3.8552   -2.8638 N   0  0  0  0  0  0  0  0  0  0  0  0
   15.8937    2.5310   -3.0978 C   0  0  0  0  0  0  0  0  0  0  0  0
   16.0886    2.1996   -4.1133 H   0  0  0  0  0  0  0  0  0  0  0  0
   15.7070    1.5621   -2.0970 C   0  0  0  0  0  0  0  0  0  0  0  0
   15.7762    0.1228   -2.3968 C   0  0  0  0  0  0  0  0  0  0  0  0
   16.3299   -0.3170   -3.6036 C   0  0  0  0  0  0  0  0  0  0  0  0
   16.7075    0.4157   -4.3092 H   0  0  0  0  0  0  0  0  0  0  0  0
   16.4097   -1.6816   -3.8949 C   0  0  0  0  0  0  0  0  0  0  0  0
   16.8575   -2.0073   -4.8285 H   0  0  0  0  0  0  0  0  0  0  0  0
   15.9269   -2.6234   -2.9788 C   0  0  0  0  0  0  0  0  0  0  0  0
   15.9860   -3.6822   -3.2099 H   0  0  0  0  0  0  0  0  0  0  0  0
   15.3720   -2.2167   -1.7564 C   0  0  0  0  0  0  0  0  0  0  0  0
   14.8062   -3.2229   -0.7641 C   0  0  2  0  0  0  0  0  0  0  0  0
   15.1694   -4.6786   -1.0599 C   0  0  0  0  0  0  0  0  0  0  0  0
   16.3890   -5.2014   -0.5984 C   0  0  0  0  0  0  0  0  0  0  0  0
   17.0682   -4.5521   -0.0535 H   0  0  0  0  0  0  0  0  0  0  0  0
   16.7255   -6.5439   -0.7984 C   0  0  0  0  0  0  0  0  0  0  0  0
   17.6678   -6.9261   -0.4157 H   0  0  0  0  0  0  0  0  0  0  0  0
   15.8450   -7.3876   -1.4799 C   0  0  0  0  0  0  0  0  0  0  0  0
   16.1033   -8.4323   -1.6258 H   0  0  0  0  0  0  0  0  0  0  0  0
   14.6337   -6.8842   -1.9652 C   0  0  0  0  0  0  0  0  0  0  0  0
   13.9538   -7.5470   -2.4933 H   0  0  0  0  0  0  0  0  0  0  0  0
   14.2956   -5.5379   -1.7556 C   0  0  0  0  0  0  0  0  0  0  0  0
   13.3411   -5.1686   -2.1196 H   0  0  0  0  0  0  0  0  0  0  0  0
   13.2895   -3.0052   -0.6108 C   0  0  0  0  0  0  0  0  0  0  0  0
   12.3960   -3.1544   -1.4439 O   0  0  0  0  0  0  0  0  0  0  0  0
   13.0655   -2.6973    0.6974 N   0  0  0  0  0  0  0  0  0  0  0  0
   11.8277   -2.5583    1.2043 C   0  0  0  0  0  0  0  0  0  0  0  0
   10.9891   -1.8239    0.4776 N   0  0  0  0  0  0  0  0  0  0  0  0
    9.7571   -1.6381    0.9668 C   0  0  0  0  0  0  0  0  0  0  0  0
    9.0783   -1.0011    0.4004 H   0  0  0  0  0  0  0  0  0  0  0  0
    9.3328   -2.2668    2.1620 C   0  0  0  0  0  0  0  0  0  0  0  0
    7.9566   -2.1439    2.7034 C   0  0  0  0  0  0  0  0  0  0  0  0
    7.2627   -2.6419    2.0251 H   0  0  0  0  0  0  0  0  0  0  0  0
    7.8861   -2.6480    3.6747 H   0  0  0  0  0  0  0  0  0  0  0  0
    7.7076   -1.0865    2.8242 H   0  0  0  0  0  0  0  0  0  0  0  0
   10.2185   -3.0525    2.8894 C   0  0  0  0  0  0  0  0  0  0  0  0
    9.8961   -3.5606    3.7985 H   0  0  0  0  0  0  0  0  0  0  0  0
   11.5110   -3.1696    2.4112 C   0  0  0  0  0  0  0  0  0  0  0  0
   12.2677   -3.7517    2.9269 H   0  0  0  0  0  0  0  0  0  0  0  0
   14.2302   -2.6685    1.3960 C   0  0  0  0  0  0  0  0  0  0  0  0
   14.3713   -2.4292    2.7371 N   0  0  0  0  0  0  0  0  0  0  0  0
   15.3161   -2.2767    3.0872 H   0  0  0  0  0  0  0  0  0  0  0  0
   13.5873   -2.0148    3.2389 H   0  0  0  0  0  0  0  0  0  0  0  0
   15.2306   -2.9020    0.6218 N   0  0  0  0  0  4  0  0  0  0  0  0
   16.1956   -2.9774    0.9479 H   0  0  0  0  0  0  0  0  0  0  0  0
   15.2972   -0.8359   -1.4873 C   0  0  0  0  0  0  0  0  0  0  0  0
   14.8517   -0.4942   -0.5574 H   0  0  0  0  0  0  0  0  0  0  0  0
   15.4644    2.0016   -0.7971 C   0  0  0  0  0  0  0  0  0  0  0  0
   15.3530    1.2751    0.0014 H   0  0  0  0  0  0  0  0  0  0  0  0
   15.3927    3.3714   -0.5580 C   0  0  0  0  0  0  0  0  0  0  0  0
   15.1990    3.7500    0.4380 H   0  0  0  0  0  0  0  0  0  0  0  0
  1  2  1  0
  2  3  2  0
  3  4  1  0
  4  5  1  0
  4  6  2  0
  6  7  1  0
  7  8  2  0
  8  9  1  0
  8 10  1  0
 10 11  1  0
 10 12  2  0
 12 13  1  0
 12 14  1  0
 15 14  1  6
 15 16  1  0
 16 17  2  0
 17 18  1  0
 17 19  1  0
 19 20  1  0
 19 21  2  0
 21 22  1  0
 21 23  1  0
 23 24  1  0
 23 25  2  0
 25 26  1  0
 15 27  1  0
 27 28  2  0
 27 29  1  0
 29 30  1  0
 30 31  2  0
 31 32  1  0
 32 33  1  0
 32 34  2  0
 34 35  1  0
 35 36  1  0
 35 37  1  0
 35 38  1  0
 34 39  1  0
 39 40  1  0
 39 41  2  0
 41 42  1  0
 29 43  1  0
 43 44  1  0
 44 45  1  0
 44 46  1  0
 43 47  2  0
 47 48  1  0
 14 49  2  0
 49 50  1  0
  6 51  1  0
 51 52  1  0
 51 53  2  0
 53 54  1  0
 53  2  1  0
 49  7  1  0
 47 15  1  0
 25 16  1  0
 41 30  1  0
M  CHG  1  47   1
M  END
>  <score>  (380) 
5.41595

$$$$

     RDKit          3D

 52 56  0  0  0  0  0  0  0  0999 V2000
    9.0705    1.5286    0.7685 H   0  0  0  0  0  0  0  0  0  0  0  0
    9.6317    0.6107    0.9054 C   0  0  0  0  0  0  0  0  0  0  0  0
   10.8930    0.5747    0.4609 N   0  0  0  0  0  0  0  0  0  0  0  0
   11.5783   -0.5697    0.6537 C   0  0  0  0  0  0  0  0  0  0  0  0
   12.5996   -0.6035    0.2914 H   0  0  0  0  0  0  0  0  0  0  0  0
   11.0509   -1.7184    1.2920 C   0  0  0  0  0  0  0  0  0  0  0  0
   11.7748   -2.8617    1.5278 O   0  0  0  0  0  0  0  0  0  0  0  0
   13.0377   -2.8460    0.8851 N   0  0  0  0  0  0  0  0  0  0  0  0
   13.2706   -3.1220   -0.4453 C   0  0  0  0  0  0  0  0  0  0  0  0
   12.3919   -3.3040   -1.2906 O   0  0  0  0  0  0  0  0  0  0  0  0
   14.7906   -3.2309   -0.6676 C   0  0  1  0  0  0  0  0  0  0  0  0
   15.1816   -4.6677   -0.9887 C   0  0  0  0  0  0  0  0  0  0  0  0
   16.4097   -5.1878   -0.5536 C   0  0  0  0  0  0  0  0  0  0  0  0
   17.0956   -4.5467   -0.0067 H   0  0  0  0  0  0  0  0  0  0  0  0
   16.7476   -6.5223   -0.7970 C   0  0  0  0  0  0  0  0  0  0  0  0
   17.6930   -6.9095   -0.4278 H   0  0  0  0  0  0  0  0  0  0  0  0
   15.8627   -7.3513   -1.4955 C   0  0  0  0  0  0  0  0  0  0  0  0
   16.1142   -8.3935   -1.6658 H   0  0  0  0  0  0  0  0  0  0  0  0
   14.6477   -6.8391   -1.9619 C   0  0  0  0  0  0  0  0  0  0  0  0
   13.9571   -7.4778   -2.5053 H   0  0  0  0  0  0  0  0  0  0  0  0
   14.3127   -5.5039   -1.7137 C   0  0  0  0  0  0  0  0  0  0  0  0
   13.3633   -5.1198   -2.0757 H   0  0  0  0  0  0  0  0  0  0  0  0
   15.3082   -2.2285   -1.6974 C   0  0  0  0  0  0  0  0  0  0  0  0
   15.8586   -2.6544   -2.9184 C   0  0  0  0  0  0  0  0  0  0  0  0
   15.9142   -3.7163   -3.1397 H   0  0  0  0  0  0  0  0  0  0  0  0
   16.3501   -1.7302   -3.8463 C   0  0  0  0  0  0  0  0  0  0  0  0
   16.7894   -2.0707   -4.7783 H   0  0  0  0  0  0  0  0  0  0  0  0
   16.2927   -0.3626   -3.5696 C   0  0  0  0  0  0  0  0  0  0  0  0
   16.6890    0.3505   -4.2854 H   0  0  0  0  0  0  0  0  0  0  0  0
   15.7452    0.0980   -2.3668 C   0  0  0  0  0  0  0  0  0  0  0  0
   15.7093    1.5410   -2.0742 C   0  0  0  0  0  0  0  0  0  0  0  0
   15.9052    2.5010   -3.0820 C   0  0  0  0  0  0  0  0  0  0  0  0
   16.1021    2.1628   -4.0949 H   0  0  0  0  0  0  0  0  0  0  0  0
   15.8468    3.8278   -2.8600 N   0  0  0  0  0  0  0  0  0  0  0  0
   15.5990    4.2537   -1.6117 C   0  0  0  0  0  0  0  0  0  0  0  0
   15.5371    5.3219   -1.4235 H   0  0  0  0  0  0  0  0  0  0  0  0
   15.4210    3.3669   -0.5480 C   0  0  0  0  0  0  0  0  0  0  0  0
   15.2349    3.7482    0.4480 H   0  0  0  0  0  0  0  0  0  0  0  0
   15.4847    1.9955   -0.7758 C   0  0  0  0  0  0  0  0  0  0  0  0
   15.3767    1.2832    0.0354 H   0  0  0  0  0  0  0  0  0  0  0  0
   15.2442   -0.8436   -1.4488 C   0  0  0  0  0  0  0  0  0  0  0  0
   14.8054   -0.4857   -0.5224 H   0  0  0  0  0  0  0  0  0  0  0  0
   15.2404   -2.8845    0.6996 N   0  0  0  0  0  4  0  0  0  0  0  0
   16.2198   -2.8693    0.9901 H   0  0  0  0  0  0  0  0  0  0  0  0
   14.2531   -2.7382    1.5213 C   0  0  0  0  0  0  0  0  0  0  0  0
   14.4744   -2.5060    2.8513 N   0  0  0  0  0  0  0  0  0  0  0  0
   13.6975   -2.1820    3.4305 H   0  0  0  0  0  0  0  0  0  0  0  0
   15.4258   -2.2678    3.1295 H   0  0  0  0  0  0  0  0  0  0  0  0
    9.7380   -1.6603    1.7472 C   0  0  0  0  0  0  0  0  0  0  0  0
    9.3059   -2.5092    2.2791 H   0  0  0  0  0  0  0  0  0  0  0  0
    9.0197   -0.4868    1.5247 C   0  0  0  0  0  0  0  0  0  0  0  0
    7.9917   -0.4131    1.8437 H   0  0  0  0  0  0  0  0  0  0  0  0
  1  2  1  0
  2  3  2  0
  3  4  1  0
  4  5  1  0
  4  6  2  0
  6  7  1  0
  7  8  1  0
  8  9  1  0
  9 10  2  0
  9 11  1  0
 11 12  1  6
 12 13  2  0
 13 14  1  0
 13 15  1  0
 15 16  1  0
 15 17  2  0
 17 18  1  0
 17 19  1  0
 19 20  1  0
 19 21  2  0
 21 22  1  0
 11 23  1  0
 23 24  2  0
 24 25  1  0
 24 26  1  0
 26 27  1  0
 26 28  2  0
 28 29  1  0
 28 30  1  0
 30 31  1  0
 31 32  2  0
 32 33  1  0
 32 34  1  0
 34 35  2  0
 35 36  1  0
 35 37  1  0
 37 38  1  0
 37 39  2  0
 39 40  1  0
 30 41  2  0
 41 42  1  0
 11 43  1  0
 43 44  1  0
 43 45  2  0
 45 46  1  0
 46 47  1  0
 46 48  1  0
  6 49  1  0
 49 50  1  0
 49 51  2  0
 51 52  1  0
 51  2  1  0
 45  8  1  0
 21 12  1  0
 41 23  1  0
 39 31  1  0
M  CHG  1  43   1
M  END
>  <score>  (381) 
5.41563

$$$$

     RDKit          3D

 50 54  0  0  0  0  0  0  0  0999 V2000
    8.2256   -2.0890    2.7768 H   0  0  0  0  0  0  0  0  0  0  0  0
    9.2238   -2.1939    2.3484 C   0  0  0  0  0  0  0  0  0  0  0  0
   10.0631   -3.0412    2.9461 N   0  0  0  0  0  0  0  0  0  0  0  0
   11.2929   -3.1811    2.4348 C   0  0  0  0  0  0  0  0  0  0  0  0
   11.9866   -3.8746    2.9084 H   0  0  0  0  0  0  0  0  0  0  0  0
   11.7024   -2.5044    1.2756 C   0  0  0  0  0  0  0  0  0  0  0  0
   13.0064   -2.6944    0.7046 N   0  0  0  0  0  0  0  0  0  0  0  0
   13.3126   -3.0262   -0.6141 C   0  0  0  0  0  0  0  0  0  0  0  0
   12.4873   -3.1332   -1.5216 O   0  0  0  0  0  0  0  0  0  0  0  0
   14.8283   -3.2362   -0.7681 C   0  0  1  0  0  0  0  0  0  0  0  0
   15.1889   -4.6944   -1.0687 C   0  0  0  0  0  0  0  0  0  0  0  0
   16.4053   -5.2205   -0.6063 C   0  0  0  0  0  0  0  0  0  0  0  0
   17.0799   -4.5720   -0.0549 H   0  0  0  0  0  0  0  0  0  0  0  0
   16.7384   -6.5669   -0.8023 C   0  0  0  0  0  0  0  0  0  0  0  0
   17.6735   -6.9577   -0.4117 H   0  0  0  0  0  0  0  0  0  0  0  0
   15.8578   -7.4129   -1.4824 C   0  0  0  0  0  0  0  0  0  0  0  0
   16.1029   -8.4637   -1.6164 H   0  0  0  0  0  0  0  0  0  0  0  0
   14.6477   -6.9075   -1.9672 C   0  0  0  0  0  0  0  0  0  0  0  0
   13.9612   -7.5718   -2.4860 H   0  0  0  0  0  0  0  0  0  0  0  0
   14.3148   -5.5573   -1.7622 C   0  0  0  0  0  0  0  0  0  0  0  0
   13.3612   -5.1843   -2.1226 H   0  0  0  0  0  0  0  0  0  0  0  0
   15.3882   -2.2259   -1.7670 C   0  0  0  0  0  0  0  0  0  0  0  0
   15.9413   -2.6301   -2.9920 C   0  0  0  0  0  0  0  0  0  0  0  0
   15.9992   -3.6890   -3.2293 H   0  0  0  0  0  0  0  0  0  0  0  0
   16.4184   -1.6816   -3.9059 C   0  0  0  0  0  0  0  0  0  0  0  0
   16.8624   -2.0029   -4.8423 H   0  0  0  0  0  0  0  0  0  0  0  0
   16.3313   -0.3147   -3.6109 C   0  0  0  0  0  0  0  0  0  0  0  0
   16.7063    0.4349   -4.3006 H   0  0  0  0  0  0  0  0  0  0  0  0
   15.7753    0.1239   -2.4054 C   0  0  0  0  0  0  0  0  0  0  0  0
   15.6994    1.5681   -2.0983 C   0  0  0  0  0  0  0  0  0  0  0  0
   15.8815    2.5392   -3.0963 C   0  0  0  0  0  0  0  0  0  0  0  0
   16.0789    2.1939   -4.1068 H   0  0  0  0  0  0  0  0  0  0  0  0
   15.8246    3.8654   -2.8610 N   0  0  0  0  0  0  0  0  0  0  0  0
   15.5860    4.2796   -1.6070 C   0  0  0  0  0  0  0  0  0  0  0  0
   15.5492    5.3455   -1.3973 H   0  0  0  0  0  0  0  0  0  0  0  0
   15.3865    3.3812   -0.5582 C   0  0  0  0  0  0  0  0  0  0  0  0
   15.1859    3.7665    0.4328 H   0  0  0  0  0  0  0  0  0  0  0  0
   15.4540    2.0080   -0.7996 C   0  0  0  0  0  0  0  0  0  0  0  0
   15.3458    1.2656   -0.0150 H   0  0  0  0  0  0  0  0  0  0  0  0
   15.3077   -0.8421   -1.4981 C   0  0  0  0  0  0  0  0  0  0  0  0
   14.8708   -0.4958   -0.5668 H   0  0  0  0  0  0  0  0  0  0  0  0
   15.2382   -2.9158    0.6137 N   0  0  0  0  0  4  0  0  0  0  0  0
   16.2059   -2.9616    0.9424 H   0  0  0  0  0  0  0  0  0  0  0  0
   14.2269   -2.6614    1.3779 C   0  0  0  0  0  0  0  0  0  0  0  0
   14.4237   -2.3717    2.7003 N   0  0  0  0  0  0  0  0  0  0  0  0
   15.3744   -2.3393    3.0660 H   0  0  0  0  0  0  0  0  0  0  0  0
   13.6393   -2.0516    3.2659 H   0  0  0  0  0  0  0  0  0  0  0  0
   10.7477   -1.6349    0.7257 C   0  0  0  0  0  0  0  0  0  0  0  0
   11.0060   -1.0505   -0.1577 H   0  0  0  0  0  0  0  0  0  0  0  0
    9.5207   -1.4933    1.2479 N   0  0  0  0  0  0  0  0  0  0  0  0
  1  2  1  0
  2  3  2  0
  3  4  1  0
  4  5  1  0
  4  6  2  0
  6  7  1  0
  7  8  1  0
  8  9  2  0
  8 10  1  0
 10 11  1  6
 11 12  2  0
 12 13  1  0
 12 14  1  0
 14 15  1  0
 14 16  2  0
 16 17  1  0
 16 18  1  0
 18 19  1  0
 18 20  2  0
 20 21  1  0
 10 22  1  0
 22 23  2  0
 23 24  1  0
 23 25  1  0
 25 26  1  0
 25 27  2  0
 27 28  1  0
 27 29  1  0
 29 30  1  0
 30 31  2  0
 31 32  1  0
 31 33  1  0
 33 34  2  0
 34 35  1  0
 34 36  1  0
 36 37  1  0
 36 38  2  0
 38 39  1  0
 29 40  2  0
 40 41  1  0
 10 42  1  0
 42 43  1  0
 42 44  2  0
 44 45  1  0
 45 46  1  0
 45 47  1  0
  6 48  1  0
 48 49  1  0
 48 50  2  0
 50  2  1  0
 44  7  1  0
 20 11  1  0
 40 22  1  0
 38 30  1  0
M  CHG  1  42   1
M  END
>  <score>  (382) 
5.41396

$$$$

     RDKit          3D

 49 53  0  0  0  0  0  0  0  0999 V2000
   15.5525    5.3516   -1.3941 H   0  0  0  0  0  0  0  0  0  0  0  0
   15.5866    4.2847   -1.6057 C   0  0  0  0  0  0  0  0  0  0  0  0
   15.8215    3.8682   -2.8603 N   0  0  0  0  0  0  0  0  0  0  0  0
   15.8801    2.5411   -3.0944 C   0  0  0  0  0  0  0  0  0  0  0  0
   16.0742    2.1968   -4.1047 H   0  0  0  0  0  0  0  0  0  0  0  0
   15.6986    1.5682   -2.0985 C   0  0  0  0  0  0  0  0  0  0  0  0
   15.7731    0.1231   -2.4053 C   0  0  0  0  0  0  0  0  0  0  0  0
   16.3310   -0.3167   -3.6078 C   0  0  0  0  0  0  0  0  0  0  0  0
   16.7071    0.4310   -4.2969 H   0  0  0  0  0  0  0  0  0  0  0  0
   16.4211   -1.6836   -3.9003 C   0  0  0  0  0  0  0  0  0  0  0  0
   16.8614   -2.0051   -4.8372 H   0  0  0  0  0  0  0  0  0  0  0  0
   15.9368   -2.6334   -2.9911 C   0  0  0  0  0  0  0  0  0  0  0  0
   15.9937   -3.6939   -3.2276 H   0  0  0  0  0  0  0  0  0  0  0  0
   15.3708   -2.2262   -1.7709 C   0  0  0  0  0  0  0  0  0  0  0  0
   14.8029   -3.2343   -0.7691 C   0  0  2  0  0  0  0  0  0  0  0  0
   15.1726   -4.6947   -1.0698 C   0  0  0  0  0  0  0  0  0  0  0  0
   16.3924   -5.2180   -0.6048 C   0  0  0  0  0  0  0  0  0  0  0  0
   17.0678   -4.5672   -0.0560 H   0  0  0  0  0  0  0  0  0  0  0  0
   16.7323   -6.5627   -0.8043 C   0  0  0  0  0  0  0  0  0  0  0  0
   17.6679   -6.9516   -0.4139 H   0  0  0  0  0  0  0  0  0  0  0  0
   15.8561   -7.4128   -1.4815 C   0  0  0  0  0  0  0  0  0  0  0  0
   16.1048   -8.4620   -1.6145 H   0  0  0  0  0  0  0  0  0  0  0  0
   14.6445   -6.9120   -1.9651 C   0  0  0  0  0  0  0  0  0  0  0  0
   13.9642   -7.5785   -2.4877 H   0  0  0  0  0  0  0  0  0  0  0  0
   14.3045   -5.5628   -1.7626 C   0  0  0  0  0  0  0  0  0  0  0  0
   13.3511   -5.1916   -2.1269 H   0  0  0  0  0  0  0  0  0  0  0  0
   13.2821   -3.0156   -0.5848 C   0  0  0  0  0  0  0  0  0  0  0  0
   12.4050   -3.1280   -1.4366 O   0  0  0  0  0  0  0  0  0  0  0  0
   13.0243   -2.7144    0.7273 N   0  0  0  0  0  0  0  0  0  0  0  0
   11.7566   -2.6044    1.2551 C   0  0  0  0  0  0  0  0  0  0  0  0
   10.6941   -2.1233    0.5462 O   0  0  0  0  0  0  0  0  0  0  0  0
    9.6152   -2.1805    1.3878 C   0  0  0  0  0  0  0  0  0  0  0  0
    8.6159   -1.8410    1.1375 H   0  0  0  0  0  0  0  0  0  0  0  0
    9.9662   -2.7333    2.5834 C   0  0  0  0  0  0  0  0  0  0  0  0
    9.2898   -2.9141    3.4102 H   0  0  0  0  0  0  0  0  0  0  0  0
   11.3822   -2.9986    2.4971 C   0  0  0  0  0  0  0  0  0  0  0  0
   12.0449   -3.4365    3.2329 H   0  0  0  0  0  0  0  0  0  0  0  0
   14.2191   -2.6818    1.3974 C   0  0  0  0  0  0  0  0  0  0  0  0
   14.3912   -2.4082    2.7221 N   0  0  0  0  0  0  0  0  0  0  0  0
   13.6272   -1.9676    3.2315 H   0  0  0  0  0  0  0  0  0  0  0  0
   15.3433   -2.3374    3.0831 H   0  0  0  0  0  0  0  0  0  0  0  0
   15.2240   -2.9192    0.6170 N   0  0  0  0  0  4  0  0  0  0  0  0
   16.1950   -2.9503    0.9358 H   0  0  0  0  0  0  0  0  0  0  0  0
   15.3002   -0.8420   -1.4995 C   0  0  0  0  0  0  0  0  0  0  0  0
   14.8645   -0.4971   -0.5673 H   0  0  0  0  0  0  0  0  0  0  0  0
   15.4513    2.0098   -0.8010 C   0  0  0  0  0  0  0  0  0  0  0  0
   15.3399    1.2665   -0.0175 H   0  0  0  0  0  0  0  0  0  0  0  0
   15.3860    3.3847   -0.5567 C   0  0  0  0  0  0  0  0  0  0  0  0
   15.1809    3.7724    0.4336 H   0  0  0  0  0  0  0  0  0  0  0  0
  1  2  1  0
  2  3  2  0
  3  4  1  0
  4  5  1  0
  4  6  2  0
  6  7  1  0
  7  8  2  0
  8  9  1  0
  8 10  1  0
 10 11  1  0
 10 12  2  0
 12 13  1  0
 12 14  1  0
 15 14  1  6
 15 16  1  0
 16 17  2  0
 17 18  1  0
 17 19  1  0
 19 20  1  0
 19 21  2  0
 21 22  1  0
 21 23  1  0
 23 24  1  0
 23 25  2  0
 25 26  1  0
 15 27  1  0
 27 28  2  0
 27 29  1  0
 29 30  1  0
 30 31  1  0
 31 32  1  0
 32 33  1  0
 32 34  2  0
 34 35  1  0
 34 36  1  0
 36 37  1  0
 29 38  1  0
 38 39  1  0
 39 40  1  0
 39 41  1  0
 38 42  2  0
 42 43  1  0
 14 44  2  0
 44 45  1  0
  6 46  1  0
 46 47  1  0
 46 48  2  0
 48 49  1  0
 48  2  1  0
 44  7  1  0
 42 15  1  0
 25 16  1  0
 36 30  2  0
M  CHG  1  42   1
M  END
>  <score>  (383) 
5.41283

$$$$

     RDKit          3D

 58 62  0  0  0  0  0  0  0  0999 V2000
    8.7481   -4.4624    2.8215 H   0  0  0  0  0  0  0  0  0  0  0  0
    8.5544   -3.5079    2.7762 O   0  0  0  0  0  0  0  0  0  0  0  0
    9.3626   -2.8442    1.7838 C   0  0  2  0  0  0  0  0  0  0  0  0
    9.0746   -3.1585    0.7768 H   0  0  0  0  0  0  0  0  0  0  0  0
   10.8653   -3.1342    1.9494 C   0  0  0  0  0  0  0  0  0  0  0  0
   11.1547   -2.9020    2.9780 H   0  0  0  0  0  0  0  0  0  0  0  0
   11.0436   -4.2027    1.7697 H   0  0  0  0  0  0  0  0  0  0  0  0
   11.6567   -2.3218    0.9890 N   0  0  0  0  0  0  0  0  0  0  0  0
   12.9836   -2.7472    0.6246 N   0  0  0  0  0  0  0  0  0  0  0  0
   13.3410   -3.0839   -0.6697 C   0  0  0  0  0  0  0  0  0  0  0  0
   12.5465   -3.2305   -1.6025 O   0  0  0  0  0  0  0  0  0  0  0  0
   14.8679   -3.2471   -0.7609 C   0  0  1  0  0  0  0  0  0  0  0  0
   15.2431   -4.6937   -1.0524 C   0  0  0  0  0  0  0  0  0  0  0  0
   16.4580   -5.2291   -0.5957 C   0  0  0  0  0  0  0  0  0  0  0  0
   17.1596   -4.5973   -0.0582 H   0  0  0  0  0  0  0  0  0  0  0  0
   16.7662   -6.5769   -0.8037 C   0  0  0  0  0  0  0  0  0  0  0  0
   17.7020   -6.9753   -0.4248 H   0  0  0  0  0  0  0  0  0  0  0  0
   15.8697   -7.4055   -1.4863 C   0  0  0  0  0  0  0  0  0  0  0  0
   16.1059   -8.4539   -1.6414 H   0  0  0  0  0  0  0  0  0  0  0  0
   14.6663   -6.8805   -1.9664 C   0  0  0  0  0  0  0  0  0  0  0  0
   13.9633   -7.5161   -2.4961 H   0  0  0  0  0  0  0  0  0  0  0  0
   14.3576   -5.5341   -1.7535 C   0  0  0  0  0  0  0  0  0  0  0  0
   13.4143   -5.1462   -2.1281 H   0  0  0  0  0  0  0  0  0  0  0  0
   15.4338   -2.2338   -1.7524 C   0  0  0  0  0  0  0  0  0  0  0  0
   15.9717   -2.6323   -2.9863 C   0  0  0  0  0  0  0  0  0  0  0  0
   16.0310   -3.6874   -3.2334 H   0  0  0  0  0  0  0  0  0  0  0  0
   16.4256   -1.6851   -3.9099 C   0  0  0  0  0  0  0  0  0  0  0  0
   16.8418   -2.0000   -4.8609 H   0  0  0  0  0  0  0  0  0  0  0  0
   16.3430   -0.3232   -3.6159 C   0  0  0  0  0  0  0  0  0  0  0  0
   16.7006    0.4002   -4.3424 H   0  0  0  0  0  0  0  0  0  0  0  0
   15.8042    0.1116   -2.3976 C   0  0  0  0  0  0  0  0  0  0  0  0
   15.7253    1.5506   -2.0914 C   0  0  0  0  0  0  0  0  0  0  0  0
   15.9051    2.5203   -3.0948 C   0  0  0  0  0  0  0  0  0  0  0  0
   16.1006    2.1978   -4.1135 H   0  0  0  0  0  0  0  0  0  0  0  0
   15.8382    3.8438   -2.8629 N   0  0  0  0  0  0  0  0  0  0  0  0
   15.5897    4.2574   -1.6115 C   0  0  0  0  0  0  0  0  0  0  0  0
   15.5268    5.3238   -1.4189 H   0  0  0  0  0  0  0  0  0  0  0  0
   15.4091    3.3629   -0.5543 C   0  0  0  0  0  0  0  0  0  0  0  0
   15.2201    3.7328    0.4456 H   0  0  0  0  0  0  0  0  0  0  0  0
   15.4821    1.9942   -0.7896 C   0  0  0  0  0  0  0  0  0  0  0  0
   15.3694    1.2874    0.0267 H   0  0  0  0  0  0  0  0  0  0  0  0
   15.3442   -0.8536   -1.4828 C   0  0  0  0  0  0  0  0  0  0  0  0
   14.9026   -0.5236   -0.5467 H   0  0  0  0  0  0  0  0  0  0  0  0
   15.2166   -2.9061    0.6313 N   0  0  0  0  0  4  0  0  0  0  0  0
   16.1689   -2.9312    1.0034 H   0  0  0  0  0  0  0  0  0  0  0  0
   14.1752   -2.6172    1.3451 C   0  0  0  0  0  0  0  0  0  0  0  0
   14.4128   -2.2324    2.6402 N   0  0  0  0  0  0  0  0  0  0  0  0
   13.6329   -2.1480    3.2907 H   0  0  0  0  0  0  0  0  0  0  0  0
   15.3591   -2.3537    3.0070 H   0  0  0  0  0  0  0  0  0  0  0  0
   11.4845   -0.8676    1.0495 C   0  0  0  0  0  0  0  0  0  0  0  0
   11.9997   -0.3778    0.2167 H   0  0  0  0  0  0  0  0  0  0  0  0
   11.9934   -0.5220    1.9493 H   0  0  0  0  0  0  0  0  0  0  0  0
    9.9842   -0.5173    0.9749 C   0  0  0  0  0  0  0  0  0  0  0  0
    9.6622   -0.7076   -0.0574 H   0  0  0  0  0  0  0  0  0  0  0  0
    9.8630    0.5493    1.1948 H   0  0  0  0  0  0  0  0  0  0  0  0
    9.0669   -1.3546    1.8967 C   0  0  0  0  0  0  0  0  0  0  0  0
    9.1711   -1.0537    2.9415 H   0  0  0  0  0  0  0  0  0  0  0  0
    8.0176   -1.1888    1.6238 H   0  0  0  0  0  0  0  0  0  0  0  0
  1  2  1  0
  2  3  1  0
  3  4  1  6
  3  5  1  0
  5  6  1  0
  5  7  1  0
  5  8  1  0
  8  9  1  0
  9 10  1  0
 10 11  2  0
 10 12  1  0
 12 13  1  6
 13 14  2  0
 14 15  1  0
 14 16  1  0
 16 17  1  0
 16 18  2  0
 18 19  1  0
 18 20  1  0
 20 21  1  0
 20 22  2  0
 22 23  1  0
 12 24  1  0
 24 25  2  0
 25 26  1  0
 25 27  1  0
 27 28  1  0
 27 29  2  0
 29 30  1  0
 29 31  1  0
 31 32  1  0
 32 33  2  0
 33 34  1  0
 33 35  1  0
 35 36  2  0
 36 37  1  0
 36 38  1  0
 38 39  1  0
 38 40  2  0
 40 41  1  0
 31 42  2  0
 42 43  1  0
 12 44  1  0
 44 45  1  0
 44 46  2  0
 46 47  1  0
 47 48  1  0
 47 49  1  0
  8 50  1  0
 50 51  1  0
 50 52  1  0
 50 53  1  0
 53 54  1  0
 53 55  1  0
 53 56  1  0
 56 57  1  0
 56 58  1  0
 56  3  1  0
 46  9  1  0
 22 13  1  0
 42 24  1  0
 40 32  1  0
M  CHG  1  44   1
M  END
>  <score>  (384) 
5.41154

$$$$

     RDKit          3D

 58 62  0  0  0  0  0  0  0  0999 V2000
    9.9331   -0.6414    3.4046 H   0  0  0  0  0  0  0  0  0  0  0  0
    9.2335   -1.3292    3.3201 O   0  0  0  0  0  0  0  0  0  0  0  0
    9.0335   -1.5690    1.9406 C   0  0  0  0  0  0  0  0  0  0  0  0
    7.9673   -1.4002    1.7258 H   0  0  0  0  0  0  0  0  0  0  0  0
    9.9253   -0.6406    1.0850 C   0  0  0  0  0  0  0  0  0  0  0  0
    9.6034   -0.7543    0.0482 H   0  0  0  0  0  0  0  0  0  0  0  0
    9.7652    0.3925    1.3926 H   0  0  0  0  0  0  0  0  0  0  0  0
   11.4411   -0.9470    1.0990 C   0  0  0  0  0  0  0  0  0  0  0  0
   11.9290   -0.4137    0.2738 H   0  0  0  0  0  0  0  0  0  0  0  0
   11.9636   -0.6068    1.9895 H   0  0  0  0  0  0  0  0  0  0  0  0
   11.6567   -2.3892    0.9845 N   0  0  0  0  0  0  0  0  0  0  0  0
   12.9972   -2.7615    0.6120 N   0  0  0  0  0  0  0  0  0  0  0  0
   13.3600   -3.0925   -0.6827 C   0  0  0  0  0  0  0  0  0  0  0  0
   12.5796   -3.2311   -1.6269 O   0  0  0  0  0  0  0  0  0  0  0  0
   14.8870   -3.2494   -0.7650 C   0  0  1  0  0  0  0  0  0  0  0  0
   15.2613   -4.6947   -1.0556 C   0  0  0  0  0  0  0  0  0  0  0  0
   16.4740   -5.2326   -0.5970 C   0  0  0  0  0  0  0  0  0  0  0  0
   17.1751   -4.6014   -0.0577 H   0  0  0  0  0  0  0  0  0  0  0  0
   16.7769   -6.5819   -0.8058 C   0  0  0  0  0  0  0  0  0  0  0  0
   17.7107   -6.9850   -0.4262 H   0  0  0  0  0  0  0  0  0  0  0  0
   15.8761   -7.4071   -1.4878 C   0  0  0  0  0  0  0  0  0  0  0  0
   16.1067   -8.4562   -1.6436 H   0  0  0  0  0  0  0  0  0  0  0  0
   14.6740   -6.8791   -1.9672 C   0  0  0  0  0  0  0  0  0  0  0  0
   13.9668   -7.5098   -2.4969 H   0  0  0  0  0  0  0  0  0  0  0  0
   14.3733   -5.5318   -1.7558 C   0  0  0  0  0  0  0  0  0  0  0  0
   13.4315   -5.1387   -2.1274 H   0  0  0  0  0  0  0  0  0  0  0  0
   15.4474   -2.2363   -1.7573 C   0  0  0  0  0  0  0  0  0  0  0  0
   15.9828   -2.6361   -2.9918 C   0  0  0  0  0  0  0  0  0  0  0  0
   16.0391   -3.6921   -3.2386 H   0  0  0  0  0  0  0  0  0  0  0  0
   16.4298   -1.6867   -3.9162 C   0  0  0  0  0  0  0  0  0  0  0  0
   16.8367   -2.0013   -4.8714 H   0  0  0  0  0  0  0  0  0  0  0  0
   16.3452   -0.3243   -3.6199 C   0  0  0  0  0  0  0  0  0  0  0  0
   16.6967    0.4025   -4.3448 H   0  0  0  0  0  0  0  0  0  0  0  0
   15.8131    0.1103   -2.3988 C   0  0  0  0  0  0  0  0  0  0  0  0
   15.7324    1.5494   -2.0897 C   0  0  0  0  0  0  0  0  0  0  0  0
   15.9079    2.5189   -3.0923 C   0  0  0  0  0  0  0  0  0  0  0  0
   16.1045    2.1899   -4.1083 H   0  0  0  0  0  0  0  0  0  0  0  0
   15.8356    3.8428   -2.8630 N   0  0  0  0  0  0  0  0  0  0  0  0
   15.5913    4.2585   -1.6111 C   0  0  0  0  0  0  0  0  0  0  0  0
   15.5258    5.3253   -1.4186 H   0  0  0  0  0  0  0  0  0  0  0  0
   15.4159    3.3637   -0.5529 C   0  0  0  0  0  0  0  0  0  0  0  0
   15.2246    3.7367    0.4459 H   0  0  0  0  0  0  0  0  0  0  0  0
   15.4900    1.9935   -0.7879 C   0  0  0  0  0  0  0  0  0  0  0  0
   15.3784    1.2824    0.0251 H   0  0  0  0  0  0  0  0  0  0  0  0
   15.3593   -0.8565   -1.4850 C   0  0  0  0  0  0  0  0  0  0  0  0
   14.9206   -0.5255   -0.5484 H   0  0  0  0  0  0  0  0  0  0  0  0
   15.2312   -2.9059    0.6287 N   0  0  0  0  0  4  0  0  0  0  0  0
   16.1823   -2.9331    1.0080 H   0  0  0  0  0  0  0  0  0  0  0  0
   14.1862   -2.6257    1.3342 C   0  0  0  0  0  0  0  0  0  0  0  0
   14.4128   -2.2397    2.6310 N   0  0  0  0  0  0  0  0  0  0  0  0
   13.6268   -2.1542    3.2710 H   0  0  0  0  0  0  0  0  0  0  0  0
   15.3566   -2.3506    3.0044 H   0  0  0  0  0  0  0  0  0  0  0  0
   10.8797   -3.2662    1.8813 C   0  0  0  0  0  0  0  0  0  0  0  0
   11.1430   -3.0822    2.9327 H   0  0  0  0  0  0  0  0  0  0  0  0
   11.1026   -4.3121    1.6550 H   0  0  0  0  0  0  0  0  0  0  0  0
    9.3901   -3.0106    1.6211 C   0  0  0  0  0  0  0  0  0  0  0  0
    9.1710   -3.1675    0.5625 H   0  0  0  0  0  0  0  0  0  0  0  0
    8.7798   -3.7182    2.1893 H   0  0  0  0  0  0  0  0  0  0  0  0
  1  2  1  0
  2  3  1  0
  3  4  1  0
  3  5  1  0
  5  6  1  0
  5  7  1  0
  5  8  1  0
  8  9  1  0
  8 10  1  0
  8 11  1  0
 11 12  1  0
 12 13  1  0
 13 14  2  0
 13 15  1  0
 15 16  1  6
 16 17  2  0
 17 18  1  0
 17 19  1  0
 19 20  1  0
 19 21  2  0
 21 22  1  0
 21 23  1  0
 23 24  1  0
 23 25  2  0
 25 26  1  0
 15 27  1  0
 27 28  2  0
 28 29  1  0
 28 30  1  0
 30 31  1  0
 30 32  2  0
 32 33  1  0
 32 34  1  0
 34 35  1  0
 35 36  2  0
 36 37  1  0
 36 38  1  0
 38 39  2  0
 39 40  1  0
 39 41  1  0
 41 42  1  0
 41 43  2  0
 43 44  1  0
 34 45  2  0
 45 46  1  0
 15 47  1  0
 47 48  1  0
 47 49  2  0
 49 50  1  0
 50 51  1  0
 50 52  1  0
 11 53  1  0
 53 54  1  0
 53 55  1  0
 53 56  1  0
 56 57  1  0
 56 58  1  0
 56  3  1  0
 49 12  1  0
 25 16  1  0
 45 27  1  0
 43 35  1  0
M  CHG  1  47   1
M  END
>  <score>  (385) 
5.41074

$$$$

     RDKit          3D

 55 59  0  0  0  0  0  0  0  0999 V2000
   15.5663    5.3702   -1.3876 H   0  0  0  0  0  0  0  0  0  0  0  0
   15.5838    4.3005   -1.5979 C   0  0  0  0  0  0  0  0  0  0  0  0
   15.8183    3.8787   -2.8512 N   0  0  0  0  0  0  0  0  0  0  0  0
   15.8675    2.5502   -3.0890 C   0  0  0  0  0  0  0  0  0  0  0  0
   16.0532    2.2159   -4.1039 H   0  0  0  0  0  0  0  0  0  0  0  0
   15.6888    1.5696   -2.0979 C   0  0  0  0  0  0  0  0  0  0  0  0
   15.7700    0.1195   -2.4110 C   0  0  0  0  0  0  0  0  0  0  0  0
   16.3434   -0.3201   -3.6107 C   0  0  0  0  0  0  0  0  0  0  0  0
   16.7198    0.4171   -4.3132 H   0  0  0  0  0  0  0  0  0  0  0  0
   16.4323   -1.6879   -3.9069 C   0  0  0  0  0  0  0  0  0  0  0  0
   16.8644   -2.0051   -4.8514 H   0  0  0  0  0  0  0  0  0  0  0  0
   15.9440   -2.6429   -3.0038 C   0  0  0  0  0  0  0  0  0  0  0  0
   16.0017   -3.7018   -3.2498 H   0  0  0  0  0  0  0  0  0  0  0  0
   15.3734   -2.2405   -1.7852 C   0  0  0  0  0  0  0  0  0  0  0  0
   14.8147   -3.2496   -0.7829 C   0  0  2  0  0  0  0  0  0  0  0  0
   15.1777   -4.7121   -1.0737 C   0  0  0  0  0  0  0  0  0  0  0  0
   16.3950   -5.2338   -0.6097 C   0  0  0  0  0  0  0  0  0  0  0  0
   17.0668   -4.5811   -0.0602 H   0  0  0  0  0  0  0  0  0  0  0  0
   16.7317   -6.5781   -0.8052 C   0  0  0  0  0  0  0  0  0  0  0  0
   17.6707   -6.9569   -0.4148 H   0  0  0  0  0  0  0  0  0  0  0  0
   15.8540   -7.4348   -1.4742 C   0  0  0  0  0  0  0  0  0  0  0  0
   16.1169   -8.4822   -1.6120 H   0  0  0  0  0  0  0  0  0  0  0  0
   14.6433   -6.9333   -1.9611 C   0  0  0  0  0  0  0  0  0  0  0  0
   13.9705   -7.6049   -2.4869 H   0  0  0  0  0  0  0  0  0  0  0  0
   14.3062   -5.5823   -1.7656 C   0  0  0  0  0  0  0  0  0  0  0  0
   13.3545   -5.2213   -2.1456 H   0  0  0  0  0  0  0  0  0  0  0  0
   13.3006   -3.0455   -0.5877 C   0  0  0  0  0  0  0  0  0  0  0  0
   12.4256   -3.1287   -1.4451 O   0  0  0  0  0  0  0  0  0  0  0  0
   13.0210   -2.6724    0.7047 N   0  0  0  0  0  0  0  0  0  0  0  0
   11.7035   -2.7314    1.3320 C   0  0  0  0  0  0  0  0  0  0  0  0
   10.9068   -2.4989    0.6120 H   0  0  0  0  0  0  0  0  0  0  0  0
   11.6315   -1.9955    2.1390 H   0  0  0  0  0  0  0  0  0  0  0  0
   11.4933   -4.1152    1.8723 C   0  0  0  0  0  0  0  0  0  0  0  0
   11.5543   -4.3460    3.2524 C   0  0  0  0  0  0  0  0  0  0  0  0
   11.7522   -3.5429    3.9531 H   0  0  0  0  0  0  0  0  0  0  0  0
   11.3620   -5.6250    3.7576 C   0  0  0  0  0  0  0  0  0  0  0  0
   11.4181   -5.7690    4.8323 H   0  0  0  0  0  0  0  0  0  0  0  0
   11.1265   -6.6901    2.8798 C   0  0  0  0  0  0  0  0  0  0  0  0
   11.0139   -7.6975    3.2475 H   0  0  0  0  0  0  0  0  0  0  0  0
   11.0532   -6.4751    1.5057 C   0  0  0  0  0  0  0  0  0  0  0  0
   10.8712   -7.3140    0.8400 H   0  0  0  0  0  0  0  0  0  0  0  0
   11.2310   -5.1855    1.0044 C   0  0  0  0  0  0  0  0  0  0  0  0
   11.1735   -5.0143   -0.0639 H   0  0  0  0  0  0  0  0  0  0  0  0
   14.2237   -2.6340    1.3669 C   0  0  0  0  0  0  0  0  0  0  0  0
   14.3934   -2.3618    2.6922 N   0  0  0  0  0  0  0  0  0  0  0  0
   13.5905   -2.0806    3.2487 H   0  0  0  0  0  0  0  0  0  0  0  0
   15.3346   -2.3669    3.0859 H   0  0  0  0  0  0  0  0  0  0  0  0
   15.2204   -2.8911    0.5930 N   0  0  0  0  0  4  0  0  0  0  0  0
   16.1856   -2.9232    0.9156 H   0  0  0  0  0  0  0  0  0  0  0  0
   15.2954   -0.8554   -1.5146 C   0  0  0  0  0  0  0  0  0  0  0  0
   14.8701   -0.5224   -0.5749 H   0  0  0  0  0  0  0  0  0  0  0  0
   15.4411    2.0207   -0.7994 C   0  0  0  0  0  0  0  0  0  0  0  0
   15.3086    1.2945   -0.0052 H   0  0  0  0  0  0  0  0  0  0  0  0
   15.3766    3.3977   -0.5524 C   0  0  0  0  0  0  0  0  0  0  0  0
   15.1695    3.7862    0.4394 H   0  0  0  0  0  0  0  0  0  0  0  0
  1  2  1  0
  2  3  2  0
  3  4  1  0
  4  5  1  0
  4  6  2  0
  6  7  1  0
  7  8  2  0
  8  9  1  0
  8 10  1  0
 10 11  1  0
 10 12  2  0
 12 13  1  0
 12 14  1  0
 15 14  1  6
 15 16  1  0
 16 17  2  0
 17 18  1  0
 17 19  1  0
 19 20  1  0
 19 21  2  0
 21 22  1  0
 21 23  1  0
 23 24  1  0
 23 25  2  0
 25 26  1  0
 15 27  1  0
 27 28  2  0
 27 29  1  0
 29 30  1  0
 30 31  1  0
 30 32  1  0
 30 33  1  0
 33 34  2  0
 34 35  1  0
 34 36  1  0
 36 37  1  0
 36 38  2  0
 38 39  1  0
 38 40  1  0
 40 41  1  0
 40 42  2  0
 42 43  1  0
 29 44  1  0
 44 45  1  0
 45 46  1  0
 45 47  1  0
 44 48  2  0
 48 49  1  0
 14 50  2  0
 50 51  1  0
  6 52  1  0
 52 53  1  0
 52 54  2  0
 54 55  1  0
 54  2  1  0
 50  7  1  0
 48 15  1  0
 25 16  1  0
 42 33  1  0
M  CHG  1  48   1
M  END
>  <score>  (386) 
5.41062

$$$$

     RDKit          3D

 53 56  0  0  0  0  0  0  0  0999 V2000
   15.5438    5.3364   -1.4026 H   0  0  0  0  0  0  0  0  0  0  0  0
   15.5878    4.2719   -1.6101 C   0  0  0  0  0  0  0  0  0  0  0  0
   15.8296    3.8592   -2.8635 N   0  0  0  0  0  0  0  0  0  0  0  0
   15.8871    2.5336   -3.0963 C   0  0  0  0  0  0  0  0  0  0  0  0
   16.0824    2.1957   -4.1094 H   0  0  0  0  0  0  0  0  0  0  0  0
   15.7016    1.5631   -2.0954 C   0  0  0  0  0  0  0  0  0  0  0  0
   15.7691    0.1178   -2.3965 C   0  0  0  0  0  0  0  0  0  0  0  0
   16.3212   -0.3198   -3.6036 C   0  0  0  0  0  0  0  0  0  0  0  0
   16.7059    0.4224   -4.2967 H   0  0  0  0  0  0  0  0  0  0  0  0
   16.4018   -1.6856   -3.8958 C   0  0  0  0  0  0  0  0  0  0  0  0
   16.8622   -2.0058   -4.8254 H   0  0  0  0  0  0  0  0  0  0  0  0
   15.9117   -2.6315   -2.9828 C   0  0  0  0  0  0  0  0  0  0  0  0
   15.9896   -3.6886   -3.2185 H   0  0  0  0  0  0  0  0  0  0  0  0
   15.3399   -2.2332   -1.7583 C   0  0  0  0  0  0  0  0  0  0  0  0
   14.7817   -3.2545   -0.7471 C   0  0  2  0  0  0  0  0  0  0  0  0
   15.1782   -4.7002   -1.0569 C   0  0  0  0  0  0  0  0  0  0  0  0
   16.4024   -5.2182   -0.5974 C   0  0  0  0  0  0  0  0  0  0  0  0
   17.0809   -4.5682   -0.0523 H   0  0  0  0  0  0  0  0  0  0  0  0
   16.7408   -6.5620   -0.8001 C   0  0  0  0  0  0  0  0  0  0  0  0
   17.6783   -6.9534   -0.4128 H   0  0  0  0  0  0  0  0  0  0  0  0
   15.8615   -7.4069   -1.4843 C   0  0  0  0  0  0  0  0  0  0  0  0
   16.1030   -8.4565   -1.6182 H   0  0  0  0  0  0  0  0  0  0  0  0
   14.6499   -6.9056   -1.9709 C   0  0  0  0  0  0  0  0  0  0  0  0
   13.9590   -7.5653   -2.4890 H   0  0  0  0  0  0  0  0  0  0  0  0
   14.3141   -5.5607   -1.7594 C   0  0  0  0  0  0  0  0  0  0  0  0
   13.3614   -5.1814   -2.1163 H   0  0  0  0  0  0  0  0  0  0  0  0
   13.2466   -3.1115   -0.5385 C   0  0  0  0  0  0  0  0  0  0  0  0
   12.3534   -3.1572   -1.3793 O   0  0  0  0  0  0  0  0  0  0  0  0
   13.0063   -2.7425    0.7586 N   0  0  0  0  0  0  0  0  0  0  0  0
   11.7092   -2.4706    1.3024 C   0  0  0  0  0  0  0  0  0  0  0  0
   11.7313   -1.6866    2.0690 H   0  0  0  0  0  0  0  0  0  0  0  0
   10.9984   -2.1596    0.5259 H   0  0  0  0  0  0  0  0  0  0  0  0
   11.3522   -3.7703    1.8391 N   0  0  0  0  0  0  0  0  0  0  0  0
   12.0222   -4.0640    2.5521 H   0  0  0  0  0  0  0  0  0  0  0  0
    9.9629   -3.9411    2.2972 C   0  0  0  0  0  0  0  0  0  0  0  0
    9.7513   -5.0021    2.4720 H   0  0  0  0  0  0  0  0  0  0  0  0
    9.2666   -3.5855    1.5290 H   0  0  0  0  0  0  0  0  0  0  0  0
    9.7283   -3.1625    3.5841 C   0  0  0  0  0  0  0  0  0  0  0  0
    8.7011   -3.3052    3.9306 H   0  0  0  0  0  0  0  0  0  0  0  0
   10.4107   -3.5046    4.3682 H   0  0  0  0  0  0  0  0  0  0  0  0
    9.8866   -2.0953    3.4090 H   0  0  0  0  0  0  0  0  0  0  0  0
   14.2033   -2.6785    1.4113 C   0  0  0  0  0  0  0  0  0  0  0  0
   14.3793   -2.3641    2.7206 N   0  0  0  0  0  0  0  0  0  0  0  0
   13.5808   -2.1280    3.3035 H   0  0  0  0  0  0  0  0  0  0  0  0
   15.3270   -2.3213    3.0937 H   0  0  0  0  0  0  0  0  0  0  0  0
   15.2094   -2.9236    0.6336 N   0  0  0  0  0  4  0  0  0  0  0  0
   16.1836   -2.9530    0.9527 H   0  0  0  0  0  0  0  0  0  0  0  0
   15.2855   -0.8465   -1.4890 C   0  0  0  0  0  0  0  0  0  0  0  0
   14.8532   -0.4965   -0.5573 H   0  0  0  0  0  0  0  0  0  0  0  0
   15.4547    2.0044   -0.7984 C   0  0  0  0  0  0  0  0  0  0  0  0
   15.3517    1.2667   -0.0087 H   0  0  0  0  0  0  0  0  0  0  0  0
   15.3881    3.3762   -0.5586 C   0  0  0  0  0  0  0  0  0  0  0  0
   15.1923    3.7597    0.4341 H   0  0  0  0  0  0  0  0  0  0  0  0
  1  2  1  0
  2  3  2  0
  3  4  1  0
  4  5  1  0
  4  6  2  0
  6  7  1  0
  7  8  2  0
  8  9  1  0
  8 10  1  0
 10 11  1  0
 10 12  2  0
 12 13  1  0
 12 14  1  0
 15 14  1  6
 15 16  1  0
 16 17  2  0
 17 18  1  0
 17 19  1  0
 19 20  1  0
 19 21  2  0
 21 22  1  0
 21 23  1  0
 23 24  1  0
 23 25  2  0
 25 26  1  0
 15 27  1  0
 27 28  2  0
 27 29  1  0
 29 30  1  0
 30 31  1  0
 30 32  1  0
 30 33  1  0
 33 34  1  0
 33 35  1  0
 35 36  1  0
 35 37  1  0
 35 38  1  0
 38 39  1  0
 38 40  1  0
 38 41  1  0
 29 42  1  0
 42 43  1  0
 43 44  1  0
 43 45  1  0
 42 46  2  0
 46 47  1  0
 14 48  2  0
 48 49  1  0
  6 50  1  0
 50 51  1  0
 50 52  2  0
 52 53  1  0
 52  2  1  0
 48  7  1  0
 46 15  1  0
 25 16  1  0
M  CHG  1  46   1
M  END
>  <score>  (387) 
5.41047

$$$$

     RDKit          3D

 50 53  0  0  0  0  0  0  0  0999 V2000
   10.2696    0.2318    1.2521 H   0  0  0  0  0  0  0  0  0  0  0  0
    9.3438   -0.3402    1.2240 C   0  0  0  0  0  0  0  0  0  0  0  0
    8.4295    0.2444    1.3047 H   0  0  0  0  0  0  0  0  0  0  0  0
    9.3253   -1.7207    1.0560 C   0  0  0  0  0  0  0  0  0  0  0  0
    8.3955   -2.2585    0.9538 H   0  0  0  0  0  0  0  0  0  0  0  0
   10.4951   -2.5751    0.8894 C   0  0  0  0  0  0  0  0  0  0  0  0
   10.3263   -3.6710    0.3702 O   0  0  0  0  0  0  0  0  0  0  0  0
   11.7653   -2.0857    1.1970 N   0  0  0  0  0  0  0  0  0  0  0  0
   11.7681   -1.2284    1.7568 H   0  0  0  0  0  0  0  0  0  0  0  0
   13.0310   -2.6403    0.7040 N   0  0  0  0  0  0  0  0  0  0  0  0
   13.3236   -3.0331   -0.6042 C   0  0  0  0  0  0  0  0  0  0  0  0
   12.5065   -3.1027   -1.5232 O   0  0  0  0  0  0  0  0  0  0  0  0
   14.8371   -3.2541   -0.7759 C   0  0  1  0  0  0  0  0  0  0  0  0
   15.1872   -4.7149   -1.0777 C   0  0  0  0  0  0  0  0  0  0  0  0
   16.4015   -5.2387   -0.6079 C   0  0  0  0  0  0  0  0  0  0  0  0
   17.0767   -4.5859   -0.0624 H   0  0  0  0  0  0  0  0  0  0  0  0
   16.7388   -6.5809   -0.8045 C   0  0  0  0  0  0  0  0  0  0  0  0
   17.6765   -6.9630   -0.4129 H   0  0  0  0  0  0  0  0  0  0  0  0
   15.8587   -7.4320   -1.4777 C   0  0  0  0  0  0  0  0  0  0  0  0
   16.1120   -8.4795   -1.6137 H   0  0  0  0  0  0  0  0  0  0  0  0
   14.6465   -6.9323   -1.9647 C   0  0  0  0  0  0  0  0  0  0  0  0
   13.9645   -7.5977   -2.4877 H   0  0  0  0  0  0  0  0  0  0  0  0
   14.3129   -5.5813   -1.7705 C   0  0  0  0  0  0  0  0  0  0  0  0
   13.3593   -5.2132   -2.1386 H   0  0  0  0  0  0  0  0  0  0  0  0
   15.3914   -2.2391   -1.7783 C   0  0  0  0  0  0  0  0  0  0  0  0
   15.9500   -2.6406   -3.0025 C   0  0  0  0  0  0  0  0  0  0  0  0
   16.0046   -3.6990   -3.2485 H   0  0  0  0  0  0  0  0  0  0  0  0
   16.4279   -1.6864   -3.9092 C   0  0  0  0  0  0  0  0  0  0  0  0
   16.8644   -2.0046   -4.8498 H   0  0  0  0  0  0  0  0  0  0  0  0
   16.3339   -0.3191   -3.6140 C   0  0  0  0  0  0  0  0  0  0  0  0
   16.7193    0.4178   -4.3103 H   0  0  0  0  0  0  0  0  0  0  0  0
   15.7747    0.1204   -2.4080 C   0  0  0  0  0  0  0  0  0  0  0  0
   15.6898    1.5688   -2.0974 C   0  0  0  0  0  0  0  0  0  0  0  0
   15.8730    2.5468   -3.0903 C   0  0  0  0  0  0  0  0  0  0  0  0
   16.0579    2.2143   -4.1051 H   0  0  0  0  0  0  0  0  0  0  0  0
   15.8205    3.8740   -2.8562 N   0  0  0  0  0  0  0  0  0  0  0  0
   15.5874    4.2928   -1.6017 C   0  0  0  0  0  0  0  0  0  0  0  0
   15.5604    5.3606   -1.3913 H   0  0  0  0  0  0  0  0  0  0  0  0
   15.3788    3.3928   -0.5532 C   0  0  0  0  0  0  0  0  0  0  0  0
   15.1751    3.7794    0.4403 H   0  0  0  0  0  0  0  0  0  0  0  0
   15.4369    2.0172   -0.7994 C   0  0  0  0  0  0  0  0  0  0  0  0
   15.3188    1.2904   -0.0029 H   0  0  0  0  0  0  0  0  0  0  0  0
   15.3108   -0.8537   -1.5045 C   0  0  0  0  0  0  0  0  0  0  0  0
   14.8655   -0.5215   -0.5728 H   0  0  0  0  0  0  0  0  0  0  0  0
   15.2648   -2.9244    0.6028 N   0  0  0  0  0  4  0  0  0  0  0  0
   16.2403   -2.9425    0.9099 H   0  0  0  0  0  0  0  0  0  0  0  0
   14.2597   -2.6131    1.3655 C   0  0  0  0  0  0  0  0  0  0  0  0
   14.4354   -2.3006    2.6880 N   0  0  0  0  0  0  0  0  0  0  0  0
   13.6142   -2.1878    3.2821 H   0  0  0  0  0  0  0  0  0  0  0  0
   15.3687   -2.3446    3.1009 H   0  0  0  0  0  0  0  0  0  0  0  0
  1  2  1  0
  2  3  1  0
  2  4  2  0
  4  5  1  0
  4  6  1  0
  6  7  2  0
  6  8  1  0
  8  9  1  0
  8 10  1  0
 10 11  1  0
 11 12  2  0
 11 13  1  0
 13 14  1  6
 14 15  2  0
 15 16  1  0
 15 17  1  0
 17 18  1  0
 17 19  2  0
 19 20  1  0
 19 21  1  0
 21 22  1  0
 21 23  2  0
 23 24  1  0
 13 25  1  0
 25 26  2  0
 26 27  1  0
 26 28  1  0
 28 29  1  0
 28 30  2  0
 30 31  1  0
 30 32  1  0
 32 33  1  0
 33 34  2  0
 34 35  1  0
 34 36  1  0
 36 37  2  0
 37 38  1  0
 37 39  1  0
 39 40  1  0
 39 41  2  0
 41 42  1  0
 32 43  2  0
 43 44  1  0
 13 45  1  0
 45 46  1  0
 45 47  2  0
 47 48  1  0
 48 49  1  0
 48 50  1  0
 47 10  1  0
 23 14  1  0
 43 25  1  0
 41 33  1  0
M  CHG  1  45   1
M  END
>  <score>  (388) 
5.4099

$$$$

     RDKit          3D

 56 61  0  0  0  0  0  0  0  0999 V2000
   15.5330    5.3269   -1.4123 H   0  0  0  0  0  0  0  0  0  0  0  0
   15.5844    4.2611   -1.6147 C   0  0  0  0  0  0  0  0  0  0  0  0
   15.8392    3.8511   -2.8671 N   0  0  0  0  0  0  0  0  0  0  0  0
   15.8977    2.5269   -3.0998 C   0  0  0  0  0  0  0  0  0  0  0  0
   16.0955    2.1963   -4.1145 H   0  0  0  0  0  0  0  0  0  0  0  0
   15.7094    1.5581   -2.0993 C   0  0  0  0  0  0  0  0  0  0  0  0
   15.7815    0.1217   -2.3980 C   0  0  0  0  0  0  0  0  0  0  0  0
   16.3297   -0.3137   -3.6078 C   0  0  0  0  0  0  0  0  0  0  0  0
   16.7036    0.4220   -4.3136 H   0  0  0  0  0  0  0  0  0  0  0  0
   16.4125   -1.6781   -3.8991 C   0  0  0  0  0  0  0  0  0  0  0  0
   16.8553   -2.0015   -4.8368 H   0  0  0  0  0  0  0  0  0  0  0  0
   15.9378   -2.6200   -2.9782 C   0  0  0  0  0  0  0  0  0  0  0  0
   15.9959   -3.6784   -3.2128 H   0  0  0  0  0  0  0  0  0  0  0  0
   15.3917   -2.2159   -1.7520 C   0  0  0  0  0  0  0  0  0  0  0  0
   14.8306   -3.2228   -0.7603 C   0  0  2  0  0  0  0  0  0  0  0  0
   15.1904   -4.6776   -1.0587 C   0  0  0  0  0  0  0  0  0  0  0  0
   16.4081   -5.2067   -0.6010 C   0  0  0  0  0  0  0  0  0  0  0  0
   17.0891   -4.5617   -0.0542 H   0  0  0  0  0  0  0  0  0  0  0  0
   16.7367   -6.5510   -0.8023 C   0  0  0  0  0  0  0  0  0  0  0  0
   17.6745   -6.9397   -0.4128 H   0  0  0  0  0  0  0  0  0  0  0  0
   15.8489   -7.3903   -1.4823 C   0  0  0  0  0  0  0  0  0  0  0  0
   16.1001   -8.4375   -1.6291 H   0  0  0  0  0  0  0  0  0  0  0  0
   14.6401   -6.8780   -1.9677 C   0  0  0  0  0  0  0  0  0  0  0  0
   13.9515   -7.5368   -2.4908 H   0  0  0  0  0  0  0  0  0  0  0  0
   14.3121   -5.5301   -1.7562 C   0  0  0  0  0  0  0  0  0  0  0  0
   13.3566   -5.1567   -2.1136 H   0  0  0  0  0  0  0  0  0  0  0  0
   13.3146   -2.9993   -0.6162 C   0  0  0  0  0  0  0  0  0  0  0  0
   12.4672   -3.1611   -1.4974 O   0  0  0  0  0  0  0  0  0  0  0  0
   13.0511   -2.6367    0.6823 N   0  0  0  0  0  0  0  0  0  0  0  0
   11.7881   -2.4956    1.2390 C   0  0  0  0  0  0  0  0  0  0  0  0
   10.8546   -1.6264    0.6751 C   0  0  0  0  0  0  0  0  0  0  0  0
   11.1566   -1.0617   -0.1953 H   0  0  0  0  0  0  0  0  0  0  0  0
    9.5828   -1.4647    1.2455 C   0  0  0  0  0  0  0  0  0  0  0  0
    8.8871   -0.7518    0.8126 H   0  0  0  0  0  0  0  0  0  0  0  0
    9.2466   -2.2448    2.3568 C   0  0  0  0  0  0  0  0  0  0  0  0
    8.0596   -2.3672    3.1773 C   0  0  0  0  0  0  0  0  0  0  0  0
    7.1820   -1.7543    3.1330 H   0  0  0  0  0  0  0  0  0  0  0  0
    8.2628   -3.3611    4.1008 C   0  0  0  0  0  0  0  0  0  0  0  0
    7.5663   -3.7040    4.8624 H   0  0  0  0  0  0  0  0  0  0  0  0
    9.5622   -3.8077    3.9371 N   0  0  0  0  0  0  0  0  0  0  0  0
   10.0401   -4.4503    4.5651 H   0  0  0  0  0  0  0  0  0  0  0  0
   10.1674   -3.1416    2.8865 C   0  0  0  0  0  0  0  0  0  0  0  0
   11.4502   -3.2398    2.3603 C   0  0  0  0  0  0  0  0  0  0  0  0
   12.1895   -3.8976    2.7965 H   0  0  0  0  0  0  0  0  0  0  0  0
   14.2397   -2.6434    1.3835 C   0  0  0  0  0  0  0  0  0  0  0  0
   14.4101   -2.4161    2.7203 N   0  0  0  0  0  0  0  0  0  0  0  0
   15.3629   -2.2877    3.0655 H   0  0  0  0  0  0  0  0  0  0  0  0
   13.6225   -2.0487    3.2546 H   0  0  0  0  0  0  0  0  0  0  0  0
   15.2484   -2.8987    0.6186 N   0  0  0  0  0  4  0  0  0  0  0  0
   16.2071   -2.9998    0.9550 H   0  0  0  0  0  0  0  0  0  0  0  0
   15.3109   -0.8362   -1.4840 C   0  0  0  0  0  0  0  0  0  0  0  0
   14.8634   -0.4967   -0.5548 H   0  0  0  0  0  0  0  0  0  0  0  0
   15.4707    1.9955   -0.7989 C   0  0  0  0  0  0  0  0  0  0  0  0
   15.3627    1.2714    0.0028 H   0  0  0  0  0  0  0  0  0  0  0  0
   15.3962    3.3648   -0.5591 C   0  0  0  0  0  0  0  0  0  0  0  0
   15.2051    3.7425    0.4391 H   0  0  0  0  0  0  0  0  0  0  0  0
  1  2  1  0
  2  3  2  0
  3  4  1  0
  4  5  1  0
  4  6  2  0
  6  7  1  0
  7  8  2  0
  8  9  1  0
  8 10  1  0
 10 11  1  0
 10 12  2  0
 12 13  1  0
 12 14  1  0
 15 14  1  6
 15 16  1  0
 16 17  2  0
 17 18  1  0
 17 19  1  0
 19 20  1  0
 19 21  2  0
 21 22  1  0
 21 23  1  0
 23 24  1  0
 23 25  2  0
 25 26  1  0
 15 27  1  0
 27 28  2  0
 27 29  1  0
 29 30  1  0
 30 31  2  0
 31 32  1  0
 31 33  1  0
 33 34  1  0
 33 35  2  0
 35 36  1  0
 36 37  1  0
 36 38  2  0
 38 39  1  0
 38 40  1  0
 40 41  1  0
 40 42  1  0
 42 43  2  0
 43 44  1  0
 29 45  1  0
 45 46  1  0
 46 47  1  0
 46 48  1  0
 45 49  2  0
 49 50  1  0
 14 51  2  0
 51 52  1  0
  6 53  1  0
 53 54  1  0
 53 55  2  0
 55 56  1  0
 55  2  1  0
 51  7  1  0
 49 15  1  0
 25 16  1  0
 43 30  1  0
 42 35  1  0
M  CHG  1  49   1
M  END
>  <score>  (389) 
5.40988

$$$$

     RDKit          3D

 61 65  0  0  0  0  0  0  0  0999 V2000
    6.6057   -3.6713    1.5880 H   0  0  0  0  0  0  0  0  0  0  0  0
    6.9690   -3.5563    0.6961 O   0  0  0  0  0  0  0  0  0  0  0  0
    8.1930   -2.8134    0.7597 C   0  0  0  0  0  0  0  0  0  0  0  0
    7.9765   -1.7464    0.6386 H   0  0  0  0  0  0  0  0  0  0  0  0
    8.8574   -3.1096   -0.0596 H   0  0  0  0  0  0  0  0  0  0  0  0
    8.8745   -3.0485    2.1205 C   0  0  0  0  0  0  0  0  0  0  0  0
    8.0873   -3.1257    2.8795 H   0  0  0  0  0  0  0  0  0  0  0  0
    9.7665   -1.8499    2.4774 C   0  0  0  0  0  0  0  0  0  0  0  0
    9.1731   -0.9262    2.5135 H   0  0  0  0  0  0  0  0  0  0  0  0
   10.2009   -2.0220    3.4682 H   0  0  0  0  0  0  0  0  0  0  0  0
   10.9448   -1.6824    1.5021 C   0  0  0  0  0  0  0  0  0  0  0  0
   11.7034   -1.0141    1.9311 H   0  0  0  0  0  0  0  0  0  0  0  0
   10.5791   -1.2395    0.5706 H   0  0  0  0  0  0  0  0  0  0  0  0
   11.5905   -2.9744    1.2048 N   0  0  0  0  0  0  0  0  0  0  0  0
   12.9380   -2.9165    0.6736 N   0  0  0  0  0  0  0  0  0  0  0  0
   13.3135   -3.1186   -0.6487 C   0  0  0  0  0  0  0  0  0  0  0  0
   12.5204   -3.2599   -1.5804 O   0  0  0  0  0  0  0  0  0  0  0  0
   14.8518   -3.2298   -0.7549 C   0  0  1  0  0  0  0  0  0  0  0  0
   15.2643   -4.6698   -1.0398 C   0  0  0  0  0  0  0  0  0  0  0  0
   16.4828   -5.2027   -0.5871 C   0  0  0  0  0  0  0  0  0  0  0  0
   17.1861   -4.5713   -0.0489 H   0  0  0  0  0  0  0  0  0  0  0  0
   16.7966   -6.5508   -0.8061 C   0  0  0  0  0  0  0  0  0  0  0  0
   17.7307   -6.9596   -0.4348 H   0  0  0  0  0  0  0  0  0  0  0  0
   15.8972   -7.3786   -1.4904 C   0  0  0  0  0  0  0  0  0  0  0  0
   16.1225   -8.4297   -1.6434 H   0  0  0  0  0  0  0  0  0  0  0  0
   14.6995   -6.8498   -1.9752 C   0  0  0  0  0  0  0  0  0  0  0  0
   13.9905   -7.4775   -2.5077 H   0  0  0  0  0  0  0  0  0  0  0  0
   14.3925   -5.5055   -1.7595 C   0  0  0  0  0  0  0  0  0  0  0  0
   13.4582   -5.1047   -2.1371 H   0  0  0  0  0  0  0  0  0  0  0  0
   15.4252   -2.2299   -1.7592 C   0  0  0  0  0  0  0  0  0  0  0  0
   15.9665   -2.6390   -2.9922 C   0  0  0  0  0  0  0  0  0  0  0  0
   16.0385   -3.6957   -3.2338 H   0  0  0  0  0  0  0  0  0  0  0  0
   16.4246   -1.6969   -3.9222 C   0  0  0  0  0  0  0  0  0  0  0  0
   16.8369   -2.0162   -4.8742 H   0  0  0  0  0  0  0  0  0  0  0  0
   16.3531   -0.3313   -3.6304 C   0  0  0  0  0  0  0  0  0  0  0  0
   16.7051    0.3972   -4.3548 H   0  0  0  0  0  0  0  0  0  0  0  0
   15.8410    0.1099   -2.4033 C   0  0  0  0  0  0  0  0  0  0  0  0
   15.7682    1.5513   -2.0889 C   0  0  0  0  0  0  0  0  0  0  0  0
   15.9313    2.5239   -3.0903 C   0  0  0  0  0  0  0  0  0  0  0  0
   16.1244    2.1911   -4.1047 H   0  0  0  0  0  0  0  0  0  0  0  0
   15.8445    3.8485   -2.8610 N   0  0  0  0  0  0  0  0  0  0  0  0
   15.5977    4.2627   -1.6093 C   0  0  0  0  0  0  0  0  0  0  0  0
   15.5202    5.3287   -1.4141 H   0  0  0  0  0  0  0  0  0  0  0  0
   15.4369    3.3662   -0.5502 C   0  0  0  0  0  0  0  0  0  0  0  0
   15.2461    3.7445    0.4467 H   0  0  0  0  0  0  0  0  0  0  0  0
   15.5251    1.9949   -0.7874 C   0  0  0  0  0  0  0  0  0  0  0  0
   15.4187    1.2766    0.0205 H   0  0  0  0  0  0  0  0  0  0  0  0
   15.3759   -0.8499   -1.4870 C   0  0  0  0  0  0  0  0  0  0  0  0
   14.9573   -0.5071   -0.5471 H   0  0  0  0  0  0  0  0  0  0  0  0
   15.1837   -2.8827    0.6380 N   0  0  0  0  0  4  0  0  0  0  0  0
   16.1329   -2.9010    1.0116 H   0  0  0  0  0  0  0  0  0  0  0  0
   14.1292   -2.7738    1.3828 C   0  0  0  0  0  0  0  0  0  0  0  0
   14.3468   -2.5320    2.7124 N   0  0  0  0  0  0  0  0  0  0  0  0
   15.2959   -2.2343    2.9496 H   0  0  0  0  0  0  0  0  0  0  0  0
   13.5740   -2.1398    3.2477 H   0  0  0  0  0  0  0  0  0  0  0  0
   11.2594   -4.0994    2.1092 C   0  0  0  0  0  0  0  0  0  0  0  0
   11.6072   -3.8688    3.1242 H   0  0  0  0  0  0  0  0  0  0  0  0
   11.7732   -5.0118    1.7833 H   0  0  0  0  0  0  0  0  0  0  0  0
    9.7294   -4.3471    2.1202 C   0  0  0  0  0  0  0  0  0  0  0  0
    9.4728   -4.9385    3.0110 H   0  0  0  0  0  0  0  0  0  0  0  0
    9.4718   -4.9439    1.2374 H   0  0  0  0  0  0  0  0  0  0  0  0
  1  2  1  0
  2  3  1  0
  3  4  1  0
  3  5  1  0
  3  6  1  0
  6  7  1  0
  6  8  1  0
  8  9  1  0
  8 10  1  0
  8 11  1  0
 11 12  1  0
 11 13  1  0
 11 14  1  0
 14 15  1  0
 15 16  1  0
 16 17  2  0
 16 18  1  0
 18 19  1  6
 19 20  2  0
 20 21  1  0
 20 22  1  0
 22 23  1  0
 22 24  2  0
 24 25  1  0
 24 26  1  0
 26 27  1  0
 26 28  2  0
 28 29  1  0
 18 30  1  0
 30 31  2  0
 31 32  1  0
 31 33  1  0
 33 34  1  0
 33 35  2  0
 35 36  1  0
 35 37  1  0
 37 38  1  0
 38 39  2  0
 39 40  1  0
 39 41  1  0
 41 42  2  0
 42 43  1  0
 42 44  1  0
 44 45  1  0
 44 46  2  0
 46 47  1  0
 37 48  2  0
 48 49  1  0
 18 50  1  0
 50 51  1  0
 50 52  2  0
 52 53  1  0
 53 54  1  0
 53 55  1  0
 14 56  1  0
 56 57  1  0
 56 58  1  0
 56 59  1  0
 59 60  1  0
 59 61  1  0
 59  6  1  0
 52 15  1  0
 28 19  1  0
 48 30  1  0
 46 38  1  0
M  CHG  1  50   1
M  END
>  <score>  (390) 
5.40895

$$$$

     RDKit          3D

 55 59  0  0  0  0  0  0  0  0999 V2000
   15.5699    5.3720   -1.3877 H   0  0  0  0  0  0  0  0  0  0  0  0
   15.5849    4.3032   -1.5958 C   0  0  0  0  0  0  0  0  0  0  0  0
   15.8198    3.8813   -2.8485 N   0  0  0  0  0  0  0  0  0  0  0  0
   15.8641    2.5535   -3.0867 C   0  0  0  0  0  0  0  0  0  0  0  0
   16.0433    2.2287   -4.1056 H   0  0  0  0  0  0  0  0  0  0  0  0
   15.6843    1.5708   -2.0957 C   0  0  0  0  0  0  0  0  0  0  0  0
   15.7734    0.1195   -2.4103 C   0  0  0  0  0  0  0  0  0  0  0  0
   16.3455   -0.3217   -3.6129 C   0  0  0  0  0  0  0  0  0  0  0  0
   16.7283    0.4029   -4.3239 H   0  0  0  0  0  0  0  0  0  0  0  0
   16.4319   -1.6895   -3.9095 C   0  0  0  0  0  0  0  0  0  0  0  0
   16.8653   -2.0088   -4.8529 H   0  0  0  0  0  0  0  0  0  0  0  0
   15.9458   -2.6448   -3.0068 C   0  0  0  0  0  0  0  0  0  0  0  0
   16.0052   -3.7011   -3.2608 H   0  0  0  0  0  0  0  0  0  0  0  0
   15.3807   -2.2423   -1.7839 C   0  0  0  0  0  0  0  0  0  0  0  0
   14.8062   -3.2473   -0.7859 C   0  0  2  0  0  0  0  0  0  0  0  0
   15.1671   -4.7157   -1.0721 C   0  0  0  0  0  0  0  0  0  0  0  0
   16.3876   -5.2387   -0.6077 C   0  0  0  0  0  0  0  0  0  0  0  0
   17.0679   -4.5888   -0.0657 H   0  0  0  0  0  0  0  0  0  0  0  0
   16.7295   -6.5816   -0.8027 C   0  0  0  0  0  0  0  0  0  0  0  0
   17.6730   -6.9563   -0.4171 H   0  0  0  0  0  0  0  0  0  0  0  0
   15.8544   -7.4408   -1.4717 C   0  0  0  0  0  0  0  0  0  0  0  0
   16.1214   -8.4863   -1.6115 H   0  0  0  0  0  0  0  0  0  0  0  0
   14.6431   -6.9406   -1.9610 C   0  0  0  0  0  0  0  0  0  0  0  0
   13.9720   -7.6128   -2.4882 H   0  0  0  0  0  0  0  0  0  0  0  0
   14.3019   -5.5901   -1.7674 C   0  0  0  0  0  0  0  0  0  0  0  0
   13.3530   -5.2341   -2.1574 H   0  0  0  0  0  0  0  0  0  0  0  0
   13.2922   -2.9919   -0.6171 C   0  0  0  0  0  0  0  0  0  0  0  0
   12.4443   -3.0882   -1.5064 O   0  0  0  0  0  0  0  0  0  0  0  0
   13.0006   -2.6452    0.6964 N   0  0  0  0  0  0  0  0  0  0  0  0
   11.7173   -2.3728    1.2566 C   0  0  0  0  0  0  0  0  0  0  0  0
   11.1559   -3.1180    2.3415 C   0  0  0  0  0  0  0  0  0  0  0  0
   11.9131   -4.1651    2.7951 O   0  0  0  0  0  0  0  0  0  0  0  0
   11.4191   -4.9788    3.8671 C   0  0  0  0  0  0  0  0  0  0  0  0
   12.1665   -5.7406    4.0942 H   0  0  0  0  0  0  0  0  0  0  0  0
   11.2560   -4.3985    4.7775 H   0  0  0  0  0  0  0  0  0  0  0  0
   10.4917   -5.4913    3.5978 H   0  0  0  0  0  0  0  0  0  0  0  0
    9.9373   -2.8664    2.8577 N   0  0  0  0  0  0  0  0  0  0  0  0
    9.2564   -1.8507    2.3218 C   0  0  0  0  0  0  0  0  0  0  0  0
    8.2826   -1.6074    2.7242 H   0  0  0  0  0  0  0  0  0  0  0  0
    9.7313   -1.0700    1.2641 C   0  0  0  0  0  0  0  0  0  0  0  0
    9.1330   -0.2511    0.8925 H   0  0  0  0  0  0  0  0  0  0  0  0
   10.9781   -1.3279    0.7116 C   0  0  0  0  0  0  0  0  0  0  0  0
   11.3894   -0.7173   -0.0959 H   0  0  0  0  0  0  0  0  0  0  0  0
   14.2161   -2.6328    1.3639 C   0  0  0  0  0  0  0  0  0  0  0  0
   14.4028   -2.3383    2.6908 N   0  0  0  0  0  0  0  0  0  0  0  0
   15.3377   -2.3794    3.0978 H   0  0  0  0  0  0  0  0  0  0  0  0
   13.5987   -2.0734    3.2587 H   0  0  0  0  0  0  0  0  0  0  0  0
   15.2177   -2.9116    0.5952 N   0  0  0  0  0  4  0  0  0  0  0  0
   16.1904   -2.9157    0.9043 H   0  0  0  0  0  0  0  0  0  0  0  0
   15.3021   -0.8576   -1.5138 C   0  0  0  0  0  0  0  0  0  0  0  0
   14.8681   -0.5299   -0.5763 H   0  0  0  0  0  0  0  0  0  0  0  0
   15.4308    2.0258   -0.7971 C   0  0  0  0  0  0  0  0  0  0  0  0
   15.2955    1.3142    0.0083 H   0  0  0  0  0  0  0  0  0  0  0  0
   15.3709    3.4020   -0.5506 C   0  0  0  0  0  0  0  0  0  0  0  0
   15.1677    3.7872    0.4436 H   0  0  0  0  0  0  0  0  0  0  0  0
  1  2  1  0
  2  3  2  0
  3  4  1  0
  4  5  1  0
  4  6  2  0
  6  7  1  0
  7  8  2  0
  8  9  1  0
  8 10  1  0
 10 11  1  0
 10 12  2  0
 12 13  1  0
 12 14  1  0
 15 14  1  6
 15 16  1  0
 16 17  2  0
 17 18  1  0
 17 19  1  0
 19 20  1  0
 19 21  2  0
 21 22  1  0
 21 23  1  0
 23 24  1  0
 23 25  2  0
 25 26  1  0
 15 27  1  0
 27 28  2  0
 27 29  1  0
 29 30  1  0
 30 31  2  0
 31 32  1  0
 32 33  1  0
 33 34  1  0
 33 35  1  0
 33 36  1  0
 31 37  1  0
 37 38  2  0
 38 39  1  0
 38 40  1  0
 40 41  1  0
 40 42  2  0
 42 43  1  0
 29 44  1  0
 44 45  1  0
 45 46  1  0
 45 47  1  0
 44 48  2  0
 48 49  1  0
 14 50  2  0
 50 51  1  0
  6 52  1  0
 52 53  1  0
 52 54  2  0
 54 55  1  0
 54  2  1  0
 50  7  1  0
 48 15  1  0
 25 16  1  0
 42 30  1  0
M  CHG  1  48   1
M  END
>  <score>  (391) 
5.40603

$$$$

     RDKit          3D

 54 57  0  0  0  0  0  0  0  0999 V2000
   15.5249    5.3218   -1.4215 H   0  0  0  0  0  0  0  0  0  0  0  0
   15.5889    4.2558   -1.6152 C   0  0  0  0  0  0  0  0  0  0  0  0
   15.8405    3.8421   -2.8668 N   0  0  0  0  0  0  0  0  0  0  0  0
   15.9079    2.5187   -3.0967 C   0  0  0  0  0  0  0  0  0  0  0  0
   16.1037    2.1950   -4.1151 H   0  0  0  0  0  0  0  0  0  0  0  0
   15.7187    1.5526   -2.0927 C   0  0  0  0  0  0  0  0  0  0  0  0
   15.7855    0.1179   -2.3898 C   0  0  0  0  0  0  0  0  0  0  0  0
   16.3279   -0.3229   -3.6031 C   0  0  0  0  0  0  0  0  0  0  0  0
   16.7003    0.4018   -4.3204 H   0  0  0  0  0  0  0  0  0  0  0  0
   16.4128   -1.6838   -3.8863 C   0  0  0  0  0  0  0  0  0  0  0  0
   16.8371   -2.0078   -4.8281 H   0  0  0  0  0  0  0  0  0  0  0  0
   15.9414   -2.6209   -2.9677 C   0  0  0  0  0  0  0  0  0  0  0  0
   15.9886   -3.6782   -3.2016 H   0  0  0  0  0  0  0  0  0  0  0  0
   15.3903   -2.2154   -1.7473 C   0  0  0  0  0  0  0  0  0  0  0  0
   14.8248   -3.2372   -0.7790 C   0  0  2  0  0  0  0  0  0  0  0  0
   15.2035   -4.6786   -1.0596 C   0  0  0  0  0  0  0  0  0  0  0  0
   16.4181   -5.1998   -0.5905 C   0  0  0  0  0  0  0  0  0  0  0  0
   17.1059   -4.5567   -0.0468 H   0  0  0  0  0  0  0  0  0  0  0  0
   16.7425   -6.5418   -0.7977 C   0  0  0  0  0  0  0  0  0  0  0  0
   17.6803   -6.9296   -0.4159 H   0  0  0  0  0  0  0  0  0  0  0  0
   15.8536   -7.3781   -1.4811 C   0  0  0  0  0  0  0  0  0  0  0  0
   16.1023   -8.4229   -1.6380 H   0  0  0  0  0  0  0  0  0  0  0  0
   14.6436   -6.8690   -1.9603 C   0  0  0  0  0  0  0  0  0  0  0  0
   13.9507   -7.5097   -2.4954 H   0  0  0  0  0  0  0  0  0  0  0  0
   14.3198   -5.5269   -1.7513 C   0  0  0  0  0  0  0  0  0  0  0  0
   13.3699   -5.1443   -2.1118 H   0  0  0  0  0  0  0  0  0  0  0  0
   13.3010   -3.0767   -0.6825 C   0  0  0  0  0  0  0  0  0  0  0  0
   12.4813   -3.2829   -1.5770 O   0  0  0  0  0  0  0  0  0  0  0  0
   12.9516   -2.7511    0.6047 N   0  0  0  0  0  0  0  0  0  0  0  0
   11.6025   -2.9353    1.1214 C   0  0  0  0  0  0  0  0  0  0  0  0
   11.5561   -2.4371    2.5334 C   0  0  0  0  0  0  0  0  0  0  0  0
   12.1423   -3.1311    3.1483 H   0  0  0  0  0  0  0  0  0  0  0  0
   10.5380   -2.3769    2.9393 H   0  0  0  0  0  0  0  0  0  0  0  0
   12.0114   -1.4371    2.5601 H   0  0  0  0  0  0  0  0  0  0  0  0
   11.2481   -4.4306    1.1196 C   0  0  0  0  0  0  0  0  0  0  0  0
   11.2529   -4.8305    0.0997 H   0  0  0  0  0  0  0  0  0  0  0  0
   11.9796   -4.9988    1.7161 H   0  0  0  0  0  0  0  0  0  0  0  0
   10.2555   -4.5763    1.5593 H   0  0  0  0  0  0  0  0  0  0  0  0
   10.6072   -2.0844    0.3208 C   0  0  0  0  0  0  0  0  0  0  0  0
   10.4360   -2.5017   -0.6763 H   0  0  0  0  0  0  0  0  0  0  0  0
    9.6528   -2.0361    0.8584 H   0  0  0  0  0  0  0  0  0  0  0  0
   10.9960   -1.0627    0.2115 H   0  0  0  0  0  0  0  0  0  0  0  0
   14.1312   -2.7094    1.3274 C   0  0  0  0  0  0  0  0  0  0  0  0
   14.3558   -2.4545    2.6463 N   0  0  0  0  0  0  0  0  0  0  0  0
   15.3383   -2.3813    2.9178 H   0  0  0  0  0  0  0  0  0  0  0  0
   13.6715   -1.8815    3.1338 H   0  0  0  0  0  0  0  0  0  0  0  0
   15.1783   -2.9238    0.6148 N   0  0  0  0  0  4  0  0  0  0  0  0
   16.1157   -3.0306    1.0054 H   0  0  0  0  0  0  0  0  0  0  0  0
   15.3139   -0.8360   -1.4711 C   0  0  0  0  0  0  0  0  0  0  0  0
   14.8658   -0.4974   -0.5391 H   0  0  0  0  0  0  0  0  0  0  0  0
   15.4774    1.9953   -0.7910 C   0  0  0  0  0  0  0  0  0  0  0  0
   15.3715    1.2826    0.0219 H   0  0  0  0  0  0  0  0  0  0  0  0
   15.4076    3.3632   -0.5568 C   0  0  0  0  0  0  0  0  0  0  0  0
   15.2162    3.7342    0.4426 H   0  0  0  0  0  0  0  0  0  0  0  0
  1  2  1  0
  2  3  2  0
  3  4  1  0
  4  5  1  0
  4  6  2  0
  6  7  1  0
  7  8  2  0
  8  9  1  0
  8 10  1  0
 10 11  1  0
 10 12  2  0
 12 13  1  0
 12 14  1  0
 15 14  1  6
 15 16  1  0
 16 17  2  0
 17 18  1  0
 17 19  1  0
 19 20  1  0
 19 21  2  0
 21 22  1  0
 21 23  1  0
 23 24  1  0
 23 25  2  0
 25 26  1  0
 15 27  1  0
 27 28  2  0
 27 29  1  0
 29 30  1  0
 30 31  1  0
 31 32  1  0
 31 33  1  0
 31 34  1  0
 30 35  1  0
 35 36  1  0
 35 37  1  0
 35 38  1  0
 30 39  1  0
 39 40  1  0
 39 41  1  0
 39 42  1  0
 29 43  1  0
 43 44  1  0
 44 45  1  0
 44 46  1  0
 43 47  2  0
 47 48  1  0
 14 49  2  0
 49 50  1  0
  6 51  1  0
 51 52  1  0
 51 53  2  0
 53 54  1  0
 53  2  1  0
 49  7  1  0
 47 15  1  0
 25 16  1  0
M  CHG  1  47   1
M  END
>  <score>  (392) 
5.40556

$$$$

     RDKit          3D

 57 61  0  0  0  0  0  0  0  0999 V2000
   15.5214    5.3238   -1.4207 H   0  0  0  0  0  0  0  0  0  0  0  0
   15.5934    4.2574   -1.6125 C   0  0  0  0  0  0  0  0  0  0  0  0
   15.8423    3.8412   -2.8634 N   0  0  0  0  0  0  0  0  0  0  0  0
   15.9224    2.5173   -3.0906 C   0  0  0  0  0  0  0  0  0  0  0  0
   16.1212    2.1839   -4.1044 H   0  0  0  0  0  0  0  0  0  0  0  0
   15.7507    1.5507   -2.0860 C   0  0  0  0  0  0  0  0  0  0  0  0
   15.8288    0.1128   -2.3907 C   0  0  0  0  0  0  0  0  0  0  0  0
   16.3516   -0.3304   -3.6122 C   0  0  0  0  0  0  0  0  0  0  0  0
   16.7006    0.3955   -4.3388 H   0  0  0  0  0  0  0  0  0  0  0  0
   16.4295   -1.6953   -3.9002 C   0  0  0  0  0  0  0  0  0  0  0  0
   16.8349   -2.0222   -4.8509 H   0  0  0  0  0  0  0  0  0  0  0  0
   15.9813   -2.6345   -2.9683 C   0  0  0  0  0  0  0  0  0  0  0  0
   16.0284   -3.6943   -3.1993 H   0  0  0  0  0  0  0  0  0  0  0  0
   15.4518   -2.2219   -1.7379 C   0  0  0  0  0  0  0  0  0  0  0  0
   14.8566   -3.2258   -0.7651 C   0  0  2  0  0  0  0  0  0  0  0  0
   15.2400   -4.6657   -1.0343 C   0  0  0  0  0  0  0  0  0  0  0  0
   16.4515   -5.1901   -0.5672 C   0  0  0  0  0  0  0  0  0  0  0  0
   17.1364   -4.5481   -0.0190 H   0  0  0  0  0  0  0  0  0  0  0  0
   16.7667   -6.5333   -0.7890 C   0  0  0  0  0  0  0  0  0  0  0  0
   17.7033   -6.9289   -0.4105 H   0  0  0  0  0  0  0  0  0  0  0  0
   15.8741   -7.3589   -1.4845 C   0  0  0  0  0  0  0  0  0  0  0  0
   16.1110   -8.4037   -1.6507 H   0  0  0  0  0  0  0  0  0  0  0  0
   14.6659   -6.8415   -1.9588 C   0  0  0  0  0  0  0  0  0  0  0  0
   13.9578   -7.4684   -2.4916 H   0  0  0  0  0  0  0  0  0  0  0  0
   14.3555   -5.5028   -1.7357 C   0  0  0  0  0  0  0  0  0  0  0  0
   13.4098   -5.1114   -2.0981 H   0  0  0  0  0  0  0  0  0  0  0  0
   13.3313   -3.0722   -0.7671 C   0  0  0  0  0  0  0  0  0  0  0  0
   12.5638   -3.2676   -1.7123 O   0  0  0  0  0  0  0  0  0  0  0  0
   12.9078   -2.7244    0.4896 N   0  0  0  0  0  0  0  0  0  0  0  0
   11.5207   -2.4508    0.8048 C   0  0  0  0  0  0  0  0  0  0  0  0
   10.8871   -2.8187   -0.0130 H   0  0  0  0  0  0  0  0  0  0  0  0
   11.3218   -0.9457    0.9189 C   0  0  0  0  0  0  0  0  0  0  0  0
   11.9251   -0.5671    1.7506 H   0  0  0  0  0  0  0  0  0  0  0  0
   11.6655   -0.4383    0.0100 H   0  0  0  0  0  0  0  0  0  0  0  0
    9.8236   -0.6862    1.1206 C   0  0  0  0  0  0  0  0  0  0  0  0
    9.6294    0.3829    1.2614 H   0  0  0  0  0  0  0  0  0  0  0  0
    9.2848   -1.0113    0.2214 H   0  0  0  0  0  0  0  0  0  0  0  0
    9.3497   -1.4339    2.3057 N   0  0  0  0  0  0  0  0  0  0  0  0
    9.7715   -1.0355    3.1473 H   0  0  0  0  0  0  0  0  0  0  0  0
    9.5899   -2.8812    2.2910 C   0  0  0  0  0  0  0  0  0  0  0  0
    9.2630   -3.3158    3.2445 H   0  0  0  0  0  0  0  0  0  0  0  0
    9.0233   -3.3345    1.4710 H   0  0  0  0  0  0  0  0  0  0  0  0
   11.0776   -3.1644    2.0756 C   0  0  0  0  0  0  0  0  0  0  0  0
   11.6688   -2.7991    2.9155 H   0  0  0  0  0  0  0  0  0  0  0  0
   11.2488   -4.2428    1.9762 H   0  0  0  0  0  0  0  0  0  0  0  0
   14.0384   -2.5535    1.2690 C   0  0  0  0  0  0  0  0  0  0  0  0
   14.1654   -2.1168    2.5532 N   0  0  0  0  0  0  0  0  0  0  0  0
   13.3381   -2.0943    3.1431 H   0  0  0  0  0  0  0  0  0  0  0  0
   15.0736   -2.2722    2.9886 H   0  0  0  0  0  0  0  0  0  0  0  0
   15.1198   -2.8719    0.6428 N   0  0  0  0  0  4  0  0  0  0  0  0
   16.0466   -2.8997    1.0759 H   0  0  0  0  0  0  0  0  0  0  0  0
   15.3714   -0.8428   -1.4698 C   0  0  0  0  0  0  0  0  0  0  0  0
   14.9295   -0.5027   -0.5370 H   0  0  0  0  0  0  0  0  0  0  0  0
   15.5076    1.9940   -0.7848 C   0  0  0  0  0  0  0  0  0  0  0  0
   15.4020    1.2779    0.0254 H   0  0  0  0  0  0  0  0  0  0  0  0
   15.4249    3.3644   -0.5517 C   0  0  0  0  0  0  0  0  0  0  0  0
   15.2354    3.7414    0.4456 H   0  0  0  0  0  0  0  0  0  0  0  0
  1  2  1  0
  2  3  2  0
  3  4  1  0
  4  5  1  0
  4  6  2  0
  6  7  1  0
  7  8  2  0
  8  9  1  0
  8 10  1  0
 10 11  1  0
 10 12  2  0
 12 13  1  0
 12 14  1  0
 15 14  1  6
 15 16  1  0
 16 17  2  0
 17 18  1  0
 17 19  1  0
 19 20  1  0
 19 21  2  0
 21 22  1  0
 21 23  1  0
 23 24  1  0
 23 25  2  0
 25 26  1  0
 15 27  1  0
 27 28  2  0
 27 29  1  0
 29 30  1  0
 30 31  1  0
 30 32  1  0
 32 33  1  0
 32 34  1  0
 32 35  1  0
 35 36  1  0
 35 37  1  0
 35 38  1  0
 38 39  1  0
 38 40  1  0
 40 41  1  0
 40 42  1  0
 40 43  1  0
 43 44  1  0
 43 45  1  0
 29 46  1  0
 46 47  1  0
 47 48  1  0
 47 49  1  0
 46 50  2  0
 50 51  1  0
 14 52  2  0
 52 53  1  0
  6 54  1  0
 54 55  1  0
 54 56  2  0
 56 57  1  0
 56  2  1  0
 52  7  1  0
 50 15  1  0
 25 16  1  0
 43 30  1  0
M  CHG  1  50   1
M  END
>  <score>  (393) 
5.40511

$$$$

     RDKit          3D

 52 56  0  0  0  0  0  0  0  0999 V2000
   15.5692    5.3719   -1.3871 H   0  0  0  0  0  0  0  0  0  0  0  0
   15.5825    4.3030   -1.5955 C   0  0  0  0  0  0  0  0  0  0  0  0
   15.8191    3.8804   -2.8474 N   0  0  0  0  0  0  0  0  0  0  0  0
   15.8637    2.5523   -3.0883 C   0  0  0  0  0  0  0  0  0  0  0  0
   16.0487    2.2198   -4.1049 H   0  0  0  0  0  0  0  0  0  0  0  0
   15.6869    1.5712   -2.0963 C   0  0  0  0  0  0  0  0  0  0  0  0
   15.7696    0.1182   -2.4109 C   0  0  0  0  0  0  0  0  0  0  0  0
   16.3494   -0.3216   -3.6094 C   0  0  0  0  0  0  0  0  0  0  0  0
   16.7224    0.4115   -4.3185 H   0  0  0  0  0  0  0  0  0  0  0  0
   16.4315   -1.6904   -3.9060 C   0  0  0  0  0  0  0  0  0  0  0  0
   16.8639   -2.0078   -4.8509 H   0  0  0  0  0  0  0  0  0  0  0  0
   15.9419   -2.6450   -3.0012 C   0  0  0  0  0  0  0  0  0  0  0  0
   16.0024   -3.7006   -3.2546 H   0  0  0  0  0  0  0  0  0  0  0  0
   15.3736   -2.2436   -1.7782 C   0  0  0  0  0  0  0  0  0  0  0  0
   14.7969   -3.2454   -0.7763 C   0  0  2  0  0  0  0  0  0  0  0  0
   15.1654   -4.7104   -1.0684 C   0  0  0  0  0  0  0  0  0  0  0  0
   16.3891   -5.2332   -0.6116 C   0  0  0  0  0  0  0  0  0  0  0  0
   17.0641   -4.5838   -0.0621 H   0  0  0  0  0  0  0  0  0  0  0  0
   16.7282   -6.5793   -0.8039 C   0  0  0  0  0  0  0  0  0  0  0  0
   17.6707   -6.9555   -0.4168 H   0  0  0  0  0  0  0  0  0  0  0  0
   15.8531   -7.4383   -1.4734 C   0  0  0  0  0  0  0  0  0  0  0  0
   16.1201   -8.4847   -1.6115 H   0  0  0  0  0  0  0  0  0  0  0  0
   14.6429   -6.9355   -1.9622 C   0  0  0  0  0  0  0  0  0  0  0  0
   13.9729   -7.6103   -2.4877 H   0  0  0  0  0  0  0  0  0  0  0  0
   14.3016   -5.5843   -1.7652 C   0  0  0  0  0  0  0  0  0  0  0  0
   13.3517   -5.2291   -2.1535 H   0  0  0  0  0  0  0  0  0  0  0  0
   13.2840   -3.0027   -0.5972 C   0  0  0  0  0  0  0  0  0  0  0  0
   12.4325   -3.0938   -1.4784 O   0  0  0  0  0  0  0  0  0  0  0  0
   12.9976   -2.6777    0.7134 N   0  0  0  0  0  0  0  0  0  0  0  0
   11.7219   -2.4924    1.2634 C   0  0  0  0  0  0  0  0  0  0  0  0
   10.8202   -1.5881    0.6890 C   0  0  0  0  0  0  0  0  0  0  0  0
   11.1374   -1.0034   -0.1684 H   0  0  0  0  0  0  0  0  0  0  0  0
    9.5406   -1.4120    1.2379 C   0  0  0  0  0  0  0  0  0  0  0  0
    8.8544   -0.6964    0.7957 H   0  0  0  0  0  0  0  0  0  0  0  0
    9.1501   -2.1539    2.3594 C   0  0  0  0  0  0  0  0  0  0  0  0
    8.1598   -2.0278    2.7875 H   0  0  0  0  0  0  0  0  0  0  0  0
   10.0489   -3.0574    2.9352 C   0  0  0  0  0  0  0  0  0  0  0  0
    9.7467   -3.6379    3.8010 H   0  0  0  0  0  0  0  0  0  0  0  0
   11.3308   -3.2165    2.3928 C   0  0  0  0  0  0  0  0  0  0  0  0
   12.0271   -3.9196    2.8377 H   0  0  0  0  0  0  0  0  0  0  0  0
   14.1997   -2.6548    1.3816 C   0  0  0  0  0  0  0  0  0  0  0  0
   14.3947   -2.3538    2.6982 N   0  0  0  0  0  0  0  0  0  0  0  0
   15.3361   -2.3784    3.0931 H   0  0  0  0  0  0  0  0  0  0  0  0
   13.6018   -2.0371    3.2529 H   0  0  0  0  0  0  0  0  0  0  0  0
   15.1990   -2.9102    0.6037 N   0  0  0  0  0  4  0  0  0  0  0  0
   16.1697   -2.9135    0.9091 H   0  0  0  0  0  0  0  0  0  0  0  0
   15.2929   -0.8582   -1.5153 C   0  0  0  0  0  0  0  0  0  0  0  0
   14.8713   -0.5230   -0.5753 H   0  0  0  0  0  0  0  0  0  0  0  0
   15.4395    2.0248   -0.7976 C   0  0  0  0  0  0  0  0  0  0  0  0
   15.3013    1.3049   -0.0004 H   0  0  0  0  0  0  0  0  0  0  0  0
   15.3732    3.4006   -0.5523 C   0  0  0  0  0  0  0  0  0  0  0  0
   15.1682    3.7855    0.4394 H   0  0  0  0  0  0  0  0  0  0  0  0
  1  2  1  0
  2  3  2  0
  3  4  1  0
  4  5  1  0
  4  6  2  0
  6  7  1  0
  7  8  2  0
  8  9  1  0
  8 10  1  0
 10 11  1  0
 10 12  2  0
 12 13  1  0
 12 14  1  0
 15 14  1  6
 15 16  1  0
 16 17  2  0
 17 18  1  0
 17 19  1  0
 19 20  1  0
 19 21  2  0
 21 22  1  0
 21 23  1  0
 23 24  1  0
 23 25  2  0
 25 26  1  0
 15 27  1  0
 27 28  2  0
 27 29  1  0
 29 30  1  0
 30 31  2  0
 31 32  1  0
 31 33  1  0
 33 34  1  0
 33 35  2  0
 35 36  1  0
 35 37  1  0
 37 38  1  0
 37 39  2  0
 39 40  1  0
 29 41  1  0
 41 42  1  0
 42 43  1  0
 42 44  1  0
 41 45  2  0
 45 46  1  0
 14 47  2  0
 47 48  1  0
  6 49  1  0
 49 50  1  0
 49 51  2  0
 51 52  1  0
 51  2  1  0
 47  7  1  0
 45 15  1  0
 25 16  1  0
 39 30  1  0
M  CHG  1  45   1
M  END
>  <score>  (394) 
5.40476

$$$$

     RDKit          3D

 60 64  0  0  0  0  0  0  0  0999 V2000
   15.5396    5.3177   -1.4083 H   0  0  0  0  0  0  0  0  0  0  0  0
   15.6116    4.2527   -1.6038 C   0  0  0  0  0  0  0  0  0  0  0  0
   15.8480    3.8428   -2.8586 N   0  0  0  0  0  0  0  0  0  0  0  0
   15.9502    2.5209   -3.0861 C   0  0  0  0  0  0  0  0  0  0  0  0
   16.1362    2.1975   -4.1055 H   0  0  0  0  0  0  0  0  0  0  0  0
   15.8168    1.5479   -2.0794 C   0  0  0  0  0  0  0  0  0  0  0  0
   15.9328    0.1088   -2.3891 C   0  0  0  0  0  0  0  0  0  0  0  0
   16.3895   -0.3310   -3.6413 C   0  0  0  0  0  0  0  0  0  0  0  0
   16.6828    0.3978   -4.3887 H   0  0  0  0  0  0  0  0  0  0  0  0
   16.4773   -1.6972   -3.9372 C   0  0  0  0  0  0  0  0  0  0  0  0
   16.8235   -2.0212   -4.9127 H   0  0  0  0  0  0  0  0  0  0  0  0
   16.1096   -2.6442   -2.9818 C   0  0  0  0  0  0  0  0  0  0  0  0
   16.1480   -3.7036   -3.2185 H   0  0  0  0  0  0  0  0  0  0  0  0
   15.6526   -2.2362   -1.7283 C   0  0  0  0  0  0  0  0  0  0  0  0
   15.0567   -3.2353   -0.7690 C   0  0  2  0  0  0  0  0  0  0  0  0
   15.3636   -4.6929   -1.0789 C   0  0  0  0  0  0  0  0  0  0  0  0
   16.5649   -5.2785   -0.6431 C   0  0  0  0  0  0  0  0  0  0  0  0
   17.2885   -4.6818   -0.0954 H   0  0  0  0  0  0  0  0  0  0  0  0
   16.8251   -6.6342   -0.8742 C   0  0  0  0  0  0  0  0  0  0  0  0
   17.7533   -7.0738   -0.5171 H   0  0  0  0  0  0  0  0  0  0  0  0
   15.8870   -7.4199   -1.5522 C   0  0  0  0  0  0  0  0  0  0  0  0
   16.0836   -8.4749   -1.7233 H   0  0  0  0  0  0  0  0  0  0  0  0
   14.6923   -6.8461   -2.0044 C   0  0  0  0  0  0  0  0  0  0  0  0
   13.9587   -7.4497   -2.5311 H   0  0  0  0  0  0  0  0  0  0  0  0
   14.4374   -5.4900   -1.7707 C   0  0  0  0  0  0  0  0  0  0  0  0
   13.5005   -5.0606   -2.1120 H   0  0  0  0  0  0  0  0  0  0  0  0
   13.5601   -2.9019   -0.7502 C   0  0  0  0  0  0  0  0  0  0  0  0
   12.7467   -3.0548   -1.6629 O   0  0  0  0  0  0  0  0  0  0  0  0
   13.2676   -2.3638    0.4769 N   0  0  0  0  0  0  0  0  0  0  0  0
   11.9868   -1.9605    0.8052 C   0  0  0  0  0  0  0  0  0  0  0  0
   11.3865   -2.4652    1.9336 C   0  0  0  0  0  0  0  0  0  0  0  0
   11.9406   -3.1433    2.5707 H   0  0  0  0  0  0  0  0  0  0  0  0
   10.0768   -2.1193    2.2167 C   0  0  0  0  0  0  0  0  0  0  0  0
    9.6187   -2.5054    3.1146 H   0  0  0  0  0  0  0  0  0  0  0  0
    9.3506   -1.2286    1.4044 C   0  0  0  0  0  0  0  0  0  0  0  0
    8.0934   -0.8117    1.7861 O   0  0  0  0  0  0  0  0  0  0  0  0
    7.8254   -1.1467    3.1503 C   0  0  0  0  0  0  0  0  0  0  0  0
    7.8733   -2.2350    3.2783 H   0  0  0  0  0  0  0  0  0  0  0  0
    8.5771   -0.6712    3.7840 H   0  0  0  0  0  0  0  0  0  0  0  0
    6.8374   -0.8425    3.4996 H   0  0  0  0  0  0  0  0  0  0  0  0
    9.9535   -0.7377    0.2302 C   0  0  0  0  0  0  0  0  0  0  0  0
    9.2603    0.1217   -0.5935 O   0  0  0  0  0  0  0  0  0  0  0  0
   10.0004    0.6705   -1.6990 C   0  0  0  0  0  0  0  0  0  0  0  0
   10.9448    1.1070   -1.3566 H   0  0  0  0  0  0  0  0  0  0  0  0
    9.4206    1.4513   -2.2015 H   0  0  0  0  0  0  0  0  0  0  0  0
   10.2315   -0.1134   -2.4255 H   0  0  0  0  0  0  0  0  0  0  0  0
   11.2739   -1.1295   -0.0596 C   0  0  0  0  0  0  0  0  0  0  0  0
   11.7540   -0.7741   -0.9641 H   0  0  0  0  0  0  0  0  0  0  0  0
   14.3624   -2.5617    1.2973 C   0  0  0  0  0  0  0  0  0  0  0  0
   14.5123   -2.4359    2.6435 N   0  0  0  0  0  0  0  0  0  0  0  0
   13.8518   -1.8487    3.1464 H   0  0  0  0  0  0  0  0  0  0  0  0
   15.4663   -2.5173    2.9930 H   0  0  0  0  0  0  0  0  0  0  0  0
   15.4002   -2.9473    0.6333 N   0  0  0  0  0  4  0  0  0  0  0  0
   16.2798   -3.2202    1.0724 H   0  0  0  0  0  0  0  0  0  0  0  0
   15.5656   -0.8603   -1.4447 C   0  0  0  0  0  0  0  0  0  0  0  0
   15.1632   -0.5452   -0.4864 H   0  0  0  0  0  0  0  0  0  0  0  0
   15.5611    1.9880   -0.7753 C   0  0  0  0  0  0  0  0  0  0  0  0
   15.4547    1.2786    0.0417 H   0  0  0  0  0  0  0  0  0  0  0  0
   15.4568    3.3576   -0.5436 C   0  0  0  0  0  0  0  0  0  0  0  0
   15.2619    3.7374    0.4524 H   0  0  0  0  0  0  0  0  0  0  0  0
  1  2  1  0
  2  3  2  0
  3  4  1  0
  4  5  1  0
  4  6  2  0
  6  7  1  0
  7  8  2  0
  8  9  1  0
  8 10  1  0
 10 11  1  0
 10 12  2  0
 12 13  1  0
 12 14  1  0
 15 14  1  6
 15 16  1  0
 16 17  2  0
 17 18  1  0
 17 19  1  0
 19 20  1  0
 19 21  2  0
 21 22  1  0
 21 23  1  0
 23 24  1  0
 23 25  2  0
 25 26  1  0
 15 27  1  0
 27 28  2  0
 27 29  1  0
 29 30  1  0
 30 31  2  0
 31 32  1  0
 31 33  1  0
 33 34  1  0
 33 35  2  0
 35 36  1  0
 36 37  1  0
 37 38  1  0
 37 39  1  0
 37 40  1  0
 35 41  1  0
 41 42  1  0
 42 43  1  0
 43 44  1  0
 43 45  1  0
 43 46  1  0
 41 47  2  0
 47 48  1  0
 29 49  1  0
 49 50  1  0
 50 51  1  0
 50 52  1  0
 49 53  2  0
 53 54  1  0
 14 55  2  0
 55 56  1  0
  6 57  1  0
 57 58  1  0
 57 59  2  0
 59 60  1  0
 59  2  1  0
 55  7  1  0
 53 15  1  0
 25 16  1  0
 47 30  1  0
M  CHG  1  53   1
M  END
>  <score>  (395) 
5.4046

$$$$

     RDKit          3D

 45 48  0  0  0  0  0  0  0  0999 V2000
   15.5674    5.3695   -1.3884 H   0  0  0  0  0  0  0  0  0  0  0  0
   15.5857    4.3003   -1.5973 C   0  0  0  0  0  0  0  0  0  0  0  0
   15.8197    3.8790   -2.8505 N   0  0  0  0  0  0  0  0  0  0  0  0
   15.8666    2.5512   -3.0876 C   0  0  0  0  0  0  0  0  0  0  0  0
   16.0471    2.2245   -4.1052 H   0  0  0  0  0  0  0  0  0  0  0  0
   15.6865    1.5701   -2.0961 C   0  0  0  0  0  0  0  0  0  0  0  0
   15.7740    0.1195   -2.4093 C   0  0  0  0  0  0  0  0  0  0  0  0
   16.3421   -0.3221   -3.6126 C   0  0  0  0  0  0  0  0  0  0  0  0
   16.7256    0.4074   -4.3193 H   0  0  0  0  0  0  0  0  0  0  0  0
   16.4306   -1.6900   -3.9064 C   0  0  0  0  0  0  0  0  0  0  0  0
   16.8644   -2.0084   -4.8496 H   0  0  0  0  0  0  0  0  0  0  0  0
   15.9417   -2.6437   -3.0027 C   0  0  0  0  0  0  0  0  0  0  0  0
   16.0038   -3.6998   -3.2574 H   0  0  0  0  0  0  0  0  0  0  0  0
   15.3685   -2.2419   -1.7844 C   0  0  0  0  0  0  0  0  0  0  0  0
   14.8018   -3.2515   -0.7858 C   0  0  2  0  0  0  0  0  0  0  0  0
   15.1657   -4.7154   -1.0692 C   0  0  0  0  0  0  0  0  0  0  0  0
   16.3869   -5.2347   -0.6052 C   0  0  0  0  0  0  0  0  0  0  0  0
   17.0694   -4.5861   -0.0642 H   0  0  0  0  0  0  0  0  0  0  0  0
   16.7306   -6.5778   -0.8030 C   0  0  0  0  0  0  0  0  0  0  0  0
   17.6722   -6.9557   -0.4167 H   0  0  0  0  0  0  0  0  0  0  0  0
   15.8556   -7.4367   -1.4725 C   0  0  0  0  0  0  0  0  0  0  0  0
   16.1190   -8.4838   -1.6117 H   0  0  0  0  0  0  0  0  0  0  0  0
   14.6442   -6.9381   -1.9614 C   0  0  0  0  0  0  0  0  0  0  0  0
   13.9710   -7.6081   -2.4884 H   0  0  0  0  0  0  0  0  0  0  0  0
   14.3022   -5.5880   -1.7672 C   0  0  0  0  0  0  0  0  0  0  0  0
   13.3531   -5.2298   -2.1541 H   0  0  0  0  0  0  0  0  0  0  0  0
   13.2901   -3.0311   -0.5847 C   0  0  0  0  0  0  0  0  0  0  0  0
   12.3781   -3.0670   -1.4020 O   0  0  0  0  0  0  0  0  0  0  0  0
   13.0440   -2.7060    0.7138 N   0  0  0  0  0  0  0  0  0  0  0  0
   11.7737   -2.3645    1.2666 C   0  0  0  0  0  0  0  0  0  0  0  0
   10.7754   -2.4598    0.3428 F   0  0  0  0  0  0  0  0  0  0  0  0
   11.5022   -3.2060    2.2974 F   0  0  0  0  0  0  0  0  0  0  0  0
   11.8591   -1.0809    1.6748 F   0  0  0  0  0  0  0  0  0  0  0  0
   14.2227   -2.6313    1.3715 C   0  0  0  0  0  0  0  0  0  0  0  0
   14.3699   -2.3246    2.6836 N   0  0  0  0  0  0  0  0  0  0  0  0
   13.5544   -2.1275    3.2607 H   0  0  0  0  0  0  0  0  0  0  0  0
   15.3103   -2.3509    3.0820 H   0  0  0  0  0  0  0  0  0  0  0  0
   15.2061   -2.9020    0.5946 N   0  0  0  0  0  4  0  0  0  0  0  0
   16.1724   -2.9152    0.9143 H   0  0  0  0  0  0  0  0  0  0  0  0
   15.3001   -0.8558   -1.5109 C   0  0  0  0  0  0  0  0  0  0  0  0
   14.8670   -0.5225   -0.5754 H   0  0  0  0  0  0  0  0  0  0  0  0
   15.4327    2.0235   -0.7979 C   0  0  0  0  0  0  0  0  0  0  0  0
   15.3015    1.3079    0.0052 H   0  0  0  0  0  0  0  0  0  0  0  0
   15.3735    3.3995   -0.5511 C   0  0  0  0  0  0  0  0  0  0  0  0
   15.1689    3.7857    0.4424 H   0  0  0  0  0  0  0  0  0  0  0  0
  1  2  1  0
  2  3  2  0
  3  4  1  0
  4  5  1  0
  4  6  2  0
  6  7  1  0
  7  8  2  0
  8  9  1  0
  8 10  1  0
 10 11  1  0
 10 12  2  0
 12 13  1  0
 12 14  1  0
 15 14  1  6
 15 16  1  0
 16 17  2  0
 17 18  1  0
 17 19  1  0
 19 20  1  0
 19 21  2  0
 21 22  1  0
 21 23  1  0
 23 24  1  0
 23 25  2  0
 25 26  1  0
 15 27  1  0
 27 28  2  0
 27 29  1  0
 29 30  1  0
 30 31  1  0
 30 32  1  0
 30 33  1  0
 29 34  1  0
 34 35  1  0
 35 36  1  0
 35 37  1  0
 34 38  2  0
 38 39  1  0
 14 40  2  0
 40 41  1  0
  6 42  1  0
 42 43  1  0
 42 44  2  0
 44 45  1  0
 44  2  1  0
 40  7  1  0
 38 15  1  0
 25 16  1  0
M  CHG  1  38   1
M  END
>  <score>  (396) 
5.40393

$$$$

     RDKit          3D

 55 59  0  0  0  0  0  0  0  0999 V2000
    9.7852   -0.1602    2.4719 H   0  0  0  0  0  0  0  0  0  0  0  0
    9.3153   -0.7779    1.8748 O   0  0  0  0  0  0  0  0  0  0  0  0
    9.6878   -2.1048    2.2610 C   0  0  2  0  0  0  0  0  0  0  0  0
    9.2437   -2.3535    3.2335 H   0  0  0  0  0  0  0  0  0  0  0  0
   11.2170   -2.2712    2.3049 C   0  0  0  0  0  0  0  0  0  0  0  0
   11.7350   -1.3127    2.3420 H   0  0  0  0  0  0  0  0  0  0  0  0
   11.5166   -2.8748    3.1621 H   0  0  0  0  0  0  0  0  0  0  0  0
   11.5945   -2.9805    1.0799 N   0  0  0  0  0  0  0  0  0  0  0  0
   12.9425   -2.8172    0.5696 N   0  0  0  0  0  0  0  0  0  0  0  0
   13.3445   -3.0969   -0.7284 C   0  0  0  0  0  0  0  0  0  0  0  0
   12.5711   -3.2564   -1.6788 O   0  0  0  0  0  0  0  0  0  0  0  0
   14.8782   -3.2401   -0.7921 C   0  0  1  0  0  0  0  0  0  0  0  0
   15.2778   -4.6818   -1.0689 C   0  0  0  0  0  0  0  0  0  0  0  0
   16.4913   -5.2199   -0.6074 C   0  0  0  0  0  0  0  0  0  0  0  0
   17.1947   -4.5929   -0.0649 H   0  0  0  0  0  0  0  0  0  0  0  0
   16.7888   -6.5734   -0.8086 C   0  0  0  0  0  0  0  0  0  0  0  0
   17.7196   -6.9841   -0.4284 H   0  0  0  0  0  0  0  0  0  0  0  0
   15.8827   -7.3995   -1.4864 C   0  0  0  0  0  0  0  0  0  0  0  0
   16.1063   -8.4500   -1.6429 H   0  0  0  0  0  0  0  0  0  0  0  0
   14.6847   -6.8682   -1.9715 C   0  0  0  0  0  0  0  0  0  0  0  0
   13.9684   -7.4927   -2.4982 H   0  0  0  0  0  0  0  0  0  0  0  0
   14.3921   -5.5203   -1.7675 C   0  0  0  0  0  0  0  0  0  0  0  0
   13.4522   -5.1241   -2.1369 H   0  0  0  0  0  0  0  0  0  0  0  0
   15.4564   -2.2293   -1.7696 C   0  0  0  0  0  0  0  0  0  0  0  0
   15.9996   -2.6305   -3.0002 C   0  0  0  0  0  0  0  0  0  0  0  0
   16.0624   -3.6870   -3.2428 H   0  0  0  0  0  0  0  0  0  0  0  0
   16.4433   -1.6808   -3.9264 C   0  0  0  0  0  0  0  0  0  0  0  0
   16.8462   -1.9912   -4.8850 H   0  0  0  0  0  0  0  0  0  0  0  0
   16.3553   -0.3179   -3.6298 C   0  0  0  0  0  0  0  0  0  0  0  0
   16.6973    0.4133   -4.3550 H   0  0  0  0  0  0  0  0  0  0  0  0
   15.8307    0.1152   -2.4052 C   0  0  0  0  0  0  0  0  0  0  0  0
   15.7491    1.5544   -2.0928 C   0  0  0  0  0  0  0  0  0  0  0  0
   15.9173    2.5255   -3.0953 C   0  0  0  0  0  0  0  0  0  0  0  0
   16.1163    2.1927   -4.1091 H   0  0  0  0  0  0  0  0  0  0  0  0
   15.8373    3.8501   -2.8655 N   0  0  0  0  0  0  0  0  0  0  0  0
   15.5917    4.2618   -1.6125 C   0  0  0  0  0  0  0  0  0  0  0  0
   15.5205    5.3279   -1.4178 H   0  0  0  0  0  0  0  0  0  0  0  0
   15.4244    3.3648   -0.5540 C   0  0  0  0  0  0  0  0  0  0  0  0
   15.2298    3.7341    0.4451 H   0  0  0  0  0  0  0  0  0  0  0  0
   15.5061    1.9949   -0.7909 C   0  0  0  0  0  0  0  0  0  0  0  0
   15.3912    1.2788    0.0175 H   0  0  0  0  0  0  0  0  0  0  0  0
   15.3760   -0.8514   -1.4927 C   0  0  0  0  0  0  0  0  0  0  0  0
   14.9437   -0.5205   -0.5532 H   0  0  0  0  0  0  0  0  0  0  0  0
   15.1969   -2.9011    0.6025 N   0  0  0  0  0  4  0  0  0  0  0  0
   16.1325   -2.9922    1.0051 H   0  0  0  0  0  0  0  0  0  0  0  0
   14.1317   -2.7193    1.3059 C   0  0  0  0  0  0  0  0  0  0  0  0
   14.4000   -2.4700    2.6287 N   0  0  0  0  0  0  0  0  0  0  0  0
   15.3711   -2.2497    2.8510 H   0  0  0  0  0  0  0  0  0  0  0  0
   13.6624   -2.0753    3.2081 H   0  0  0  0  0  0  0  0  0  0  0  0
   10.4179   -3.0904    0.1982 C   0  0  0  0  0  0  0  0  0  0  0  0
   10.4558   -4.0117   -0.3902 H   0  0  0  0  0  0  0  0  0  0  0  0
   10.3423   -2.2497   -0.5020 H   0  0  0  0  0  0  0  0  0  0  0  0
    9.2442   -3.0718    1.1769 C   0  0  0  0  0  0  0  0  0  0  0  0
    8.3034   -2.7786    0.7014 H   0  0  0  0  0  0  0  0  0  0  0  0
    9.1060   -4.0634    1.6102 H   0  0  0  0  0  0  0  0  0  0  0  0
  1  2  1  0
  2  3  1  0
  3  4  1  1
  3  5  1  0
  5  6  1  0
  5  7  1  0
  5  8  1  0
  8  9  1  0
  9 10  1  0
 10 11  2  0
 10 12  1  0
 12 13  1  6
 13 14  2  0
 14 15  1  0
 14 16  1  0
 16 17  1  0
 16 18  2  0
 18 19  1  0
 18 20  1  0
 20 21  1  0
 20 22  2  0
 22 23  1  0
 12 24  1  0
 24 25  2  0
 25 26  1  0
 25 27  1  0
 27 28  1  0
 27 29  2  0
 29 30  1  0
 29 31  1  0
 31 32  1  0
 32 33  2  0
 33 34  1  0
 33 35  1  0
 35 36  2  0
 36 37  1  0
 36 38  1  0
 38 39  1  0
 38 40  2  0
 40 41  1  0
 31 42  2  0
 42 43  1  0
 12 44  1  0
 44 45  1  0
 44 46  2  0
 46 47  1  0
 47 48  1  0
 47 49  1  0
  8 50  1  0
 50 51  1  0
 50 52  1  0
 50 53  1  0
 53 54  1  0
 53 55  1  0
 53  3  1  0
 46  9  1  0
 22 13  1  0
 42 24  1  0
 40 32  1  0
M  CHG  1  44   1
M  END
>  <score>  (397) 
5.40348

$$$$

     RDKit          3D

 53 56  0  0  0  0  0  0  0  0999 V2000
   15.5695    5.3720   -1.3876 H   0  0  0  0  0  0  0  0  0  0  0  0
   15.5837    4.3030   -1.5954 C   0  0  0  0  0  0  0  0  0  0  0  0
   15.8194    3.8805   -2.8475 N   0  0  0  0  0  0  0  0  0  0  0  0
   15.8639    2.5526   -3.0877 C   0  0  0  0  0  0  0  0  0  0  0  0
   16.0461    2.2243   -4.1056 H   0  0  0  0  0  0  0  0  0  0  0  0
   15.6860    1.5707   -2.0956 C   0  0  0  0  0  0  0  0  0  0  0  0
   15.7714    0.1179   -2.4101 C   0  0  0  0  0  0  0  0  0  0  0  0
   16.3475   -0.3219   -3.6108 C   0  0  0  0  0  0  0  0  0  0  0  0
   16.7252    0.4070   -4.3216 H   0  0  0  0  0  0  0  0  0  0  0  0
   16.4311   -1.6904   -3.9067 C   0  0  0  0  0  0  0  0  0  0  0  0
   16.8645   -2.0084   -4.8511 H   0  0  0  0  0  0  0  0  0  0  0  0
   15.9402   -2.6451   -3.0024 C   0  0  0  0  0  0  0  0  0  0  0  0
   16.0037   -3.7001   -3.2580 H   0  0  0  0  0  0  0  0  0  0  0  0
   15.3649   -2.2474   -1.7801 C   0  0  0  0  0  0  0  0  0  0  0  0
   14.7937   -3.2602   -0.7772 C   0  0  2  0  0  0  0  0  0  0  0  0
   15.1692   -4.7176   -1.0688 C   0  0  0  0  0  0  0  0  0  0  0  0
   16.3910   -5.2366   -0.6088 C   0  0  0  0  0  0  0  0  0  0  0  0
   17.0671   -4.5858   -0.0631 H   0  0  0  0  0  0  0  0  0  0  0  0
   16.7296   -6.5809   -0.8030 C   0  0  0  0  0  0  0  0  0  0  0  0
   17.6722   -6.9559   -0.4170 H   0  0  0  0  0  0  0  0  0  0  0  0
   15.8540   -7.4398   -1.4724 C   0  0  0  0  0  0  0  0  0  0  0  0
   16.1208   -8.4858   -1.6116 H   0  0  0  0  0  0  0  0  0  0  0  0
   14.6436   -6.9388   -1.9619 C   0  0  0  0  0  0  0  0  0  0  0  0
   13.9720   -7.6112   -2.4879 H   0  0  0  0  0  0  0  0  0  0  0  0
   14.3037   -5.5890   -1.7665 C   0  0  0  0  0  0  0  0  0  0  0  0
   13.3535   -5.2320   -2.1540 H   0  0  0  0  0  0  0  0  0  0  0  0
   13.2716   -3.0759   -0.5751 C   0  0  0  0  0  0  0  0  0  0  0  0
   12.4032   -3.0832   -1.4409 O   0  0  0  0  0  0  0  0  0  0  0  0
   13.0106   -2.6966    0.7143 N   0  0  0  0  0  0  0  0  0  0  0  0
   11.6991   -2.4168    1.2520 C   0  0  0  0  0  0  0  0  0  0  0  0
   11.1097   -1.7946    0.5595 H   0  0  0  0  0  0  0  0  0  0  0  0
   11.7800   -1.8862    2.2059 H   0  0  0  0  0  0  0  0  0  0  0  0
   11.0229   -3.6977    1.4624 N   0  0  0  0  0  0  0  0  0  0  0  0
    9.5735   -3.5277    1.6936 C   0  0  0  0  0  0  0  0  0  0  0  0
    9.0721   -4.4951    1.8035 H   0  0  0  0  0  0  0  0  0  0  0  0
    9.0989   -2.9836    0.8706 H   0  0  0  0  0  0  0  0  0  0  0  0
    9.4005   -2.9651    2.6144 H   0  0  0  0  0  0  0  0  0  0  0  0
   11.6270   -4.5476    2.5085 C   0  0  0  0  0  0  0  0  0  0  0  0
   11.0617   -5.4809    2.6234 H   0  0  0  0  0  0  0  0  0  0  0  0
   12.6690   -4.7885    2.2715 H   0  0  0  0  0  0  0  0  0  0  0  0
   11.6012   -4.0279    3.4701 H   0  0  0  0  0  0  0  0  0  0  0  0
   14.1992   -2.6453    1.3762 C   0  0  0  0  0  0  0  0  0  0  0  0
   14.3847   -2.3419    2.6897 N   0  0  0  0  0  0  0  0  0  0  0  0
   13.5745   -2.1790    3.2825 H   0  0  0  0  0  0  0  0  0  0  0  0
   15.3306   -2.3411    3.0738 H   0  0  0  0  0  0  0  0  0  0  0  0
   15.1958   -2.9017    0.5998 N   0  0  0  0  0  4  0  0  0  0  0  0
   16.1635   -2.9110    0.9125 H   0  0  0  0  0  0  0  0  0  0  0  0
   15.2938   -0.8599   -1.5140 C   0  0  0  0  0  0  0  0  0  0  0  0
   14.8696   -0.5256   -0.5757 H   0  0  0  0  0  0  0  0  0  0  0  0
   15.4354    2.0253   -0.7968 C   0  0  0  0  0  0  0  0  0  0  0  0
   15.2983    1.3089    0.0041 H   0  0  0  0  0  0  0  0  0  0  0  0
   15.3721    3.4014   -0.5512 C   0  0  0  0  0  0  0  0  0  0  0  0
   15.1681    3.7873    0.4412 H   0  0  0  0  0  0  0  0  0  0  0  0
  1  2  1  0
  2  3  2  0
  3  4  1  0
  4  5  1  0
  4  6  2  0
  6  7  1  0
  7  8  2  0
  8  9  1  0
  8 10  1  0
 10 11  1  0
 10 12  2  0
 12 13  1  0
 12 14  1  0
 15 14  1  6
 15 16  1  0
 16 17  2  0
 17 18  1  0
 17 19  1  0
 19 20  1  0
 19 21  2  0
 21 22  1  0
 21 23  1  0
 23 24  1  0
 23 25  2  0
 25 26  1  0
 15 27  1  0
 27 28  2  0
 27 29  1  0
 29 30  1  0
 30 31  1  0
 30 32  1  0
 30 33  1  0
 33 34  1  0
 34 35  1  0
 34 36  1  0
 34 37  1  0
 33 38  1  0
 38 39  1  0
 38 40  1  0
 38 41  1  0
 29 42  1  0
 42 43  1  0
 43 44  1  0
 43 45  1  0
 42 46  2  0
 46 47  1  0
 14 48  2  0
 48 49  1  0
  6 50  1  0
 50 51  1  0
 50 52  2  0
 52 53  1  0
 52  2  1  0
 48  7  1  0
 46 15  1  0
 25 16  1  0
M  CHG  1  46   1
M  END
>  <score>  (398) 
5.40318

$$$$

     RDKit          3D

 62 66  0  0  0  0  0  0  0  0999 V2000
   15.5154    5.3138   -1.4273 H   0  0  0  0  0  0  0  0  0  0  0  0
   15.5885    4.2475   -1.6175 C   0  0  0  0  0  0  0  0  0  0  0  0
   15.8442    3.8370   -2.8686 N   0  0  0  0  0  0  0  0  0  0  0  0
   15.9188    2.5156   -3.1022 C   0  0  0  0  0  0  0  0  0  0  0  0
   16.1157    2.1980   -4.1224 H   0  0  0  0  0  0  0  0  0  0  0  0
   15.7349    1.5478   -2.0985 C   0  0  0  0  0  0  0  0  0  0  0  0
   15.8076    0.1169   -2.4068 C   0  0  0  0  0  0  0  0  0  0  0  0
   16.3441   -0.3135   -3.6261 C   0  0  0  0  0  0  0  0  0  0  0  0
   16.7002    0.4083   -4.3553 H   0  0  0  0  0  0  0  0  0  0  0  0
   16.4306   -1.6742   -3.9141 C   0  0  0  0  0  0  0  0  0  0  0  0
   16.8396   -1.9886   -4.8676 H   0  0  0  0  0  0  0  0  0  0  0  0
   15.9784   -2.6185   -2.9866 C   0  0  0  0  0  0  0  0  0  0  0  0
   16.0364   -3.6737   -3.2297 H   0  0  0  0  0  0  0  0  0  0  0  0
   15.4372   -2.2184   -1.7549 C   0  0  0  0  0  0  0  0  0  0  0  0
   14.8922   -3.2222   -0.7469 C   0  0  2  0  0  0  0  0  0  0  0  0
   15.2465   -4.6696   -1.0447 C   0  0  0  0  0  0  0  0  0  0  0  0
   16.4606   -5.2128   -0.5931 C   0  0  0  0  0  0  0  0  0  0  0  0
   17.1697   -4.5859   -0.0577 H   0  0  0  0  0  0  0  0  0  0  0  0
   16.7590   -6.5602   -0.8050 C   0  0  0  0  0  0  0  0  0  0  0  0
   17.6926   -6.9619   -0.4254 H   0  0  0  0  0  0  0  0  0  0  0  0
   15.8557   -7.3812   -1.4866 C   0  0  0  0  0  0  0  0  0  0  0  0
   16.0905   -8.4286   -1.6491 H   0  0  0  0  0  0  0  0  0  0  0  0
   14.6531   -6.8477   -1.9598 C   0  0  0  0  0  0  0  0  0  0  0  0
   13.9494   -7.4772   -2.4947 H   0  0  0  0  0  0  0  0  0  0  0  0
   14.3509   -5.5003   -1.7431 C   0  0  0  0  0  0  0  0  0  0  0  0
   13.4073   -5.1061   -2.1116 H   0  0  0  0  0  0  0  0  0  0  0  0
   13.3746   -3.0209   -0.5968 C   0  0  0  0  0  0  0  0  0  0  0  0
   12.5314   -3.1834   -1.4792 O   0  0  0  0  0  0  0  0  0  0  0  0
   13.0925   -2.6511    0.7016 N   0  0  0  0  0  0  0  0  0  0  0  0
   11.8314   -2.2042    1.1865 O   0  0  0  0  0  0  0  0  0  0  0  0
   11.0977   -3.3011    1.7407 C   0  0  0  0  0  0  0  0  0  0  0  0
   11.6577   -3.7687    2.5566 H   0  0  0  0  0  0  0  0  0  0  0  0
   10.9358   -4.0601    0.9685 H   0  0  0  0  0  0  0  0  0  0  0  0
    9.7445   -2.8565    2.2649 C   0  0  0  0  0  0  0  0  0  0  0  0
    9.8608   -2.2079    3.1428 H   0  0  0  0  0  0  0  0  0  0  0  0
    9.2120   -2.2965    1.4889 H   0  0  0  0  0  0  0  0  0  0  0  0
    9.0127   -4.0836    2.6209 N   0  0  0  0  0  0  0  0  0  0  0  0
    9.2215   -4.5392    4.0121 C   0  0  0  0  0  0  0  0  0  0  0  0
   10.2513   -4.3446    4.3275 H   0  0  0  0  0  0  0  0  0  0  0  0
    9.0359   -5.6126    4.0774 H   0  0  0  0  0  0  0  0  0  0  0  0
    8.2818   -3.8043    4.9736 C   0  0  0  0  0  0  0  0  0  0  0  0
    8.3191   -4.2494    5.9687 H   0  0  0  0  0  0  0  0  0  0  0  0
    8.6550   -2.7840    5.0777 H   0  0  0  0  0  0  0  0  0  0  0  0
    6.9160   -3.8072    4.5140 O   0  0  0  0  0  0  0  0  0  0  0  0
    6.8161   -3.2469    3.1988 C   0  0  0  0  0  0  0  0  0  0  0  0
    5.7681   -3.2007    2.8977 H   0  0  0  0  0  0  0  0  0  0  0  0
    7.2471   -2.2358    3.1844 H   0  0  0  0  0  0  0  0  0  0  0  0
    7.6006   -4.1303    2.2327 C   0  0  0  0  0  0  0  0  0  0  0  0
    7.4933   -3.7910    1.1993 H   0  0  0  0  0  0  0  0  0  0  0  0
    7.2510   -5.1637    2.3065 H   0  0  0  0  0  0  0  0  0  0  0  0
   14.2985   -2.5670    1.3769 C   0  0  0  0  0  0  0  0  0  0  0  0
   14.5054   -2.2133    2.6823 N   0  0  0  0  0  0  0  0  0  0  0  0
   13.7092   -2.0684    3.2996 H   0  0  0  0  0  0  0  0  0  0  0  0
   15.4475   -2.2955    3.0676 H   0  0  0  0  0  0  0  0  0  0  0  0
   15.3025   -2.8863    0.6316 N   0  0  0  0  0  4  0  0  0  0  0  0
   16.2570   -3.0036    0.9834 H   0  0  0  0  0  0  0  0  0  0  0  0
   15.3469   -0.8412   -1.4879 C   0  0  0  0  0  0  0  0  0  0  0  0
   14.9055   -0.5106   -0.5510 H   0  0  0  0  0  0  0  0  0  0  0  0
   15.4953    1.9849   -0.7938 C   0  0  0  0  0  0  0  0  0  0  0  0
   15.3853    1.2817    0.0279 H   0  0  0  0  0  0  0  0  0  0  0  0
   15.4182    3.3519   -0.5579 C   0  0  0  0  0  0  0  0  0  0  0  0
   15.2302    3.7165    0.4446 H   0  0  0  0  0  0  0  0  0  0  0  0
  1  2  1  0
  2  3  2  0
  3  4  1  0
  4  5  1  0
  4  6  2  0
  6  7  1  0
  7  8  2  0
  8  9  1  0
  8 10  1  0
 10 11  1  0
 10 12  2  0
 12 13  1  0
 12 14  1  0
 15 14  1  6
 15 16  1  0
 16 17  2  0
 17 18  1  0
 17 19  1  0
 19 20  1  0
 19 21  2  0
 21 22  1  0
 21 23  1  0
 23 24  1  0
 23 25  2  0
 25 26  1  0
 15 27  1  0
 27 28  2  0
 27 29  1  0
 29 30  1  0
 30 31  1  0
 31 32  1  0
 31 33  1  0
 31 34  1  0
 34 35  1  0
 34 36  1  0
 34 37  1  0
 37 38  1  0
 38 39  1  0
 38 40  1  0
 38 41  1  0
 41 42  1  0
 41 43  1  0
 41 44  1  0
 44 45  1  0
 45 46  1  0
 45 47  1  0
 45 48  1  0
 48 49  1  0
 48 50  1  0
 29 51  1  0
 51 52  1  0
 52 53  1  0
 52 54  1  0
 51 55  2  0
 55 56  1  0
 14 57  2  0
 57 58  1  0
  6 59  1  0
 59 60  1  0
 59 61  2  0
 61 62  1  0
 61  2  1  0
 57  7  1  0
 55 15  1  0
 25 16  1  0
 48 37  1  0
M  CHG  1  55   1
M  END
>  <score>  (399) 
5.39788

$$$$

     RDKit          3D

 47 50  0  0  0  0  0  0  0  0999 V2000
   10.8133   -1.5042    0.0184 H   0  0  0  0  0  0  0  0  0  0  0  0
   10.6547   -2.4543    0.2038 O   0  0  0  0  0  0  0  0  0  0  0  0
   11.7559   -2.3368    1.2054 P   0  0  0  0  0  0  0  0  0  0  0  0
   11.9270   -0.9148    0.9566 O   0  0  0  0  0  0  0  0  0  0  0  0
   11.2722   -2.7142    2.6207 O   0  0  0  0  0  0  0  0  0  0  0  0
   10.5373   -2.0953    2.6964 H   0  0  0  0  0  0  0  0  0  0  0  0
   13.0954   -3.1884    0.8188 N   0  0  0  0  0  0  0  0  0  0  0  0
   13.3150   -3.1275   -0.5149 C   0  0  0  0  0  0  0  0  0  0  0  0
   12.4353   -2.9324   -1.3511 O   0  0  0  0  0  0  0  0  0  0  0  0
   14.8323   -3.2311   -0.7347 C   0  0  1  0  0  0  0  0  0  0  0  0
   15.2020   -4.6670   -1.0578 C   0  0  0  0  0  0  0  0  0  0  0  0
   16.4172   -5.1885   -0.6013 C   0  0  0  0  0  0  0  0  0  0  0  0
   17.0931   -4.5411   -0.0511 H   0  0  0  0  0  0  0  0  0  0  0  0
   16.7435   -6.5293   -0.8060 C   0  0  0  0  0  0  0  0  0  0  0  0
   17.6826   -6.9119   -0.4144 H   0  0  0  0  0  0  0  0  0  0  0  0
   15.8555   -7.3649   -1.4962 C   0  0  0  0  0  0  0  0  0  0  0  0
   16.1009   -8.4106   -1.6452 H   0  0  0  0  0  0  0  0  0  0  0  0
   14.6417   -6.8544   -1.9768 C   0  0  0  0  0  0  0  0  0  0  0  0
   13.9398   -7.4998   -2.5002 H   0  0  0  0  0  0  0  0  0  0  0  0
   14.3194   -5.5105   -1.7583 C   0  0  0  0  0  0  0  0  0  0  0  0
   13.3675   -5.1234   -2.1115 H   0  0  0  0  0  0  0  0  0  0  0  0
   15.3601   -2.2195   -1.7445 C   0  0  0  0  0  0  0  0  0  0  0  0
   15.9053   -2.6327   -2.9726 C   0  0  0  0  0  0  0  0  0  0  0  0
   15.9572   -3.6921   -3.2075 H   0  0  0  0  0  0  0  0  0  0  0  0
   16.3869   -1.6965   -3.8926 C   0  0  0  0  0  0  0  0  0  0  0  0
   16.8312   -2.0257   -4.8276 H   0  0  0  0  0  0  0  0  0  0  0  0
   16.3184   -0.3309   -3.5985 C   0  0  0  0  0  0  0  0  0  0  0  0
   16.7093    0.3886   -4.3083 H   0  0  0  0  0  0  0  0  0  0  0  0
   15.7718    0.1152   -2.3899 C   0  0  0  0  0  0  0  0  0  0  0  0
   15.7218    1.5540   -2.0859 C   0  0  0  0  0  0  0  0  0  0  0  0
   15.9130    2.5179   -3.0919 C   0  0  0  0  0  0  0  0  0  0  0  0
   16.1157    2.1813   -4.1043 H   0  0  0  0  0  0  0  0  0  0  0  0
   15.8480    3.8415   -2.8640 N   0  0  0  0  0  0  0  0  0  0  0  0
   15.5971    4.2571   -1.6130 C   0  0  0  0  0  0  0  0  0  0  0  0
   15.5215    5.3216   -1.4223 H   0  0  0  0  0  0  0  0  0  0  0  0
   15.4210    3.3653   -0.5528 C   0  0  0  0  0  0  0  0  0  0  0  0
   15.2279    3.7379    0.4437 H   0  0  0  0  0  0  0  0  0  0  0  0
   15.4919    1.9967   -0.7856 C   0  0  0  0  0  0  0  0  0  0  0  0
   15.3853    1.2786    0.0220 H   0  0  0  0  0  0  0  0  0  0  0  0
   15.2841   -0.8387   -1.4806 C   0  0  0  0  0  0  0  0  0  0  0  0
   14.8387   -0.4928   -0.5538 H   0  0  0  0  0  0  0  0  0  0  0  0
   15.2426   -2.9150    0.6534 N   0  0  0  0  0  4  0  0  0  0  0  0
   16.2060   -2.7118    0.9301 H   0  0  0  0  0  0  0  0  0  0  0  0
   14.2196   -2.8004    1.4259 C   0  0  0  0  0  0  0  0  0  0  0  0
   14.2261   -2.2522    2.6618 N   0  0  0  0  0  0  0  0  0  0  0  0
   13.3718   -2.2919    3.2128 H   0  0  0  0  0  0  0  0  0  0  0  0
   15.1261   -2.1772    3.1319 H   0  0  0  0  0  0  0  0  0  0  0  0
  1  2  1  0
  2  3  1  0
  3  4  2  0
  3  5  1  0
  5  6  1  0
  3  7  1  0
  7  8  1  0
  8  9  2  0
  8 10  1  0
 10 11  1  6
 11 12  2  0
 12 13  1  0
 12 14  1  0
 14 15  1  0
 14 16  2  0
 16 17  1  0
 16 18  1  0
 18 19  1  0
 18 20  2  0
 20 21  1  0
 10 22  1  0
 22 23  2  0
 23 24  1  0
 23 25  1  0
 25 26  1  0
 25 27  2  0
 27 28  1  0
 27 29  1  0
 29 30  1  0
 30 31  2  0
 31 32  1  0
 31 33  1  0
 33 34  2  0
 34 35  1  0
 34 36  1  0
 36 37  1  0
 36 38  2  0
 38 39  1  0
 29 40  2  0
 40 41  1  0
 10 42  1  0
 42 43  1  0
 42 44  2  0
 44 45  1  0
 45 46  1  0
 45 47  1  0
 44  7  1  0
 20 11  1  0
 40 22  1  0
 38 30  1  0
M  CHG  1  42   1
M  END
>  <score>  (400) 
5.39649

$$$$

     RDKit          3D

 56 61  0  0  0  0  0  0  0  0999 V2000
   15.5175    5.3160   -1.4224 H   0  0  0  0  0  0  0  0  0  0  0  0
   15.5899    4.2512   -1.6165 C   0  0  0  0  0  0  0  0  0  0  0  0
   15.8424    3.8428   -2.8691 N   0  0  0  0  0  0  0  0  0  0  0  0
   15.9153    2.5207   -3.1009 C   0  0  0  0  0  0  0  0  0  0  0  0
   16.1183    2.1909   -4.1154 H   0  0  0  0  0  0  0  0  0  0  0  0
   15.7336    1.5544   -2.0978 C   0  0  0  0  0  0  0  0  0  0  0  0
   15.8115    0.1234   -2.4057 C   0  0  0  0  0  0  0  0  0  0  0  0
   16.3431   -0.3099   -3.6250 C   0  0  0  0  0  0  0  0  0  0  0  0
   16.6970    0.4204   -4.3440 H   0  0  0  0  0  0  0  0  0  0  0  0
   16.4292   -1.6720   -3.9224 C   0  0  0  0  0  0  0  0  0  0  0  0
   16.8462   -1.9901   -4.8722 H   0  0  0  0  0  0  0  0  0  0  0  0
   15.9858   -2.6183   -2.9941 C   0  0  0  0  0  0  0  0  0  0  0  0
   16.0378   -3.6775   -3.2272 H   0  0  0  0  0  0  0  0  0  0  0  0
   15.4620   -2.2109   -1.7598 C   0  0  0  0  0  0  0  0  0  0  0  0
   14.9098   -3.2051   -0.7596 C   0  0  2  0  0  0  0  0  0  0  0  0
   15.2502   -4.6619   -1.0567 C   0  0  0  0  0  0  0  0  0  0  0  0
   16.4602   -5.2110   -0.6027 C   0  0  0  0  0  0  0  0  0  0  0  0
   17.1607   -4.5808   -0.0630 H   0  0  0  0  0  0  0  0  0  0  0  0
   16.7599   -6.5599   -0.8079 C   0  0  0  0  0  0  0  0  0  0  0  0
   17.6924   -6.9626   -0.4229 H   0  0  0  0  0  0  0  0  0  0  0  0
   15.8569   -7.3798   -1.4918 C   0  0  0  0  0  0  0  0  0  0  0  0
   16.0873   -8.4294   -1.6461 H   0  0  0  0  0  0  0  0  0  0  0  0
   14.6531   -6.8463   -1.9664 C   0  0  0  0  0  0  0  0  0  0  0  0
   13.9448   -7.4820   -2.4907 H   0  0  0  0  0  0  0  0  0  0  0  0
   14.3519   -5.4960   -1.7485 C   0  0  0  0  0  0  0  0  0  0  0  0
   13.4049   -5.1026   -2.1072 H   0  0  0  0  0  0  0  0  0  0  0  0
   13.3935   -2.9573   -0.6283 C   0  0  0  0  0  0  0  0  0  0  0  0
   12.5526   -3.1949   -1.4960 O   0  0  0  0  0  0  0  0  0  0  0  0
   13.1225   -2.5179    0.6501 N   0  0  0  0  0  0  0  0  0  0  0  0
   11.8603   -2.4936    1.2317 C   0  0  0  0  0  0  0  0  0  0  0  0
   10.6522   -1.9953    0.7860 C   0  0  0  0  0  0  0  0  0  0  0  0
   10.4756   -1.4837   -0.1569 H   0  0  0  0  0  0  0  0  0  0  0  0
    9.6528   -2.3016    1.8128 C   0  0  0  0  0  0  0  0  0  0  0  0
    8.2894   -2.0316    1.9907 C   0  0  0  0  0  0  0  0  0  0  0  0
    7.7624   -1.4096    1.2698 H   0  0  0  0  0  0  0  0  0  0  0  0
    7.6229   -2.5931    3.0973 C   0  0  0  0  0  0  0  0  0  0  0  0
    6.5678   -2.4247    3.2735 H   0  0  0  0  0  0  0  0  0  0  0  0
    8.3187   -3.3876    4.0238 C   0  0  0  0  0  0  0  0  0  0  0  0
    7.8171   -3.8457    4.8683 H   0  0  0  0  0  0  0  0  0  0  0  0
    9.6787   -3.5977    3.8632 C   0  0  0  0  0  0  0  0  0  0  0  0
   10.2419   -4.2107    4.5492 H   0  0  0  0  0  0  0  0  0  0  0  0
   10.3240   -3.0416    2.7772 C   0  0  0  0  0  0  0  0  0  0  0  0
   11.6514   -3.0948    2.4492 N   0  0  0  0  0  0  0  0  0  0  0  0
   12.3781   -3.5209    3.0150 H   0  0  0  0  0  0  0  0  0  0  0  0
   14.3136   -2.6063    1.3558 C   0  0  0  0  0  0  0  0  0  0  0  0
   14.4660   -2.4568    2.7058 N   0  0  0  0  0  0  0  0  0  0  0  0
   15.4086   -2.2457    3.0331 H   0  0  0  0  0  0  0  0  0  0  0  0
   13.6871   -2.0395    3.2096 H   0  0  0  0  0  0  0  0  0  0  0  0
   15.3364   -2.8772    0.6138 N   0  0  0  0  0  4  0  0  0  0  0  0
   16.2694   -3.0972    0.9819 H   0  0  0  0  0  0  0  0  0  0  0  0
   15.3596   -0.8358   -1.4902 C   0  0  0  0  0  0  0  0  0  0  0  0
   14.9107   -0.5082   -0.5561 H   0  0  0  0  0  0  0  0  0  0  0  0
   15.4935    1.9885   -0.7945 C   0  0  0  0  0  0  0  0  0  0  0  0
   15.3881    1.2706    0.0145 H   0  0  0  0  0  0  0  0  0  0  0  0
   15.4160    3.3559   -0.5575 C   0  0  0  0  0  0  0  0  0  0  0  0
   15.2271    3.7254    0.4425 H   0  0  0  0  0  0  0  0  0  0  0  0
  1  2  1  0
  2  3  2  0
  3  4  1  0
  4  5  1  0
  4  6  2  0
  6  7  1  0
  7  8  2  0
  8  9  1  0
  8 10  1  0
 10 11  1  0
 10 12  2  0
 12 13  1  0
 12 14  1  0
 15 14  1  6
 15 16  1  0
 16 17  2  0
 17 18  1  0
 17 19  1  0
 19 20  1  0
 19 21  2  0
 21 22  1  0
 21 23  1  0
 23 24  1  0
 23 25  2  0
 25 26  1  0
 15 27  1  0
 27 28  2  0
 27 29  1  0
 29 30  1  0
 30 31  2  0
 31 32  1  0
 31 33  1  0
 33 34  2  0
 34 35  1  0
 34 36  1  0
 36 37  1  0
 36 38  2  0
 38 39  1  0
 38 40  1  0
 40 41  1  0
 40 42  2  0
 42 43  1  0
 43 44  1  0
 29 45  1  0
 45 46  1  0
 46 47  1  0
 46 48  1  0
 45 49  2  0
 49 50  1  0
 14 51  2  0
 51 52  1  0
  6 53  1  0
 53 54  1  0
 53 55  2  0
 55 56  1  0
 55  2  1  0
 51  7  1  0
 49 15  1  0
 25 16  1  0
 43 30  1  0
 42 33  1  0
M  CHG  1  49   1
M  END
>  <score>  (401) 
5.39609

$$$$

     RDKit          3D

 60 64  0  0  0  0  0  0  0  0999 V2000
   15.5179    5.3113   -1.4177 H   0  0  0  0  0  0  0  0  0  0  0  0
   15.5934    4.2457   -1.6116 C   0  0  0  0  0  0  0  0  0  0  0  0
   15.8419    3.8340   -2.8638 N   0  0  0  0  0  0  0  0  0  0  0  0
   15.9278    2.5106   -3.0919 C   0  0  0  0  0  0  0  0  0  0  0  0
   16.1261    2.1766   -4.1053 H   0  0  0  0  0  0  0  0  0  0  0  0
   15.7609    1.5401   -2.0905 C   0  0  0  0  0  0  0  0  0  0  0  0
   15.8504    0.1034   -2.4071 C   0  0  0  0  0  0  0  0  0  0  0  0
   16.3535   -0.3252   -3.6424 C   0  0  0  0  0  0  0  0  0  0  0  0
   16.6897    0.4130   -4.3632 H   0  0  0  0  0  0  0  0  0  0  0  0
   16.4431   -1.6875   -3.9435 C   0  0  0  0  0  0  0  0  0  0  0  0
   16.8408   -1.9962   -4.9046 H   0  0  0  0  0  0  0  0  0  0  0  0
   16.0245   -2.6408   -3.0086 C   0  0  0  0  0  0  0  0  0  0  0  0
   16.0918   -3.6972   -3.2502 H   0  0  0  0  0  0  0  0  0  0  0  0
   15.5117   -2.2421   -1.7644 C   0  0  0  0  0  0  0  0  0  0  0  0
   14.9707   -3.2461   -0.7572 C   0  0  2  0  0  0  0  0  0  0  0  0
   15.3205   -4.6929   -1.0575 C   0  0  0  0  0  0  0  0  0  0  0  0
   16.5267   -5.2522   -0.6094 C   0  0  0  0  0  0  0  0  0  0  0  0
   17.2409   -4.6309   -0.0759 H   0  0  0  0  0  0  0  0  0  0  0  0
   16.8065   -6.6055   -0.8264 C   0  0  0  0  0  0  0  0  0  0  0  0
   17.7340   -7.0300   -0.4530 H   0  0  0  0  0  0  0  0  0  0  0  0
   15.8854   -7.4104   -1.5070 C   0  0  0  0  0  0  0  0  0  0  0  0
   16.0920   -8.4644   -1.6636 H   0  0  0  0  0  0  0  0  0  0  0  0
   14.6916   -6.8582   -1.9816 C   0  0  0  0  0  0  0  0  0  0  0  0
   13.9689   -7.4754   -2.5075 H   0  0  0  0  0  0  0  0  0  0  0  0
   14.4164   -5.5065   -1.7624 C   0  0  0  0  0  0  0  0  0  0  0  0
   13.4801   -5.0905   -2.1219 H   0  0  0  0  0  0  0  0  0  0  0  0
   13.4497   -3.0539   -0.6438 C   0  0  0  0  0  0  0  0  0  0  0  0
   12.6288   -3.2551   -1.5409 O   0  0  0  0  0  0  0  0  0  0  0  0
   13.1413   -2.6266    0.6359 N   0  0  0  0  0  0  0  0  0  0  0  0
   11.8540   -2.1334    1.0457 N   0  0  0  0  0  0  0  0  0  0  0  0
   11.8375   -0.6653    1.1027 C   0  0  0  0  0  0  0  0  0  0  0  0
   12.3400   -0.2556    0.2190 H   0  0  0  0  0  0  0  0  0  0  0  0
   12.3791   -0.3283    1.9926 H   0  0  0  0  0  0  0  0  0  0  0  0
   10.8124   -0.2873    1.1351 H   0  0  0  0  0  0  0  0  0  0  0  0
   11.2174   -2.8569    2.1670 C   0  0  0  0  0  0  0  0  0  0  0  0
   11.7694   -3.7798    2.3629 H   0  0  0  0  0  0  0  0  0  0  0  0
   11.2712   -2.2549    3.0681 H   0  0  0  0  0  0  0  0  0  0  0  0
    9.7727   -3.2007    1.9244 C   0  0  0  0  0  0  0  0  0  0  0  0
    9.4076   -4.1510    0.9568 C   0  0  0  0  0  0  0  0  0  0  0  0
   10.1572   -4.6164    0.3162 H   0  0  0  0  0  0  0  0  0  0  0  0
    8.0680   -4.5479    0.8590 C   0  0  0  0  0  0  0  0  0  0  0  0
    7.7747   -5.3341    0.1740 H   0  0  0  0  0  0  0  0  0  0  0  0
    7.0872   -3.9588    1.6642 C   0  0  0  0  0  0  0  0  0  0  0  0
    6.0533   -4.2745    1.5855 H   0  0  0  0  0  0  0  0  0  0  0  0
    7.4410   -3.0070    2.6192 C   0  0  0  0  0  0  0  0  0  0  0  0
    6.6864   -2.5741    3.2738 H   0  0  0  0  0  0  0  0  0  0  0  0
    8.7822   -2.6474    2.7548 C   0  0  0  0  0  0  0  0  0  0  0  0
    9.0587   -1.9325    3.5231 H   0  0  0  0  0  0  0  0  0  0  0  0
   14.3421   -2.5423    1.3389 C   0  0  0  0  0  0  0  0  0  0  0  0
   14.5587   -2.1616    2.6388 N   0  0  0  0  0  0  0  0  0  0  0  0
   13.7613   -2.1049    3.2705 H   0  0  0  0  0  0  0  0  0  0  0  0
   15.4767   -2.3710    3.0298 H   0  0  0  0  0  0  0  0  0  0  0  0
   15.3608   -2.8981    0.6240 N   0  0  0  0  0  4  0  0  0  0  0  0
   16.3133   -2.9864    0.9871 H   0  0  0  0  0  0  0  0  0  0  0  0
   15.4210   -0.8653   -1.4875 C   0  0  0  0  0  0  0  0  0  0  0  0
   14.9834   -0.5385   -0.5484 H   0  0  0  0  0  0  0  0  0  0  0  0
   15.5172    1.9793   -0.7871 C   0  0  0  0  0  0  0  0  0  0  0  0
   15.4176    1.2602    0.0216 H   0  0  0  0  0  0  0  0  0  0  0  0
   15.4322    3.3503   -0.5512 C   0  0  0  0  0  0  0  0  0  0  0  0
   15.2466    3.7277    0.4471 H   0  0  0  0  0  0  0  0  0  0  0  0
  1  2  1  0
  2  3  2  0
  3  4  1  0
  4  5  1  0
  4  6  2  0
  6  7  1  0
  7  8  2  0
  8  9  1  0
  8 10  1  0
 10 11  1  0
 10 12  2  0
 12 13  1  0
 12 14  1  0
 15 14  1  6
 15 16  1  0
 16 17  2  0
 17 18  1  0
 17 19  1  0
 19 20  1  0
 19 21  2  0
 21 22  1  0
 21 23  1  0
 23 24  1  0
 23 25  2  0
 25 26  1  0
 15 27  1  0
 27 28  2  0
 27 29  1  0
 29 30  1  0
 30 31  1  0
 31 32  1  0
 31 33  1  0
 31 34  1  0
 30 35  1  0
 35 36  1  0
 35 37  1  0
 35 38  1  0
 38 39  2  0
 39 40  1  0
 39 41  1  0
 41 42  1  0
 41 43  2  0
 43 44  1  0
 43 45  1  0
 45 46  1  0
 45 47  2  0
 47 48  1  0
 29 49  1  0
 49 50  1  0
 50 51  1  0
 50 52  1  0
 49 53  2  0
 53 54  1  0
 14 55  2  0
 55 56  1  0
  6 57  1  0
 57 58  1  0
 57 59  2  0
 59 60  1  0
 59  2  1  0
 55  7  1  0
 53 15  1  0
 25 16  1  0
 47 38  1  0
M  CHG  1  53   1
M  END
>  <score>  (402) 
5.39495

$$$$

     RDKit          3D

 48 52  0  0  0  0  0  0  0  0999 V2000
    8.6319   -1.9389    0.8929 H   0  0  0  0  0  0  0  0  0  0  0  0
    9.5814   -2.2896    1.2792 C   0  0  0  0  0  0  0  0  0  0  0  0
   10.7484   -2.2648    0.5365 N   0  0  0  0  0  0  0  0  0  0  0  0
   11.7482   -2.6589    1.2721 C   0  0  0  0  0  0  0  0  0  0  0  0
   13.0008   -2.6737    0.7053 N   0  0  0  0  0  0  0  0  0  0  0  0
   13.2565   -2.9784   -0.6118 C   0  0  0  0  0  0  0  0  0  0  0  0
   12.3810   -3.1294   -1.4622 O   0  0  0  0  0  0  0  0  0  0  0  0
   14.7786   -3.2229   -0.7782 C   0  0  1  0  0  0  0  0  0  0  0  0
   15.1580   -4.6867   -1.0663 C   0  0  0  0  0  0  0  0  0  0  0  0
   16.3826   -5.2091   -0.6017 C   0  0  0  0  0  0  0  0  0  0  0  0
   17.0667   -4.5639   -0.0563 H   0  0  0  0  0  0  0  0  0  0  0  0
   16.7297   -6.5546   -0.8032 C   0  0  0  0  0  0  0  0  0  0  0  0
   17.6659   -6.9479   -0.4148 H   0  0  0  0  0  0  0  0  0  0  0  0
   15.8570   -7.4074   -1.4814 C   0  0  0  0  0  0  0  0  0  0  0  0
   16.1032   -8.4574   -1.6146 H   0  0  0  0  0  0  0  0  0  0  0  0
   14.6446   -6.9081   -1.9644 C   0  0  0  0  0  0  0  0  0  0  0  0
   13.9638   -7.5733   -2.4874 H   0  0  0  0  0  0  0  0  0  0  0  0
   14.2994   -5.5599   -1.7612 C   0  0  0  0  0  0  0  0  0  0  0  0
   13.3477   -5.1881   -2.1256 H   0  0  0  0  0  0  0  0  0  0  0  0
   15.3657   -2.2211   -1.7722 C   0  0  0  0  0  0  0  0  0  0  0  0
   15.9376   -2.6321   -2.9883 C   0  0  0  0  0  0  0  0  0  0  0  0
   15.9918   -3.6927   -3.2235 H   0  0  0  0  0  0  0  0  0  0  0  0
   16.4213   -1.6838   -3.8994 C   0  0  0  0  0  0  0  0  0  0  0  0
   16.8624   -2.0029   -4.8368 H   0  0  0  0  0  0  0  0  0  0  0  0
   16.3286   -0.3167   -3.6090 C   0  0  0  0  0  0  0  0  0  0  0  0
   16.7067    0.4310   -4.2961 H   0  0  0  0  0  0  0  0  0  0  0  0
   15.7767    0.1245   -2.4042 C   0  0  0  0  0  0  0  0  0  0  0  0
   15.6998    1.5687   -2.0988 C   0  0  0  0  0  0  0  0  0  0  0  0
   15.8821    2.5405   -3.0951 C   0  0  0  0  0  0  0  0  0  0  0  0
   16.0757    2.1966   -4.1052 H   0  0  0  0  0  0  0  0  0  0  0  0
   15.8224    3.8670   -2.8621 N   0  0  0  0  0  0  0  0  0  0  0  0
   15.5879    4.2824   -1.6070 C   0  0  0  0  0  0  0  0  0  0  0  0
   15.5505    5.3486   -1.3954 H   0  0  0  0  0  0  0  0  0  0  0  0
   15.3870    3.3831   -0.5571 C   0  0  0  0  0  0  0  0  0  0  0  0
   15.1824    3.7702    0.4336 H   0  0  0  0  0  0  0  0  0  0  0  0
   15.4501    2.0088   -0.8015 C   0  0  0  0  0  0  0  0  0  0  0  0
   15.3430    1.2644   -0.0184 H   0  0  0  0  0  0  0  0  0  0  0  0
   15.3043   -0.8385   -1.4967 C   0  0  0  0  0  0  0  0  0  0  0  0
   14.8599   -0.4969   -0.5670 H   0  0  0  0  0  0  0  0  0  0  0  0
   15.1865   -2.9141    0.6128 N   0  0  0  0  0  4  0  0  0  0  0  0
   16.1492   -2.9601    0.9500 H   0  0  0  0  0  0  0  0  0  0  0  0
   14.1837   -2.6642    1.3830 C   0  0  0  0  0  0  0  0  0  0  0  0
   14.3609   -2.4230    2.7120 N   0  0  0  0  0  0  0  0  0  0  0  0
   13.6145   -1.9622    3.2340 H   0  0  0  0  0  0  0  0  0  0  0  0
   15.3239   -2.3455    3.0434 H   0  0  0  0  0  0  0  0  0  0  0  0
   11.3387   -3.1937    2.8975 S   0  0  0  0  0  0  0  0  0  0  0  0
    9.6911   -2.7836    2.5417 C   0  0  0  0  0  0  0  0  0  0  0  0
    8.8603   -2.8972    3.2194 H   0  0  0  0  0  0  0  0  0  0  0  0
  1  2  1  0
  2  3  1  0
  3  4  2  0
  4  5  1  0
  5  6  1  0
  6  7  2  0
  6  8  1  0
  8  9  1  6
  9 10  2  0
 10 11  1  0
 10 12  1  0
 12 13  1  0
 12 14  2  0
 14 15  1  0
 14 16  1  0
 16 17  1  0
 16 18  2  0
 18 19  1  0
  8 20  1  0
 20 21  2  0
 21 22  1  0
 21 23  1  0
 23 24  1  0
 23 25  2  0
 25 26  1  0
 25 27  1  0
 27 28  1  0
 28 29  2  0
 29 30  1  0
 29 31  1  0
 31 32  2  0
 32 33  1  0
 32 34  1  0
 34 35  1  0
 34 36  2  0
 36 37  1  0
 27 38  2  0
 38 39  1  0
  8 40  1  0
 40 41  1  0
 40 42  2  0
 42 43  1  0
 43 44  1  0
 43 45  1  0
  4 46  1  0
 46 47  1  0
 47 48  1  0
 47  2  2  0
 42  5  1  0
 18  9  1  0
 38 20  1  0
 36 28  1  0
M  CHG  1  40   1
M  END
>  <score>  (403) 
5.39403

$$$$

     RDKit          3D

 59 63  0  0  0  0  0  0  0  0999 V2000
   15.5321    5.3299   -1.4139 H   0  0  0  0  0  0  0  0  0  0  0  0
   15.5887    4.2637   -1.6118 C   0  0  0  0  0  0  0  0  0  0  0  0
   15.8363    3.8496   -2.8639 N   0  0  0  0  0  0  0  0  0  0  0  0
   15.9009    2.5256   -3.0965 C   0  0  0  0  0  0  0  0  0  0  0  0
   16.0964    2.1978   -4.1129 H   0  0  0  0  0  0  0  0  0  0  0  0
   15.7142    1.5568   -2.0952 C   0  0  0  0  0  0  0  0  0  0  0  0
   15.7833    0.1186   -2.3981 C   0  0  0  0  0  0  0  0  0  0  0  0
   16.3310   -0.3214   -3.6080 C   0  0  0  0  0  0  0  0  0  0  0  0
   16.7044    0.4085   -4.3196 H   0  0  0  0  0  0  0  0  0  0  0  0
   16.4149   -1.6858   -3.8928 C   0  0  0  0  0  0  0  0  0  0  0  0
   16.8463   -2.0047   -4.8354 H   0  0  0  0  0  0  0  0  0  0  0  0
   15.9380   -2.6269   -2.9726 C   0  0  0  0  0  0  0  0  0  0  0  0
   15.9950   -3.6841   -3.2112 H   0  0  0  0  0  0  0  0  0  0  0  0
   15.3802   -2.2174   -1.7499 C   0  0  0  0  0  0  0  0  0  0  0  0
   14.8156   -3.2168   -0.7442 C   0  0  2  0  0  0  0  0  0  0  0  0
   15.1831   -4.6719   -1.0437 C   0  0  0  0  0  0  0  0  0  0  0  0
   16.4057   -5.2000   -0.5920 C   0  0  0  0  0  0  0  0  0  0  0  0
   17.0984   -4.5610   -0.0519 H   0  0  0  0  0  0  0  0  0  0  0  0
   16.7361   -6.5434   -0.8020 C   0  0  0  0  0  0  0  0  0  0  0  0
   17.6748   -6.9340   -0.4194 H   0  0  0  0  0  0  0  0  0  0  0  0
   15.8514   -7.3837   -1.4836 C   0  0  0  0  0  0  0  0  0  0  0  0
   16.1000   -8.4309   -1.6342 H   0  0  0  0  0  0  0  0  0  0  0  0
   14.6409   -6.8712   -1.9622 C   0  0  0  0  0  0  0  0  0  0  0  0
   13.9526   -7.5219   -2.4936 H   0  0  0  0  0  0  0  0  0  0  0  0
   14.3101   -5.5249   -1.7464 C   0  0  0  0  0  0  0  0  0  0  0  0
   13.3608   -5.1471   -2.1148 H   0  0  0  0  0  0  0  0  0  0  0  0
   13.2979   -2.9993   -0.5769 C   0  0  0  0  0  0  0  0  0  0  0  0
   12.4535   -3.1423   -1.4597 O   0  0  0  0  0  0  0  0  0  0  0  0
   13.0166   -2.6556    0.7329 N   0  0  0  0  0  0  0  0  0  0  0  0
   11.7330   -2.5001    1.2819 C   0  0  0  0  0  0  0  0  0  0  0  0
   11.3403   -3.2282    2.4155 C   0  0  0  0  0  0  0  0  0  0  0  0
   12.0726   -3.8640    2.9135 H   0  0  0  0  0  0  0  0  0  0  0  0
   10.0134   -3.1443    2.8911 C   0  0  0  0  0  0  0  0  0  0  0  0
    9.7073   -3.7208    3.7557 H   0  0  0  0  0  0  0  0  0  0  0  0
    9.0732   -2.2964    2.2702 C   0  0  0  0  0  0  0  0  0  0  0  0
    7.7495   -2.1737    2.6397 O   0  0  0  0  0  0  0  0  0  0  0  0
    7.1519   -3.2207    3.4237 C   0  0  0  0  0  0  0  0  0  0  0  0
    7.7426   -3.3559    4.3338 H   0  0  0  0  0  0  0  0  0  0  0  0
    7.1348   -4.1712    2.8760 H   0  0  0  0  0  0  0  0  0  0  0  0
    5.7086   -2.8336    3.7812 C   0  0  0  0  0  0  0  0  0  0  0  0
    5.4029   -3.2939    4.7308 H   0  0  0  0  0  0  0  0  0  0  0  0
    5.5946   -1.7456    3.8755 H   0  0  0  0  0  0  0  0  0  0  0  0
    5.0552   -3.1684    2.9712 H   0  0  0  0  0  0  0  0  0  0  0  0
    9.5128   -1.5150    1.1952 C   0  0  0  0  0  0  0  0  0  0  0  0
    8.8190   -0.8142    0.7477 H   0  0  0  0  0  0  0  0  0  0  0  0
   10.8184   -1.6223    0.6899 C   0  0  0  0  0  0  0  0  0  0  0  0
   11.1494   -1.0058   -0.1435 H   0  0  0  0  0  0  0  0  0  0  0  0
   14.2183   -2.6602    1.4127 C   0  0  0  0  0  0  0  0  0  0  0  0
   14.4111   -2.4349    2.7470 N   0  0  0  0  0  0  0  0  0  0  0  0
   13.6356   -2.0456    3.2822 H   0  0  0  0  0  0  0  0  0  0  0  0
   15.3670   -2.2791    3.0669 H   0  0  0  0  0  0  0  0  0  0  0  0
   15.2276   -2.8943    0.6368 N   0  0  0  0  0  4  0  0  0  0  0  0
   16.1871   -2.9973    0.9727 H   0  0  0  0  0  0  0  0  0  0  0  0
   15.3082   -0.8375   -1.4839 C   0  0  0  0  0  0  0  0  0  0  0  0
   14.8667   -0.5004   -0.5503 H   0  0  0  0  0  0  0  0  0  0  0  0
   15.4708    1.9980   -0.7943 C   0  0  0  0  0  0  0  0  0  0  0  0
   15.3603    1.2789    0.0118 H   0  0  0  0  0  0  0  0  0  0  0  0
   15.4021    3.3682   -0.5561 C   0  0  0  0  0  0  0  0  0  0  0  0
   15.2079    3.7428    0.4413 H   0  0  0  0  0  0  0  0  0  0  0  0
  1  2  1  0
  2  3  2  0
  3  4  1  0
  4  5  1  0
  4  6  2  0
  6  7  1  0
  7  8  2  0
  8  9  1  0
  8 10  1  0
 10 11  1  0
 10 12  2  0
 12 13  1  0
 12 14  1  0
 15 14  1  6
 15 16  1  0
 16 17  2  0
 17 18  1  0
 17 19  1  0
 19 20  1  0
 19 21  2  0
 21 22  1  0
 21 23  1  0
 23 24  1  0
 23 25  2  0
 25 26  1  0
 15 27  1  0
 27 28  2  0
 27 29  1  0
 29 30  1  0
 30 31  2  0
 31 32  1  0
 31 33  1  0
 33 34  1  0
 33 35  2  0
 35 36  1  0
 36 37  1  0
 37 38  1  0
 37 39  1  0
 37 40  1  0
 40 41  1  0
 40 42  1  0
 40 43  1  0
 35 44  1  0
 44 45  1  0
 44 46  2  0
 46 47  1  0
 29 48  1  0
 48 49  1  0
 49 50  1  0
 49 51  1  0
 48 52  2  0
 52 53  1  0
 14 54  2  0
 54 55  1  0
  6 56  1  0
 56 57  1  0
 56 58  2  0
 58 59  1  0
 58  2  1  0
 54  7  1  0
 52 15  1  0
 25 16  1  0
 46 30  1  0
M  CHG  1  52   1
M  END
>  <score>  (404) 
5.39372

$$$$

     RDKit          3D

 58 62  0  0  0  0  0  0  0  0999 V2000
   15.5591    5.3601   -1.3912 H   0  0  0  0  0  0  0  0  0  0  0  0
   15.5860    4.2919   -1.6020 C   0  0  0  0  0  0  0  0  0  0  0  0
   15.8202    3.8727   -2.8560 N   0  0  0  0  0  0  0  0  0  0  0  0
   15.8738    2.5454   -3.0915 C   0  0  0  0  0  0  0  0  0  0  0  0
   16.0630    2.2073   -4.1044 H   0  0  0  0  0  0  0  0  0  0  0  0
   15.6923    1.5690   -2.0979 C   0  0  0  0  0  0  0  0  0  0  0  0
   15.7720    0.1205   -2.4092 C   0  0  0  0  0  0  0  0  0  0  0  0
   16.3358   -0.3179   -3.6121 C   0  0  0  0  0  0  0  0  0  0  0  0
   16.7143    0.4258   -4.3050 H   0  0  0  0  0  0  0  0  0  0  0  0
   16.4285   -1.6851   -3.9091 C   0  0  0  0  0  0  0  0  0  0  0  0
   16.8649   -2.0023   -4.8501 H   0  0  0  0  0  0  0  0  0  0  0  0
   15.9491   -2.6398   -3.0033 C   0  0  0  0  0  0  0  0  0  0  0  0
   16.0025   -3.6992   -3.2441 H   0  0  0  0  0  0  0  0  0  0  0  0
   15.3889   -2.2366   -1.7821 C   0  0  0  0  0  0  0  0  0  0  0  0
   14.8320   -3.2462   -0.7826 C   0  0  2  0  0  0  0  0  0  0  0  0
   15.1845   -4.7087   -1.0792 C   0  0  0  0  0  0  0  0  0  0  0  0
   16.4002   -5.2327   -0.6110 C   0  0  0  0  0  0  0  0  0  0  0  0
   17.0724   -4.5802   -0.0604 H   0  0  0  0  0  0  0  0  0  0  0  0
   16.7363   -6.5774   -0.8049 C   0  0  0  0  0  0  0  0  0  0  0  0
   17.6738   -6.9603   -0.4124 H   0  0  0  0  0  0  0  0  0  0  0  0
   15.8572   -7.4290   -1.4784 C   0  0  0  0  0  0  0  0  0  0  0  0
   16.1111   -8.4769   -1.6137 H   0  0  0  0  0  0  0  0  0  0  0  0
   14.6455   -6.9280   -1.9645 C   0  0  0  0  0  0  0  0  0  0  0  0
   13.9654   -7.5950   -2.4879 H   0  0  0  0  0  0  0  0  0  0  0  0
   14.3112   -5.5763   -1.7693 C   0  0  0  0  0  0  0  0  0  0  0  0
   13.3578   -5.2082   -2.1375 H   0  0  0  0  0  0  0  0  0  0  0  0
   13.3195   -3.0111   -0.6277 C   0  0  0  0  0  0  0  0  0  0  0  0
   12.4765   -3.1178   -1.5166 O   0  0  0  0  0  0  0  0  0  0  0  0
   13.0479   -2.6289    0.6714 N   0  0  0  0  0  0  0  0  0  0  0  0
   11.7805   -2.1579    1.1566 O   0  0  0  0  0  0  0  0  0  0  0  0
   11.0726   -3.1652    1.8963 C   0  0  0  0  0  0  0  0  0  0  0  0
   11.7911   -3.8250    2.3993 H   0  0  0  0  0  0  0  0  0  0  0  0
   10.2272   -3.9739    0.9124 C   0  0  0  0  0  0  0  0  0  0  0  0
    9.7723   -4.8198    1.4396 H   0  0  0  0  0  0  0  0  0  0  0  0
   10.8817   -4.3539    0.1191 H   0  0  0  0  0  0  0  0  0  0  0  0
    9.1267   -3.0970    0.3110 C   0  0  0  0  0  0  0  0  0  0  0  0
    8.4957   -3.6999   -0.3507 H   0  0  0  0  0  0  0  0  0  0  0  0
    9.5812   -2.2978   -0.2887 H   0  0  0  0  0  0  0  0  0  0  0  0
    8.3234   -2.5377    1.4150 N   0  0  0  0  0  0  0  0  0  0  0  0
    7.9217   -3.2999    1.9590 H   0  0  0  0  0  0  0  0  0  0  0  0
    9.0913   -1.6643    2.3115 C   0  0  0  0  0  0  0  0  0  0  0  0
    9.5513   -0.8377    1.7560 H   0  0  0  0  0  0  0  0  0  0  0  0
    8.4640   -1.2319    3.0997 H   0  0  0  0  0  0  0  0  0  0  0  0
   10.1645   -2.5236    2.9498 C   0  0  0  0  0  0  0  0  0  0  0  0
    9.7168   -3.3036    3.5770 H   0  0  0  0  0  0  0  0  0  0  0  0
   10.7458   -1.8733    3.5822 H   0  0  0  0  0  0  0  0  0  0  0  0
   14.2564   -2.5980    1.3561 C   0  0  0  0  0  0  0  0  0  0  0  0
   14.4263   -2.3057    2.6848 N   0  0  0  0  0  0  0  0  0  0  0  0
   15.3584   -2.3440    3.1002 H   0  0  0  0  0  0  0  0  0  0  0  0
   13.6116   -2.1079    3.2632 H   0  0  0  0  0  0  0  0  0  0  0  0
   15.2571   -2.9145    0.5956 N   0  0  0  0  0  4  0  0  0  0  0  0
   16.2310   -2.9508    0.9089 H   0  0  0  0  0  0  0  0  0  0  0  0
   15.3054   -0.8528   -1.5081 C   0  0  0  0  0  0  0  0  0  0  0  0
   14.8671   -0.5176   -0.5733 H   0  0  0  0  0  0  0  0  0  0  0  0
   15.4438    2.0150   -0.8000 C   0  0  0  0  0  0  0  0  0  0  0  0
   15.3235    1.2806   -0.0105 H   0  0  0  0  0  0  0  0  0  0  0  0
   15.3813    3.3910   -0.5543 C   0  0  0  0  0  0  0  0  0  0  0  0
   15.1752    3.7788    0.4367 H   0  0  0  0  0  0  0  0  0  0  0  0
  1  2  1  0
  2  3  2  0
  3  4  1  0
  4  5  1  0
  4  6  2  0
  6  7  1  0
  7  8  2  0
  8  9  1  0
  8 10  1  0
 10 11  1  0
 10 12  2  0
 12 13  1  0
 12 14  1  0
 15 14  1  6
 15 16  1  0
 16 17  2  0
 17 18  1  0
 17 19  1  0
 19 20  1  0
 19 21  2  0
 21 22  1  0
 21 23  1  0
 23 24  1  0
 23 25  2  0
 25 26  1  0
 15 27  1  0
 27 28  2  0
 27 29  1  0
 29 30  1  0
 30 31  1  0
 31 32  1  0
 31 33  1  0
 33 34  1  0
 33 35  1  0
 33 36  1  0
 36 37  1  0
 36 38  1  0
 36 39  1  0
 39 40  1  0
 39 41  1  0
 41 42  1  0
 41 43  1  0
 41 44  1  0
 44 45  1  0
 44 46  1  0
 29 47  1  0
 47 48  1  0
 48 49  1  0
 48 50  1  0
 47 51  2  0
 51 52  1  0
 14 53  2  0
 53 54  1  0
  6 55  1  0
 55 56  1  0
 55 57  2  0
 57 58  1  0
 57  2  1  0
 53  7  1  0
 51 15  1  0
 25 16  1  0
 44 31  1  0
M  CHG  1  51   1
M  END
>  <score>  (405) 
5.39171

$$$$

     RDKit          3D

 56 60  0  0  0  0  0  0  0  0999 V2000
   15.5358    5.3305   -1.4100 H   0  0  0  0  0  0  0  0  0  0  0  0
   15.5859    4.2649   -1.6125 C   0  0  0  0  0  0  0  0  0  0  0  0
   15.8362    3.8533   -2.8652 N   0  0  0  0  0  0  0  0  0  0  0  0
   15.8956    2.5288   -3.0985 C   0  0  0  0  0  0  0  0  0  0  0  0
   16.0923    2.1967   -4.1134 H   0  0  0  0  0  0  0  0  0  0  0  0
   15.7083    1.5595   -2.0980 C   0  0  0  0  0  0  0  0  0  0  0  0
   15.7787    0.1209   -2.3987 C   0  0  0  0  0  0  0  0  0  0  0  0
   16.3295   -0.3166   -3.6069 C   0  0  0  0  0  0  0  0  0  0  0  0
   16.7045    0.4192   -4.3110 H   0  0  0  0  0  0  0  0  0  0  0  0
   16.4126   -1.6809   -3.8970 C   0  0  0  0  0  0  0  0  0  0  0  0
   16.8550   -2.0023   -4.8340 H   0  0  0  0  0  0  0  0  0  0  0  0
   15.9348   -2.6238   -2.9790 C   0  0  0  0  0  0  0  0  0  0  0  0
   15.9933   -3.6822   -3.2123 H   0  0  0  0  0  0  0  0  0  0  0  0
   15.3814   -2.2181   -1.7544 C   0  0  0  0  0  0  0  0  0  0  0  0
   14.8156   -3.2230   -0.7566 C   0  0  2  0  0  0  0  0  0  0  0  0
   15.1831   -4.6789   -1.0554 C   0  0  0  0  0  0  0  0  0  0  0  0
   16.4029   -5.2059   -0.5975 C   0  0  0  0  0  0  0  0  0  0  0  0
   17.0865   -4.5608   -0.0527 H   0  0  0  0  0  0  0  0  0  0  0  0
   16.7346   -6.5497   -0.8008 C   0  0  0  0  0  0  0  0  0  0  0  0
   17.6731   -6.9374   -0.4148 H   0  0  0  0  0  0  0  0  0  0  0  0
   15.8506   -7.3907   -1.4823 C   0  0  0  0  0  0  0  0  0  0  0  0
   16.1010   -8.4378   -1.6272 H   0  0  0  0  0  0  0  0  0  0  0  0
   14.6406   -6.8814   -1.9651 C   0  0  0  0  0  0  0  0  0  0  0  0
   13.9542   -7.5389   -2.4912 H   0  0  0  0  0  0  0  0  0  0  0  0
   14.3080   -5.5346   -1.7535 C   0  0  0  0  0  0  0  0  0  0  0  0
   13.3549   -5.1602   -2.1157 H   0  0  0  0  0  0  0  0  0  0  0  0
   13.2967   -3.0000   -0.5966 C   0  0  0  0  0  0  0  0  0  0  0  0
   12.4469   -3.1411   -1.4807 O   0  0  0  0  0  0  0  0  0  0  0  0
   13.0253   -2.6493    0.7106 N   0  0  0  0  0  0  0  0  0  0  0  0
   11.7572   -2.4799    1.2714 C   0  0  0  0  0  0  0  0  0  0  0  0
   11.3778   -3.2016    2.3991 C   0  0  0  0  0  0  0  0  0  0  0  0
   12.1227   -3.8453    2.8560 H   0  0  0  0  0  0  0  0  0  0  0  0
   10.0660   -3.1203    2.8911 C   0  0  0  0  0  0  0  0  0  0  0  0
    9.7936   -3.6993    3.7704 H   0  0  0  0  0  0  0  0  0  0  0  0
    9.1169   -2.2795    2.2708 C   0  0  0  0  0  0  0  0  0  0  0  0
    7.8097   -2.2066    2.7122 O   0  0  0  0  0  0  0  0  0  0  0  0
    7.3963   -3.3036    3.5583 C   0  0  0  0  0  0  0  0  0  0  0  0
    7.5097   -4.2705    3.0481 H   0  0  0  0  0  0  0  0  0  0  0  0
    6.3498   -3.1949    3.8745 H   0  0  0  0  0  0  0  0  0  0  0  0
    8.0140   -3.3273    4.4615 H   0  0  0  0  0  0  0  0  0  0  0  0
    9.5432   -1.4803    1.1896 C   0  0  0  0  0  0  0  0  0  0  0  0
    8.7125   -0.5701    0.6281 F   0  0  0  0  0  0  0  0  0  0  0  0
   10.8458   -1.6066    0.6891 C   0  0  0  0  0  0  0  0  0  0  0  0
   11.1728   -1.0086   -0.1506 H   0  0  0  0  0  0  0  0  0  0  0  0
   14.2258   -2.6521    1.3935 C   0  0  0  0  0  0  0  0  0  0  0  0
   14.4088   -2.4182    2.7294 N   0  0  0  0  0  0  0  0  0  0  0  0
   15.3636   -2.2905    3.0677 H   0  0  0  0  0  0  0  0  0  0  0  0
   13.6294   -2.0444    3.2697 H   0  0  0  0  0  0  0  0  0  0  0  0
   15.2336   -2.9015    0.6253 N   0  0  0  0  0  4  0  0  0  0  0  0
   16.1972   -2.9916    0.9596 H   0  0  0  0  0  0  0  0  0  0  0  0
   15.3048   -0.8375   -1.4863 C   0  0  0  0  0  0  0  0  0  0  0  0
   14.8608   -0.4972   -0.5549 H   0  0  0  0  0  0  0  0  0  0  0  0
   15.4664    1.9985   -0.7979 C   0  0  0  0  0  0  0  0  0  0  0  0
   15.3577    1.2721    0.0014 H   0  0  0  0  0  0  0  0  0  0  0  0
   15.3954    3.3686   -0.5585 C   0  0  0  0  0  0  0  0  0  0  0  0
   15.2018    3.7461    0.4380 H   0  0  0  0  0  0  0  0  0  0  0  0
  1  2  1  0
  2  3  2  0
  3  4  1  0
  4  5  1  0
  4  6  2  0
  6  7  1  0
  7  8  2  0
  8  9  1  0
  8 10  1  0
 10 11  1  0
 10 12  2  0
 12 13  1  0
 12 14  1  0
 15 14  1  6
 15 16  1  0
 16 17  2  0
 17 18  1  0
 17 19  1  0
 19 20  1  0
 19 21  2  0
 21 22  1  0
 21 23  1  0
 23 24  1  0
 23 25  2  0
 25 26  1  0
 15 27  1  0
 27 28  2  0
 27 29  1  0
 29 30  1  0
 30 31  2  0
 31 32  1  0
 31 33  1  0
 33 34  1  0
 33 35  2  0
 35 36  1  0
 36 37  1  0
 37 38  1  0
 37 39  1  0
 37 40  1  0
 35 41  1  0
 41 42  1  0
 41 43  2  0
 43 44  1  0
 29 45  1  0
 45 46  1  0
 46 47  1  0
 46 48  1  0
 45 49  2  0
 49 50  1  0
 14 51  2  0
 51 52  1  0
  6 53  1  0
 53 54  1  0
 53 55  2  0
 55 56  1  0
 55  2  1  0
 51  7  1  0
 49 15  1  0
 25 16  1  0
 43 30  1  0
M  CHG  1  49   1
M  END
>  <score>  (406) 
5.3911

$$$$

     RDKit          3D

 56 60  0  0  0  0  0  0  0  0999 V2000
   15.5484    5.3446   -1.3972 H   0  0  0  0  0  0  0  0  0  0  0  0
   15.5873    4.2786   -1.6081 C   0  0  0  0  0  0  0  0  0  0  0  0
   15.8246    3.8649   -2.8628 N   0  0  0  0  0  0  0  0  0  0  0  0
   15.8830    2.5383   -3.0959 C   0  0  0  0  0  0  0  0  0  0  0  0
   16.0787    2.1947   -4.1063 H   0  0  0  0  0  0  0  0  0  0  0  0
   15.6994    1.5672   -2.0983 C   0  0  0  0  0  0  0  0  0  0  0  0
   15.7752    0.1235   -2.4027 C   0  0  0  0  0  0  0  0  0  0  0  0
   16.3272   -0.3170   -3.6087 C   0  0  0  0  0  0  0  0  0  0  0  0
   16.7068    0.4303   -4.2978 H   0  0  0  0  0  0  0  0  0  0  0  0
   16.4166   -1.6833   -3.9016 C   0  0  0  0  0  0  0  0  0  0  0  0
   16.8622   -2.0040   -4.8366 H   0  0  0  0  0  0  0  0  0  0  0  0
   15.9370   -2.6311   -2.9891 C   0  0  0  0  0  0  0  0  0  0  0  0
   15.9949   -3.6911   -3.2238 H   0  0  0  0  0  0  0  0  0  0  0  0
   15.3784   -2.2253   -1.7674 C   0  0  0  0  0  0  0  0  0  0  0  0
   14.8082   -3.2341   -0.7709 C   0  0  2  0  0  0  0  0  0  0  0  0
   15.1750   -4.6936   -1.0674 C   0  0  0  0  0  0  0  0  0  0  0  0
   16.3945   -5.2168   -0.6031 C   0  0  0  0  0  0  0  0  0  0  0  0
   17.0718   -4.5680   -0.0561 H   0  0  0  0  0  0  0  0  0  0  0  0
   16.7351   -6.5615   -0.8029 C   0  0  0  0  0  0  0  0  0  0  0  0
   17.6703   -6.9529   -0.4135 H   0  0  0  0  0  0  0  0  0  0  0  0
   15.8572   -7.4087   -1.4835 C   0  0  0  0  0  0  0  0  0  0  0  0
   16.1028   -8.4597   -1.6164 H   0  0  0  0  0  0  0  0  0  0  0  0
   14.6459   -6.9080   -1.9675 C   0  0  0  0  0  0  0  0  0  0  0  0
   13.9610   -7.5723   -2.4876 H   0  0  0  0  0  0  0  0  0  0  0  0
   14.3066   -5.5593   -1.7622 C   0  0  0  0  0  0  0  0  0  0  0  0
   13.3538   -5.1850   -2.1220 H   0  0  0  0  0  0  0  0  0  0  0  0
   13.2878   -3.0065   -0.6162 C   0  0  0  0  0  0  0  0  0  0  0  0
   12.4406   -3.1118   -1.5029 O   0  0  0  0  0  0  0  0  0  0  0  0
   13.0135   -2.6395    0.6843 N   0  0  0  0  0  0  0  0  0  0  0  0
   11.7473   -2.3604    1.2289 C   0  0  0  0  0  0  0  0  0  0  0  0
   11.0257   -1.2867    0.7012 C   0  0  0  0  0  0  0  0  0  0  0  0
   11.4816   -0.6989   -0.0872 H   0  0  0  0  0  0  0  0  0  0  0  0
    9.7670   -0.9547    1.2147 C   0  0  0  0  0  0  0  0  0  0  0  0
    9.2431   -0.0903    0.8207 H   0  0  0  0  0  0  0  0  0  0  0  0
    9.2240   -1.6961    2.2672 C   0  0  0  0  0  0  0  0  0  0  0  0
    8.2631   -1.4112    2.6843 H   0  0  0  0  0  0  0  0  0  0  0  0
    9.9376   -2.7793    2.7975 C   0  0  0  0  0  0  0  0  0  0  0  0
    9.5479   -3.3614    3.6230 H   0  0  0  0  0  0  0  0  0  0  0  0
   11.2012   -3.1174    2.2856 C   0  0  0  0  0  0  0  0  0  0  0  0
   11.9427   -4.1731    2.7571 O   0  0  0  0  0  0  0  0  0  0  0  0
   11.4162   -4.9774    3.8108 C   0  0  0  0  0  0  0  0  0  0  0  0
   11.2575   -4.3723    4.7096 H   0  0  0  0  0  0  0  0  0  0  0  0
   10.4698   -5.4374    3.5050 H   0  0  0  0  0  0  0  0  0  0  0  0
   12.1488   -5.7644    4.0272 H   0  0  0  0  0  0  0  0  0  0  0  0
   14.2126   -2.6248    1.3723 C   0  0  0  0  0  0  0  0  0  0  0  0
   14.4004   -2.3268    2.6946 N   0  0  0  0  0  0  0  0  0  0  0  0
   13.6025   -2.0955    3.2835 H   0  0  0  0  0  0  0  0  0  0  0  0
   15.3437   -2.3467    3.0772 H   0  0  0  0  0  0  0  0  0  0  0  0
   15.2206   -2.9154    0.6154 N   0  0  0  0  0  4  0  0  0  0  0  0
   16.1872   -2.9660    0.9492 H   0  0  0  0  0  0  0  0  0  0  0  0
   15.3058   -0.8412   -1.4942 C   0  0  0  0  0  0  0  0  0  0  0  0
   14.8643   -0.4985   -0.5639 H   0  0  0  0  0  0  0  0  0  0  0  0
   15.4521    2.0074   -0.8005 C   0  0  0  0  0  0  0  0  0  0  0  0
   15.3478    1.2663   -0.0147 H   0  0  0  0  0  0  0  0  0  0  0  0
   15.3872    3.3803   -0.5584 C   0  0  0  0  0  0  0  0  0  0  0  0
   15.1863    3.7646    0.4343 H   0  0  0  0  0  0  0  0  0  0  0  0
  1  2  1  0
  2  3  2  0
  3  4  1  0
  4  5  1  0
  4  6  2  0
  6  7  1  0
  7  8  2  0
  8  9  1  0
  8 10  1  0
 10 11  1  0
 10 12  2  0
 12 13  1  0
 12 14  1  0
 15 14  1  6
 15 16  1  0
 16 17  2  0
 17 18  1  0
 17 19  1  0
 19 20  1  0
 19 21  2  0
 21 22  1  0
 21 23  1  0
 23 24  1  0
 23 25  2  0
 25 26  1  0
 15 27  1  0
 27 28  2  0
 27 29  1  0
 29 30  1  0
 30 31  2  0
 31 32  1  0
 31 33  1  0
 33 34  1  0
 33 35  2  0
 35 36  1  0
 35 37  1  0
 37 38  1  0
 37 39  2  0
 39 40  1  0
 40 41  1  0
 41 42  1  0
 41 43  1  0
 41 44  1  0
 29 45  1  0
 45 46  1  0
 46 47  1  0
 46 48  1  0
 45 49  2  0
 49 50  1  0
 14 51  2  0
 51 52  1  0
  6 53  1  0
 53 54  1  0
 53 55  2  0
 55 56  1  0
 55  2  1  0
 51  7  1  0
 49 15  1  0
 25 16  1  0
 39 30  1  0
M  CHG  1  49   1
M  END
>  <score>  (407) 
5.39014

$$$$

     RDKit          3D

 55 59  0  0  0  0  0  0  0  0999 V2000
   15.5318    5.3252   -1.4129 H   0  0  0  0  0  0  0  0  0  0  0  0
   15.5854    4.2600   -1.6145 C   0  0  0  0  0  0  0  0  0  0  0  0
   15.8378    3.8493   -2.8667 N   0  0  0  0  0  0  0  0  0  0  0  0
   15.8990    2.5254   -3.0996 C   0  0  0  0  0  0  0  0  0  0  0  0
   16.0982    2.1931   -4.1138 H   0  0  0  0  0  0  0  0  0  0  0  0
   15.7106    1.5578   -2.0982 C   0  0  0  0  0  0  0  0  0  0  0  0
   15.7798    0.1213   -2.3974 C   0  0  0  0  0  0  0  0  0  0  0  0
   16.3280   -0.3146   -3.6067 C   0  0  0  0  0  0  0  0  0  0  0  0
   16.7013    0.4224   -4.3103 H   0  0  0  0  0  0  0  0  0  0  0  0
   16.4113   -1.6783   -3.8979 C   0  0  0  0  0  0  0  0  0  0  0  0
   16.8530   -2.0018   -4.8344 H   0  0  0  0  0  0  0  0  0  0  0  0
   15.9391   -2.6204   -2.9782 C   0  0  0  0  0  0  0  0  0  0  0  0
   15.9951   -3.6790   -3.2096 H   0  0  0  0  0  0  0  0  0  0  0  0
   15.3968   -2.2159   -1.7517 C   0  0  0  0  0  0  0  0  0  0  0  0
   14.8446   -3.2267   -0.7611 C   0  0  2  0  0  0  0  0  0  0  0  0
   15.1975   -4.6796   -1.0608 C   0  0  0  0  0  0  0  0  0  0  0  0
   16.4125   -5.2081   -0.6000 C   0  0  0  0  0  0  0  0  0  0  0  0
   17.0923   -4.5616   -0.0526 H   0  0  0  0  0  0  0  0  0  0  0  0
   16.7382   -6.5517   -0.8021 C   0  0  0  0  0  0  0  0  0  0  0  0
   17.6751   -6.9406   -0.4134 H   0  0  0  0  0  0  0  0  0  0  0  0
   15.8506   -7.3886   -1.4844 C   0  0  0  0  0  0  0  0  0  0  0  0
   16.0984   -8.4357   -1.6298 H   0  0  0  0  0  0  0  0  0  0  0  0
   14.6411   -6.8766   -1.9672 C   0  0  0  0  0  0  0  0  0  0  0  0
   13.9513   -7.5324   -2.4911 H   0  0  0  0  0  0  0  0  0  0  0  0
   14.3145   -5.5297   -1.7550 C   0  0  0  0  0  0  0  0  0  0  0  0
   13.3598   -5.1520   -2.1107 H   0  0  0  0  0  0  0  0  0  0  0  0
   13.3323   -3.0092   -0.6271 C   0  0  0  0  0  0  0  0  0  0  0  0
   12.4761   -3.1628   -1.5040 O   0  0  0  0  0  0  0  0  0  0  0  0
   13.0733   -2.6427    0.6690 N   0  0  0  0  0  0  0  0  0  0  0  0
   11.8099   -2.4968    1.2053 C   0  0  0  0  0  0  0  0  0  0  0  0
   11.4625   -3.2177    2.3396 C   0  0  0  0  0  0  0  0  0  0  0  0
   12.1968   -3.8780    2.7907 H   0  0  0  0  0  0  0  0  0  0  0  0
   10.1854   -3.0983    2.8709 C   0  0  0  0  0  0  0  0  0  0  0  0
    9.8944   -3.6991    3.7251 H   0  0  0  0  0  0  0  0  0  0  0  0
    9.2660   -2.2269    2.2892 C   0  0  0  0  0  0  0  0  0  0  0  0
    7.9027   -2.2067    2.8715 C   0  0  0  0  0  0  0  0  0  0  0  0
    7.6252   -1.1918    3.1608 H   0  0  0  0  0  0  0  0  0  0  0  0
    7.8861   -2.8295    3.7618 H   0  0  0  0  0  0  0  0  0  0  0  0
    7.2002   -2.6424    2.1586 H   0  0  0  0  0  0  0  0  0  0  0  0
    9.6251   -1.4631    1.1685 C   0  0  0  0  0  0  0  0  0  0  0  0
    8.9209   -0.7729    0.7102 H   0  0  0  0  0  0  0  0  0  0  0  0
   10.9050   -1.6099    0.6167 C   0  0  0  0  0  0  0  0  0  0  0  0
   11.2254   -1.0317   -0.2478 H   0  0  0  0  0  0  0  0  0  0  0  0
   14.2528   -2.6473    1.3843 C   0  0  0  0  0  0  0  0  0  0  0  0
   14.4151   -2.4173    2.7245 N   0  0  0  0  0  0  0  0  0  0  0  0
   13.6281   -2.0585    3.2641 H   0  0  0  0  0  0  0  0  0  0  0  0
   15.3657   -2.2855    3.0746 H   0  0  0  0  0  0  0  0  0  0  0  0
   15.2593   -2.9077    0.6225 N   0  0  0  0  0  4  0  0  0  0  0  0
   16.2192   -2.9987    0.9628 H   0  0  0  0  0  0  0  0  0  0  0  0
   15.3105   -0.8362   -1.4827 C   0  0  0  0  0  0  0  0  0  0  0  0
   14.8643   -0.4949   -0.5525 H   0  0  0  0  0  0  0  0  0  0  0  0
   15.4716    1.9950   -0.7979 C   0  0  0  0  0  0  0  0  0  0  0  0
   15.3661    1.2676    0.0016 H   0  0  0  0  0  0  0  0  0  0  0  0
   15.3983    3.3644   -0.5591 C   0  0  0  0  0  0  0  0  0  0  0  0
   15.2065    3.7421    0.4376 H   0  0  0  0  0  0  0  0  0  0  0  0
  1  2  1  0
  2  3  2  0
  3  4  1  0
  4  5  1  0
  4  6  2  0
  6  7  1  0
  7  8  2  0
  8  9  1  0
  8 10  1  0
 10 11  1  0
 10 12  2  0
 12 13  1  0
 12 14  1  0
 15 14  1  6
 15 16  1  0
 16 17  2  0
 17 18  1  0
 17 19  1  0
 19 20  1  0
 19 21  2  0
 21 22  1  0
 21 23  1  0
 23 24  1  0
 23 25  2  0
 25 26  1  0
 15 27  1  0
 27 28  2  0
 27 29  1  0
 29 30  1  0
 30 31  2  0
 31 32  1  0
 31 33  1  0
 33 34  1  0
 33 35  2  0
 35 36  1  0
 36 37  1  0
 36 38  1  0
 36 39  1  0
 35 40  1  0
 40 41  1  0
 40 42  2  0
 42 43  1  0
 29 44  1  0
 44 45  1  0
 45 46  1  0
 45 47  1  0
 44 48  2  0
 48 49  1  0
 14 50  2  0
 50 51  1  0
  6 52  1  0
 52 53  1  0
 52 54  2  0
 54 55  1  0
 54  2  1  0
 50  7  1  0
 48 15  1  0
 25 16  1  0
 42 30  1  0
M  CHG  1  48   1
M  END
>  <score>  (408) 
5.38704

$$$$

     RDKit          3D

 48 52  0  0  0  0  0  0  0  0999 V2000
    8.8509   -2.9900    3.2646 H   0  0  0  0  0  0  0  0  0  0  0  0
    9.6404   -2.7757    2.5516 C   0  0  0  0  0  0  0  0  0  0  0  0
    9.3933   -2.1220    1.4420 N   0  0  0  0  0  0  0  0  0  0  0  0
   10.5767   -2.0050    0.7117 C   0  0  0  0  0  0  0  0  0  0  0  0
   10.6283   -1.5056   -0.2530 H   0  0  0  0  0  0  0  0  0  0  0  0
   11.7002   -2.5861    1.2688 C   0  0  0  0  0  0  0  0  0  0  0  0
   12.9955   -2.6595    0.6940 N   0  0  0  0  0  0  0  0  0  0  0  0
   13.2933   -3.0032   -0.6172 C   0  0  0  0  0  0  0  0  0  0  0  0
   12.4415   -3.0918   -1.5008 O   0  0  0  0  0  0  0  0  0  0  0  0
   14.8088   -3.2493   -0.7838 C   0  0  1  0  0  0  0  0  0  0  0  0
   15.1638   -4.7199   -1.0698 C   0  0  0  0  0  0  0  0  0  0  0  0
   16.3844   -5.2431   -0.6077 C   0  0  0  0  0  0  0  0  0  0  0  0
   17.0695   -4.5952   -0.0695 H   0  0  0  0  0  0  0  0  0  0  0  0
   16.7266   -6.5862   -0.7988 C   0  0  0  0  0  0  0  0  0  0  0  0
   17.6753   -6.9549   -0.4194 H   0  0  0  0  0  0  0  0  0  0  0  0
   15.8542   -7.4453   -1.4698 C   0  0  0  0  0  0  0  0  0  0  0  0
   16.1256   -8.4895   -1.6109 H   0  0  0  0  0  0  0  0  0  0  0  0
   14.6428   -6.9468   -1.9601 C   0  0  0  0  0  0  0  0  0  0  0  0
   13.9729   -7.6201   -2.4886 H   0  0  0  0  0  0  0  0  0  0  0  0
   14.2995   -5.5956   -1.7676 C   0  0  0  0  0  0  0  0  0  0  0  0
   13.3519   -5.2453   -2.1676 H   0  0  0  0  0  0  0  0  0  0  0  0
   15.3850   -2.2469   -1.7853 C   0  0  0  0  0  0  0  0  0  0  0  0
   15.9458   -2.6463   -3.0103 C   0  0  0  0  0  0  0  0  0  0  0  0
   16.0085   -3.7008   -3.2673 H   0  0  0  0  0  0  0  0  0  0  0  0
   16.4308   -1.6918   -3.9137 C   0  0  0  0  0  0  0  0  0  0  0  0
   16.8685   -2.0087   -4.8563 H   0  0  0  0  0  0  0  0  0  0  0  0
   16.3508   -0.3249   -3.6146 C   0  0  0  0  0  0  0  0  0  0  0  0
   16.7348    0.3923   -4.3341 H   0  0  0  0  0  0  0  0  0  0  0  0
   15.7752    0.1189   -2.4106 C   0  0  0  0  0  0  0  0  0  0  0  0
   15.6818    1.5742   -2.0928 C   0  0  0  0  0  0  0  0  0  0  0  0
   15.8599    2.5575   -3.0854 C   0  0  0  0  0  0  0  0  0  0  0  0
   16.0346    2.2406   -4.1087 H   0  0  0  0  0  0  0  0  0  0  0  0
   15.8222    3.8843   -2.8441 N   0  0  0  0  0  0  0  0  0  0  0  0
   15.5854    4.3048   -1.5929 C   0  0  0  0  0  0  0  0  0  0  0  0
   15.5729    5.3731   -1.3885 H   0  0  0  0  0  0  0  0  0  0  0  0
   15.3658    3.4065   -0.5494 C   0  0  0  0  0  0  0  0  0  0  0  0
   15.1666    3.7872    0.4456 H   0  0  0  0  0  0  0  0  0  0  0  0
   15.4233    2.0326   -0.7939 C   0  0  0  0  0  0  0  0  0  0  0  0
   15.2829    1.3304    0.0180 H   0  0  0  0  0  0  0  0  0  0  0  0
   15.3022   -0.8624   -1.5155 C   0  0  0  0  0  0  0  0  0  0  0  0
   14.8644   -0.5407   -0.5768 H   0  0  0  0  0  0  0  0  0  0  0  0
   15.2165   -2.9123    0.5963 N   0  0  0  0  0  4  0  0  0  0  0  0
   16.1891   -2.8989    0.9002 H   0  0  0  0  0  0  0  0  0  0  0  0
   14.2087   -2.6493    1.3717 C   0  0  0  0  0  0  0  0  0  0  0  0
   14.3995   -2.3543    2.6981 N   0  0  0  0  0  0  0  0  0  0  0  0
   13.6236   -1.9718    3.2382 H   0  0  0  0  0  0  0  0  0  0  0  0
   15.3308   -2.4183    3.1084 H   0  0  0  0  0  0  0  0  0  0  0  0
   11.3015   -3.3027    2.8079 S   0  0  0  0  0  0  0  0  0  0  0  0
  1  2  1  0
  2  3  2  0
  3  4  1  0
  4  5  1  0
  4  6  2  0
  6  7  1  0
  7  8  1  0
  8  9  2  0
  8 10  1  0
 10 11  1  6
 11 12  2  0
 12 13  1  0
 12 14  1  0
 14 15  1  0
 14 16  2  0
 16 17  1  0
 16 18  1  0
 18 19  1  0
 18 20  2  0
 20 21  1  0
 10 22  1  0
 22 23  2  0
 23 24  1  0
 23 25  1  0
 25 26  1  0
 25 27  2  0
 27 28  1  0
 27 29  1  0
 29 30  1  0
 30 31  2  0
 31 32  1  0
 31 33  1  0
 33 34  2  0
 34 35  1  0
 34 36  1  0
 36 37  1  0
 36 38  2  0
 38 39  1  0
 29 40  2  0
 40 41  1  0
 10 42  1  0
 42 43  1  0
 42 44  2  0
 44 45  1  0
 45 46  1  0
 45 47  1  0
  6 48  1  0
 48  2  1  0
 44  7  1  0
 20 11  1  0
 40 22  1  0
 38 30  1  0
M  CHG  1  42   1
M  END
>  <score>  (409) 
5.38636

$$$$

     RDKit          3D

 53 56  0  0  0  0  0  0  0  0999 V2000
    9.3544   -5.6280    3.4103 H   0  0  0  0  0  0  0  0  0  0  0  0
    9.2841   -5.2940    2.5006 O   0  0  0  0  0  0  0  0  0  0  0  0
    9.0723   -3.8774    2.4557 C   0  0  0  0  0  0  0  0  0  0  0  0
    8.9739   -3.5718    1.4112 H   0  0  0  0  0  0  0  0  0  0  0  0
    8.1232   -3.6582    2.9514 H   0  0  0  0  0  0  0  0  0  0  0  0
   10.1707   -3.0446    3.1418 C   0  0  0  0  0  0  0  0  0  0  0  0
    9.8169   -2.0133    3.1828 H   0  0  0  0  0  0  0  0  0  0  0  0
   10.2746   -3.3867    4.1791 H   0  0  0  0  0  0  0  0  0  0  0  0
   11.4898   -3.0496    2.4921 N   0  0  0  0  0  0  0  0  0  0  0  0
   12.2043   -3.6596    2.8629 H   0  0  0  0  0  0  0  0  0  0  0  0
   11.7861   -2.5362    1.2567 C   0  0  0  0  0  0  0  0  0  0  0  0
   10.9367   -2.0668    0.5272 O   0  0  0  0  0  0  0  0  0  0  0  0
   13.0252   -2.7801    0.7597 N   0  0  0  0  0  0  0  0  0  0  0  0
   13.2542   -3.0344   -0.5584 C   0  0  0  0  0  0  0  0  0  0  0  0
   12.3329   -3.1172   -1.3698 O   0  0  0  0  0  0  0  0  0  0  0  0
   14.7826   -3.2320   -0.7508 C   0  0  1  0  0  0  0  0  0  0  0  0
   15.1632   -4.6860   -1.0557 C   0  0  0  0  0  0  0  0  0  0  0  0
   16.3871   -5.2080   -0.5985 C   0  0  0  0  0  0  0  0  0  0  0  0
   17.0665   -4.5594   -0.0547 H   0  0  0  0  0  0  0  0  0  0  0  0
   16.7263   -6.5519   -0.7969 C   0  0  0  0  0  0  0  0  0  0  0  0
   17.6700   -6.9337   -0.4166 H   0  0  0  0  0  0  0  0  0  0  0  0
   15.8489   -7.3979   -1.4795 C   0  0  0  0  0  0  0  0  0  0  0  0
   16.1060   -8.4437   -1.6200 H   0  0  0  0  0  0  0  0  0  0  0  0
   14.6375   -6.8956   -1.9659 C   0  0  0  0  0  0  0  0  0  0  0  0
   13.9590   -7.5619   -2.4909 H   0  0  0  0  0  0  0  0  0  0  0  0
   14.2960   -5.5493   -1.7554 C   0  0  0  0  0  0  0  0  0  0  0  0
   13.3424   -5.1827   -2.1238 H   0  0  0  0  0  0  0  0  0  0  0  0
   15.3576   -2.2243   -1.7533 C   0  0  0  0  0  0  0  0  0  0  0  0
   15.9190   -2.6281   -2.9801 C   0  0  0  0  0  0  0  0  0  0  0  0
   15.9864   -3.6860   -3.2145 H   0  0  0  0  0  0  0  0  0  0  0  0
   16.4064   -1.6838   -3.8968 C   0  0  0  0  0  0  0  0  0  0  0  0
   16.8626   -2.0079   -4.8282 H   0  0  0  0  0  0  0  0  0  0  0  0
   16.3303   -0.3174   -3.6018 C   0  0  0  0  0  0  0  0  0  0  0  0
   16.7095    0.4157   -4.3062 H   0  0  0  0  0  0  0  0  0  0  0  0
   15.7729    0.1224   -2.3965 C   0  0  0  0  0  0  0  0  0  0  0  0
   15.7024    1.5661   -2.0959 C   0  0  0  0  0  0  0  0  0  0  0  0
   15.8864    2.5366   -3.0971 C   0  0  0  0  0  0  0  0  0  0  0  0
   16.0795    2.2026   -4.1122 H   0  0  0  0  0  0  0  0  0  0  0  0
   15.8333    3.8617   -2.8615 N   0  0  0  0  0  0  0  0  0  0  0  0
   15.5857    4.2736   -1.6088 C   0  0  0  0  0  0  0  0  0  0  0  0
   15.5447    5.3382   -1.4037 H   0  0  0  0  0  0  0  0  0  0  0  0
   15.3862    3.3775   -0.5579 C   0  0  0  0  0  0  0  0  0  0  0  0
   15.1920    3.7574    0.4361 H   0  0  0  0  0  0  0  0  0  0  0  0
   15.4566    2.0070   -0.7974 C   0  0  0  0  0  0  0  0  0  0  0  0
   15.3433    1.2773   -0.0033 H   0  0  0  0  0  0  0  0  0  0  0  0
   15.2901   -0.8402   -1.4895 C   0  0  0  0  0  0  0  0  0  0  0  0
   14.8509   -0.4962   -0.5598 H   0  0  0  0  0  0  0  0  0  0  0  0
   15.2032   -2.9200    0.6397 N   0  0  0  0  0  4  0  0  0  0  0  0
   16.1802   -2.9471    0.9496 H   0  0  0  0  0  0  0  0  0  0  0  0
   14.2021   -2.7274    1.4296 C   0  0  0  0  0  0  0  0  0  0  0  0
   14.3482   -2.4597    2.7594 N   0  0  0  0  0  0  0  0  0  0  0  0
   13.5810   -1.9960    3.2388 H   0  0  0  0  0  0  0  0  0  0  0  0
   15.2959   -2.2831    3.0948 H   0  0  0  0  0  0  0  0  0  0  0  0
  1  2  1  0
  2  3  1  0
  3  4  1  0
  3  5  1  0
  3  6  1  0
  6  7  1  0
  6  8  1  0
  6  9  1  0
  9 10  1  0
  9 11  1  0
 11 12  2  0
 11 13  1  0
 13 14  1  0
 14 15  2  0
 14 16  1  0
 16 17  1  6
 17 18  2  0
 18 19  1  0
 18 20  1  0
 20 21  1  0
 20 22  2  0
 22 23  1  0
 22 24  1  0
 24 25  1  0
 24 26  2  0
 26 27  1  0
 16 28  1  0
 28 29  2  0
 29 30  1  0
 29 31  1  0
 31 32  1  0
 31 33  2  0
 33 34  1  0
 33 35  1  0
 35 36  1  0
 36 37  2  0
 37 38  1  0
 37 39  1  0
 39 40  2  0
 40 41  1  0
 40 42  1  0
 42 43  1  0
 42 44  2  0
 44 45  1  0
 35 46  2  0
 46 47  1  0
 16 48  1  0
 48 49  1  0
 48 50  2  0
 50 51  1  0
 51 52  1  0
 51 53  1  0
 50 13  1  0
 26 17  1  0
 46 28  1  0
 44 36  1  0
M  CHG  1  48   1
M  END
>  <score>  (410) 
5.38186

$$$$

     RDKit          3D

 49 53  0  0  0  0  0  0  0  0999 V2000
   15.5533    5.3529   -1.3935 H   0  0  0  0  0  0  0  0  0  0  0  0
   15.5875    4.2858   -1.6059 C   0  0  0  0  0  0  0  0  0  0  0  0
   15.8208    3.8689   -2.8609 N   0  0  0  0  0  0  0  0  0  0  0  0
   15.8798    2.5422   -3.0938 C   0  0  0  0  0  0  0  0  0  0  0  0
   16.0717    2.1999   -4.1042 H   0  0  0  0  0  0  0  0  0  0  0  0
   15.6969    1.5688   -2.0989 C   0  0  0  0  0  0  0  0  0  0  0  0
   15.7752    0.1243   -2.4069 C   0  0  0  0  0  0  0  0  0  0  0  0
   16.3292   -0.3164   -3.6113 C   0  0  0  0  0  0  0  0  0  0  0  0
   16.7101    0.4303   -4.2990 H   0  0  0  0  0  0  0  0  0  0  0  0
   16.4238   -1.6839   -3.9033 C   0  0  0  0  0  0  0  0  0  0  0  0
   16.8625   -2.0040   -4.8411 H   0  0  0  0  0  0  0  0  0  0  0  0
   15.9420   -2.6340   -2.9946 C   0  0  0  0  0  0  0  0  0  0  0  0
   15.9962   -3.6944   -3.2314 H   0  0  0  0  0  0  0  0  0  0  0  0
   15.3760   -2.2245   -1.7760 C   0  0  0  0  0  0  0  0  0  0  0  0
   14.8062   -3.2298   -0.7745 C   0  0  2  0  0  0  0  0  0  0  0  0
   15.1732   -4.6939   -1.0715 C   0  0  0  0  0  0  0  0  0  0  0  0
   16.3922   -5.2196   -0.6044 C   0  0  0  0  0  0  0  0  0  0  0  0
   17.0700   -4.5705   -0.0579 H   0  0  0  0  0  0  0  0  0  0  0  0
   16.7337   -6.5639   -0.8048 C   0  0  0  0  0  0  0  0  0  0  0  0
   17.6686   -6.9543   -0.4135 H   0  0  0  0  0  0  0  0  0  0  0  0
   15.8570   -7.4150   -1.4806 C   0  0  0  0  0  0  0  0  0  0  0  0
   16.1052   -8.4648   -1.6145 H   0  0  0  0  0  0  0  0  0  0  0  0
   14.6450   -6.9148   -1.9645 C   0  0  0  0  0  0  0  0  0  0  0  0
   13.9640   -7.5808   -2.4874 H   0  0  0  0  0  0  0  0  0  0  0  0
   14.3064   -5.5644   -1.7646 C   0  0  0  0  0  0  0  0  0  0  0  0
   13.3528   -5.1938   -2.1287 H   0  0  0  0  0  0  0  0  0  0  0  0
   13.2861   -3.0084   -0.5995 C   0  0  0  0  0  0  0  0  0  0  0  0
   12.4523   -3.1252   -1.4962 O   0  0  0  0  0  0  0  0  0  0  0  0
   13.0091   -2.7093    0.7217 N   0  0  0  0  0  0  0  0  0  0  0  0
   11.7363   -2.6161    1.3031 C   0  0  0  0  0  0  0  0  0  0  0  0
   11.3215   -3.0708    2.5291 C   0  0  0  0  0  0  0  0  0  0  0  0
   11.9810   -3.5775    3.2312 H   0  0  0  0  0  0  0  0  0  0  0  0
    9.9788   -2.8106    2.7112 O   0  0  0  0  0  0  0  0  0  0  0  0
    9.5575   -2.1634    1.5730 C   0  0  0  0  0  0  0  0  0  0  0  0
    8.5514   -1.7921    1.3943 H   0  0  0  0  0  0  0  0  0  0  0  0
   10.5885   -2.0247    0.6928 C   0  0  0  0  0  0  0  0  0  0  0  0
   10.5554   -1.5213   -0.2618 H   0  0  0  0  0  0  0  0  0  0  0  0
   14.2270   -2.6635    1.3821 C   0  0  0  0  0  0  0  0  0  0  0  0
   14.4209   -2.3791    2.7056 N   0  0  0  0  0  0  0  0  0  0  0  0
   15.3727   -2.3493    3.0780 H   0  0  0  0  0  0  0  0  0  0  0  0
   13.6478   -2.0016    3.2511 H   0  0  0  0  0  0  0  0  0  0  0  0
   15.2333   -2.9080    0.6052 N   0  0  0  0  0  4  0  0  0  0  0  0
   16.2076   -2.9507    0.9241 H   0  0  0  0  0  0  0  0  0  0  0  0
   15.3068   -0.8413   -1.5008 C   0  0  0  0  0  0  0  0  0  0  0  0
   14.8654   -0.5017   -0.5690 H   0  0  0  0  0  0  0  0  0  0  0  0
   15.4473    2.0102   -0.8013 C   0  0  0  0  0  0  0  0  0  0  0  0
   15.3377    1.2697   -0.0148 H   0  0  0  0  0  0  0  0  0  0  0  0
   15.3854    3.3856   -0.5559 C   0  0  0  0  0  0  0  0  0  0  0  0
   15.1800    3.7737    0.4356 H   0  0  0  0  0  0  0  0  0  0  0  0
  1  2  1  0
  2  3  2  0
  3  4  1  0
  4  5  1  0
  4  6  2  0
  6  7  1  0
  7  8  2  0
  8  9  1  0
  8 10  1  0
 10 11  1  0
 10 12  2  0
 12 13  1  0
 12 14  1  0
 15 14  1  6
 15 16  1  0
 16 17  2  0
 17 18  1  0
 17 19  1  0
 19 20  1  0
 19 21  2  0
 21 22  1  0
 21 23  1  0
 23 24  1  0
 23 25  2  0
 25 26  1  0
 15 27  1  0
 27 28  2  0
 27 29  1  0
 29 30  1  0
 30 31  2  0
 31 32  1  0
 31 33  1  0
 33 34  1  0
 34 35  1  0
 34 36  2  0
 36 37  1  0
 29 38  1  0
 38 39  1  0
 39 40  1  0
 39 41  1  0
 38 42  2  0
 42 43  1  0
 14 44  2  0
 44 45  1  0
  6 46  1  0
 46 47  1  0
 46 48  2  0
 48 49  1  0
 48  2  1  0
 44  7  1  0
 42 15  1  0
 25 16  1  0
 36 30  1  0
M  CHG  1  42   1
M  END
>  <score>  (411) 
5.37956

$$$$

     RDKit          3D

 62 66  0  0  0  0  0  0  0  0999 V2000
   15.5444    5.3118   -1.3949 H   0  0  0  0  0  0  0  0  0  0  0  0
   15.6169    4.2464   -1.5975 C   0  0  0  0  0  0  0  0  0  0  0  0
   15.8544    3.8363   -2.8515 N   0  0  0  0  0  0  0  0  0  0  0  0
   15.9502    2.5128   -3.0851 C   0  0  0  0  0  0  0  0  0  0  0  0
   16.1283    2.1954   -4.1071 H   0  0  0  0  0  0  0  0  0  0  0  0
   15.8177    1.5321   -2.0848 C   0  0  0  0  0  0  0  0  0  0  0  0
   15.9262    0.0876   -2.4114 C   0  0  0  0  0  0  0  0  0  0  0  0
   16.3942   -0.3470   -3.6634 C   0  0  0  0  0  0  0  0  0  0  0  0
   16.6950    0.3804   -4.4109 H   0  0  0  0  0  0  0  0  0  0  0  0
   16.4762   -1.7142   -3.9637 C   0  0  0  0  0  0  0  0  0  0  0  0
   16.8318   -2.0344   -4.9382 H   0  0  0  0  0  0  0  0  0  0  0  0
   16.0895   -2.6691   -3.0159 C   0  0  0  0  0  0  0  0  0  0  0  0
   16.1436   -3.7262   -3.2636 H   0  0  0  0  0  0  0  0  0  0  0  0
   15.6143   -2.2707   -1.7548 C   0  0  0  0  0  0  0  0  0  0  0  0
   15.0632   -3.2764   -0.7445 C   0  0  2  0  0  0  0  0  0  0  0  0
   15.4208   -4.7292   -1.0543 C   0  0  0  0  0  0  0  0  0  0  0  0
   16.6225   -5.3103   -0.6149 C   0  0  0  0  0  0  0  0  0  0  0  0
   17.3398   -4.7049   -0.0685 H   0  0  0  0  0  0  0  0  0  0  0  0
   16.8920   -6.6654   -0.8564 C   0  0  0  0  0  0  0  0  0  0  0  0
   17.8231   -7.1026   -0.5081 H   0  0  0  0  0  0  0  0  0  0  0  0
   15.9600   -7.4588   -1.5345 C   0  0  0  0  0  0  0  0  0  0  0  0
   16.1530   -8.5157   -1.6923 H   0  0  0  0  0  0  0  0  0  0  0  0
   14.7795   -6.8856   -2.0122 C   0  0  0  0  0  0  0  0  0  0  0  0
   14.0623   -7.4935   -2.5561 H   0  0  0  0  0  0  0  0  0  0  0  0
   14.5211   -5.5307   -1.7823 C   0  0  0  0  0  0  0  0  0  0  0  0
   13.5993   -5.1002   -2.1609 H   0  0  0  0  0  0  0  0  0  0  0  0
   13.5352   -3.1024   -0.6450 C   0  0  0  0  0  0  0  0  0  0  0  0
   12.7550   -3.2403   -1.5934 O   0  0  0  0  0  0  0  0  0  0  0  0
   13.1774   -2.7284    0.6377 N   0  0  0  0  0  0  0  0  0  0  0  0
   11.8807   -2.2072    0.9943 N   0  0  0  0  0  0  0  0  0  0  0  0
   11.1330   -2.8681    2.0795 C   0  0  0  0  0  0  0  0  0  0  0  0
   11.0329   -2.1633    2.9070 H   0  0  0  0  0  0  0  0  0  0  0  0
   11.6920   -3.7397    2.4362 H   0  0  0  0  0  0  0  0  0  0  0  0
    9.7390   -3.3426    1.6501 C   0  0  0  0  0  0  0  0  0  0  0  0
    9.8501   -4.2399    1.0354 H   0  0  0  0  0  0  0  0  0  0  0  0
    9.1984   -3.6324    2.5613 H   0  0  0  0  0  0  0  0  0  0  0  0
    8.9298   -2.3683    0.8771 N   0  0  0  0  0  0  0  0  0  0  0  0
    7.5932   -2.8951    0.5452 C   0  0  0  0  0  0  0  0  0  0  0  0
    7.0213   -3.1507    1.4476 H   0  0  0  0  0  0  0  0  0  0  0  0
    7.7157   -3.8050   -0.0495 H   0  0  0  0  0  0  0  0  0  0  0  0
    7.0110   -2.1757   -0.0392 H   0  0  0  0  0  0  0  0  0  0  0  0
    9.1032   -0.9266    1.1733 C   0  0  0  0  0  0  0  0  0  0  0  0
    8.2182   -0.3834    0.8349 H   0  0  0  0  0  0  0  0  0  0  0  0
    9.1667   -0.7651    2.2535 H   0  0  0  0  0  0  0  0  0  0  0  0
   10.3048   -0.3209    0.4156 C   0  0  0  0  0  0  0  0  0  0  0  0
   10.1796   -0.5664   -0.6438 H   0  0  0  0  0  0  0  0  0  0  0  0
   10.2643    0.7683    0.5055 H   0  0  0  0  0  0  0  0  0  0  0  0
   11.7179   -0.7518    0.8559 C   0  0  0  0  0  0  0  0  0  0  0  0
   12.0020   -0.2836    1.7968 H   0  0  0  0  0  0  0  0  0  0  0  0
   12.4342   -0.3777    0.1176 H   0  0  0  0  0  0  0  0  0  0  0  0
   14.3680   -2.6049    1.3528 C   0  0  0  0  0  0  0  0  0  0  0  0
   14.5546   -2.1768    2.6433 N   0  0  0  0  0  0  0  0  0  0  0  0
   15.4805   -2.2977    3.0499 H   0  0  0  0  0  0  0  0  0  0  0  0
   13.7497   -2.1049    3.2623 H   0  0  0  0  0  0  0  0  0  0  0  0
   15.4092   -2.9196    0.6479 N   0  0  0  0  0  4  0  0  0  0  0  0
   16.3696   -2.8415    0.9896 H   0  0  0  0  0  0  0  0  0  0  0  0
   15.5438   -0.8911   -1.4774 C   0  0  0  0  0  0  0  0  0  0  0  0
   15.1639   -0.5720   -0.5132 H   0  0  0  0  0  0  0  0  0  0  0  0
   15.5730    1.9746   -0.7771 C   0  0  0  0  0  0  0  0  0  0  0  0
   15.4761    1.2642    0.0403 H   0  0  0  0  0  0  0  0  0  0  0  0
   15.4667    3.3480   -0.5408 C   0  0  0  0  0  0  0  0  0  0  0  0
   15.2761    3.7380    0.4520 H   0  0  0  0  0  0  0  0  0  0  0  0
  1  2  1  0
  2  3  2  0
  3  4  1  0
  4  5  1  0
  4  6  2  0
  6  7  1  0
  7  8  2  0
  8  9  1  0
  8 10  1  0
 10 11  1  0
 10 12  2  0
 12 13  1  0
 12 14  1  0
 15 14  1  6
 15 16  1  0
 16 17  2  0
 17 18  1  0
 17 19  1  0
 19 20  1  0
 19 21  2  0
 21 22  1  0
 21 23  1  0
 23 24  1  0
 23 25  2  0
 25 26  1  0
 15 27  1  0
 27 28  2  0
 27 29  1  0
 29 30  1  0
 30 31  1  0
 31 32  1  0
 31 33  1  0
 31 34  1  0
 34 35  1  0
 34 36  1  0
 34 37  1  0
 37 38  1  0
 38 39  1  0
 38 40  1  0
 38 41  1  0
 37 42  1  0
 42 43  1  0
 42 44  1  0
 42 45  1  0
 45 46  1  0
 45 47  1  0
 45 48  1  0
 48 49  1  0
 48 50  1  0
 29 51  1  0
 51 52  1  0
 52 53  1  0
 52 54  1  0
 51 55  2  0
 55 56  1  0
 14 57  2  0
 57 58  1  0
  6 59  1  0
 59 60  1  0
 59 61  2  0
 61 62  1  0
 61  2  1  0
 57  7  1  0
 55 15  1  0
 25 16  1  0
 48 30  1  0
M  CHG  1  55   1
M  END
>  <score>  (412) 
5.37661

$$$$

     RDKit          3D

 55 59  0  0  0  0  0  0  0  0999 V2000
   15.5126    5.3117   -1.4273 H   0  0  0  0  0  0  0  0  0  0  0  0
   15.5929    4.2469   -1.6173 C   0  0  0  0  0  0  0  0  0  0  0  0
   15.8436    3.8352   -2.8689 N   0  0  0  0  0  0  0  0  0  0  0  0
   15.9203    2.5131   -3.1003 C   0  0  0  0  0  0  0  0  0  0  0  0
   16.1237    2.1830   -4.1159 H   0  0  0  0  0  0  0  0  0  0  0  0
   15.7345    1.5496   -2.0951 C   0  0  0  0  0  0  0  0  0  0  0  0
   15.7901    0.1179   -2.4022 C   0  0  0  0  0  0  0  0  0  0  0  0
   16.3305   -0.3224   -3.6141 C   0  0  0  0  0  0  0  0  0  0  0  0
   16.6963    0.4047   -4.3309 H   0  0  0  0  0  0  0  0  0  0  0  0
   16.4126   -1.6849   -3.8997 C   0  0  0  0  0  0  0  0  0  0  0  0
   16.8341   -2.0039   -4.8449 H   0  0  0  0  0  0  0  0  0  0  0  0
   15.9475   -2.6239   -2.9759 C   0  0  0  0  0  0  0  0  0  0  0  0
   15.9998   -3.6820   -3.2084 H   0  0  0  0  0  0  0  0  0  0  0  0
   15.4016   -2.2100   -1.7528 C   0  0  0  0  0  0  0  0  0  0  0  0
   14.8576   -3.2021   -0.7391 C   0  0  2  0  0  0  0  0  0  0  0  0
   15.2210   -4.6538   -1.0336 C   0  0  0  0  0  0  0  0  0  0  0  0
   16.4389   -5.1912   -0.5848 C   0  0  0  0  0  0  0  0  0  0  0  0
   17.1414   -4.5626   -0.0449 H   0  0  0  0  0  0  0  0  0  0  0  0
   16.7513   -6.5374   -0.7996 C   0  0  0  0  0  0  0  0  0  0  0  0
   17.6872   -6.9390   -0.4234 H   0  0  0  0  0  0  0  0  0  0  0  0
   15.8570   -7.3640   -1.4868 C   0  0  0  0  0  0  0  0  0  0  0  0
   16.0935   -8.4118   -1.6478 H   0  0  0  0  0  0  0  0  0  0  0  0
   14.6499   -6.8385   -1.9582 C   0  0  0  0  0  0  0  0  0  0  0  0
   13.9505   -7.4707   -2.4965 H   0  0  0  0  0  0  0  0  0  0  0  0
   14.3352   -5.4934   -1.7335 C   0  0  0  0  0  0  0  0  0  0  0  0
   13.3920   -5.1028   -2.1026 H   0  0  0  0  0  0  0  0  0  0  0  0
   13.3436   -2.9934   -0.5686 C   0  0  0  0  0  0  0  0  0  0  0  0
   12.4668   -3.3361   -1.3558 O   0  0  0  0  0  0  0  0  0  0  0  0
   13.0774   -2.4636    0.6760 N   0  0  0  0  0  0  0  0  0  0  0  0
   11.7468   -2.4170    1.2705 C   0  0  0  0  0  0  0  0  0  0  0  0
   11.7300   -1.7088    2.1061 H   0  0  0  0  0  0  0  0  0  0  0  0
   11.0053   -2.0810    0.5345 H   0  0  0  0  0  0  0  0  0  0  0  0
   11.4440   -3.8076    1.7361 C   0  0  0  0  0  0  0  0  0  0  0  0
   11.2197   -4.8193    0.7891 C   0  0  0  0  0  0  0  0  0  0  0  0
   11.1435   -4.5777   -0.2681 H   0  0  0  0  0  0  0  0  0  0  0  0
   11.1602   -6.1515    1.1979 C   0  0  0  0  0  0  0  0  0  0  0  0
   11.0251   -6.9549    0.4808 H   0  0  0  0  0  0  0  0  0  0  0  0
   11.3292   -6.4749    2.5426 C   0  0  0  0  0  0  0  0  0  0  0  0
   11.4323   -7.7742    2.8872 F   0  0  0  0  0  0  0  0  0  0  0  0
   11.4472   -5.4607    3.5000 C   0  0  0  0  0  0  0  0  0  0  0  0
   11.5297   -5.7175    4.5496 H   0  0  0  0  0  0  0  0  0  0  0  0
   11.5095   -4.1251    3.1013 C   0  0  0  0  0  0  0  0  0  0  0  0
   11.6519   -3.3533    3.8526 H   0  0  0  0  0  0  0  0  0  0  0  0
   14.2624   -2.5463    1.3763 C   0  0  0  0  0  0  0  0  0  0  0  0
   14.4163   -2.4144    2.7251 N   0  0  0  0  0  0  0  0  0  0  0  0
   15.3612   -2.2506    3.0719 H   0  0  0  0  0  0  0  0  0  0  0  0
   13.6269   -2.0638    3.2621 H   0  0  0  0  0  0  0  0  0  0  0  0
   15.2754   -2.8409    0.6285 N   0  0  0  0  0  4  0  0  0  0  0  0
   16.1959   -3.0738    1.0047 H   0  0  0  0  0  0  0  0  0  0  0  0
   15.3158   -0.8328   -1.4873 C   0  0  0  0  0  0  0  0  0  0  0  0
   14.8796   -0.4955   -0.5502 H   0  0  0  0  0  0  0  0  0  0  0  0
   15.5018    1.9860   -0.7915 C   0  0  0  0  0  0  0  0  0  0  0  0
   15.3984    1.2689    0.0184 H   0  0  0  0  0  0  0  0  0  0  0  0
   15.4254    3.3528   -0.5582 C   0  0  0  0  0  0  0  0  0  0  0  0
   15.2331    3.7187    0.4407 H   0  0  0  0  0  0  0  0  0  0  0  0
  1  2  1  0
  2  3  2  0
  3  4  1  0
  4  5  1  0
  4  6  2  0
  6  7  1  0
  7  8  2  0
  8  9  1  0
  8 10  1  0
 10 11  1  0
 10 12  2  0
 12 13  1  0
 12 14  1  0
 15 14  1  6
 15 16  1  0
 16 17  2  0
 17 18  1  0
 17 19  1  0
 19 20  1  0
 19 21  2  0
 21 22  1  0
 21 23  1  0
 23 24  1  0
 23 25  2  0
 25 26  1  0
 15 27  1  0
 27 28  2  0
 27 29  1  0
 29 30  1  0
 30 31  1  0
 30 32  1  0
 30 33  1  0
 33 34  2  0
 34 35  1  0
 34 36  1  0
 36 37  1  0
 36 38  2  0
 38 39  1  0
 38 40  1  0
 40 41  1  0
 40 42  2  0
 42 43  1  0
 29 44  1  0
 44 45  1  0
 45 46  1  0
 45 47  1  0
 44 48  2  0
 48 49  1  0
 14 50  2  0
 50 51  1  0
  6 52  1  0
 52 53  1  0
 52 54  2  0
 54 55  1  0
 54  2  1  0
 50  7  1  0
 48 15  1  0
 25 16  1  0
 42 33  1  0
M  CHG  1  48   1
M  END
>  <score>  (413) 
5.3732

$$$$

     RDKit          3D

 55 59  0  0  0  0  0  0  0  0999 V2000
   15.5554    5.3536   -1.3943 H   0  0  0  0  0  0  0  0  0  0  0  0
   15.5865    4.2871   -1.6037 C   0  0  0  0  0  0  0  0  0  0  0  0
   15.8227    3.8701   -2.8577 N   0  0  0  0  0  0  0  0  0  0  0  0
   15.8771    2.5435   -3.0930 C   0  0  0  0  0  0  0  0  0  0  0  0
   16.0674    2.2063   -4.1065 H   0  0  0  0  0  0  0  0  0  0  0  0
   15.6954    1.5684   -2.0974 C   0  0  0  0  0  0  0  0  0  0  0  0
   15.7729    0.1213   -2.4041 C   0  0  0  0  0  0  0  0  0  0  0  0
   16.3328   -0.3195   -3.6084 C   0  0  0  0  0  0  0  0  0  0  0  0
   16.7126    0.4212   -4.3041 H   0  0  0  0  0  0  0  0  0  0  0  0
   16.4200   -1.6868   -3.9005 C   0  0  0  0  0  0  0  0  0  0  0  0
   16.8635   -2.0048   -4.8383 H   0  0  0  0  0  0  0  0  0  0  0  0
   15.9334   -2.6367   -2.9908 C   0  0  0  0  0  0  0  0  0  0  0  0
   15.9949   -3.6947   -3.2308 H   0  0  0  0  0  0  0  0  0  0  0  0
   15.3637   -2.2305   -1.7698 C   0  0  0  0  0  0  0  0  0  0  0  0
   14.7848   -3.2359   -0.7678 C   0  0  2  0  0  0  0  0  0  0  0  0
   15.1630   -4.6972   -1.0620 C   0  0  0  0  0  0  0  0  0  0  0  0
   16.3867   -5.2188   -0.6014 C   0  0  0  0  0  0  0  0  0  0  0  0
   17.0679   -4.5709   -0.0574 H   0  0  0  0  0  0  0  0  0  0  0  0
   16.7306   -6.5630   -0.8021 C   0  0  0  0  0  0  0  0  0  0  0  0
   17.6689   -6.9495   -0.4159 H   0  0  0  0  0  0  0  0  0  0  0  0
   15.8559   -7.4161   -1.4792 C   0  0  0  0  0  0  0  0  0  0  0  0
   16.1086   -8.4647   -1.6140 H   0  0  0  0  0  0  0  0  0  0  0  0
   14.6443   -6.9158   -1.9644 C   0  0  0  0  0  0  0  0  0  0  0  0
   13.9659   -7.5832   -2.4879 H   0  0  0  0  0  0  0  0  0  0  0  0
   14.3009   -5.5676   -1.7608 C   0  0  0  0  0  0  0  0  0  0  0  0
   13.3502   -5.2006   -2.1335 H   0  0  0  0  0  0  0  0  0  0  0  0
   13.2633   -3.0105   -0.5899 C   0  0  0  0  0  0  0  0  0  0  0  0
   12.4021   -3.1035   -1.4669 O   0  0  0  0  0  0  0  0  0  0  0  0
   12.9943   -2.6873    0.7223 N   0  0  0  0  0  0  0  0  0  0  0  0
   11.7408   -2.4969    1.2811 C   0  0  0  0  0  0  0  0  0  0  0  0
   10.8232   -1.6359    0.7245 C   0  0  0  0  0  0  0  0  0  0  0  0
   11.0953   -1.0495   -0.1423 H   0  0  0  0  0  0  0  0  0  0  0  0
    9.5673   -1.4955    1.3163 C   0  0  0  0  0  0  0  0  0  0  0  0
    8.8745   -0.7839    0.8733 H   0  0  0  0  0  0  0  0  0  0  0  0
    9.1822   -2.2223    2.3794 N   0  0  0  0  0  0  0  0  0  0  0  0
   10.0732   -3.0940    2.8930 C   0  0  0  0  0  0  0  0  0  0  0  0
    9.7483   -3.9934    3.8736 O   0  0  0  0  0  0  0  0  0  0  0  0
    8.5209   -3.7571    4.5470 C   0  0  0  0  0  0  0  0  0  0  0  0
    8.3983   -4.4627    5.3739 H   0  0  0  0  0  0  0  0  0  0  0  0
    7.6814   -3.8891    3.8600 H   0  0  0  0  0  0  0  0  0  0  0  0
    8.5319   -2.7325    4.9353 H   0  0  0  0  0  0  0  0  0  0  0  0
   11.3536   -3.2090    2.3904 C   0  0  0  0  0  0  0  0  0  0  0  0
   12.0132   -3.9109    2.8671 H   0  0  0  0  0  0  0  0  0  0  0  0
   14.1901   -2.6603    1.3910 C   0  0  0  0  0  0  0  0  0  0  0  0
   14.3853   -2.3726    2.7127 N   0  0  0  0  0  0  0  0  0  0  0  0
   15.3364   -2.3467    3.0777 H   0  0  0  0  0  0  0  0  0  0  0  0
   13.6046   -2.0393    3.2784 H   0  0  0  0  0  0  0  0  0  0  0  0
   15.1951   -2.9145    0.6188 N   0  0  0  0  0  4  0  0  0  0  0  0
   16.1649   -2.9384    0.9426 H   0  0  0  0  0  0  0  0  0  0  0  0
   15.2974   -0.8461   -1.5000 C   0  0  0  0  0  0  0  0  0  0  0  0
   14.8609   -0.5069   -0.5663 H   0  0  0  0  0  0  0  0  0  0  0  0
   15.4454    2.0131   -0.7992 C   0  0  0  0  0  0  0  0  0  0  0  0
   15.3296    1.2789   -0.0093 H   0  0  0  0  0  0  0  0  0  0  0  0
   15.3820    3.3879   -0.5553 C   0  0  0  0  0  0  0  0  0  0  0  0
   15.1799    3.7736    0.4364 H   0  0  0  0  0  0  0  0  0  0  0  0
  1  2  1  0
  2  3  2  0
  3  4  1  0
  4  5  1  0
  4  6  2  0
  6  7  1  0
  7  8  2  0
  8  9  1  0
  8 10  1  0
 10 11  1  0
 10 12  2  0
 12 13  1  0
 12 14  1  0
 15 14  1  6
 15 16  1  0
 16 17  2  0
 17 18  1  0
 17 19  1  0
 19 20  1  0
 19 21  2  0
 21 22  1  0
 21 23  1  0
 23 24  1  0
 23 25  2  0
 25 26  1  0
 15 27  1  0
 27 28  2  0
 27 29  1  0
 29 30  1  0
 30 31  2  0
 31 32  1  0
 31 33  1  0
 33 34  1  0
 33 35  2  0
 35 36  1  0
 36 37  1  0
 37 38  1  0
 38 39  1  0
 38 40  1  0
 38 41  1  0
 36 42  2  0
 42 43  1  0
 29 44  1  0
 44 45  1  0
 45 46  1  0
 45 47  1  0
 44 48  2  0
 48 49  1  0
 14 50  2  0
 50 51  1  0
  6 52  1  0
 52 53  1  0
 52 54  2  0
 54 55  1  0
 54  2  1  0
 50  7  1  0
 48 15  1  0
 25 16  1  0
 42 30  1  0
M  CHG  1  48   1
M  END
>  <score>  (414) 
5.37162

$$$$

     RDKit          3D

 53 56  0  0  0  0  0  0  0  0999 V2000
   15.5105    5.3055   -1.4286 H   0  0  0  0  0  0  0  0  0  0  0  0
   15.5926    4.2410   -1.6159 C   0  0  0  0  0  0  0  0  0  0  0  0
   15.8427    3.8287   -2.8673 N   0  0  0  0  0  0  0  0  0  0  0  0
   15.9196    2.5057   -3.0937 C   0  0  0  0  0  0  0  0  0  0  0  0
   16.1268    2.1707   -4.1062 H   0  0  0  0  0  0  0  0  0  0  0  0
   15.7420    1.5414   -2.0864 C   0  0  0  0  0  0  0  0  0  0  0  0
   15.8152    0.1060   -2.3940 C   0  0  0  0  0  0  0  0  0  0  0  0
   16.3393   -0.3268   -3.6177 C   0  0  0  0  0  0  0  0  0  0  0  0
   16.6825    0.4051   -4.3406 H   0  0  0  0  0  0  0  0  0  0  0  0
   16.4219   -1.6882   -3.9187 C   0  0  0  0  0  0  0  0  0  0  0  0
   16.8291   -1.9982   -4.8763 H   0  0  0  0  0  0  0  0  0  0  0  0
   15.9862   -2.6362   -2.9878 C   0  0  0  0  0  0  0  0  0  0  0  0
   16.0460   -3.6921   -3.2322 H   0  0  0  0  0  0  0  0  0  0  0  0
   15.4632   -2.2359   -1.7491 C   0  0  0  0  0  0  0  0  0  0  0  0
   14.9197   -3.2465   -0.7520 C   0  0  2  0  0  0  0  0  0  0  0  0
   15.2885   -4.6891   -1.0555 C   0  0  0  0  0  0  0  0  0  0  0  0
   16.5012   -5.2377   -0.6103 C   0  0  0  0  0  0  0  0  0  0  0  0
   17.2104   -4.6162   -0.0720 H   0  0  0  0  0  0  0  0  0  0  0  0
   16.7908   -6.5908   -0.8172 C   0  0  0  0  0  0  0  0  0  0  0  0
   17.7221   -7.0039   -0.4399 H   0  0  0  0  0  0  0  0  0  0  0  0
   15.8795   -7.4060   -1.4988 C   0  0  0  0  0  0  0  0  0  0  0  0
   16.1005   -8.4577   -1.6565 H   0  0  0  0  0  0  0  0  0  0  0  0
   14.6827   -6.8632   -1.9778 C   0  0  0  0  0  0  0  0  0  0  0  0
   13.9659   -7.4872   -2.5045 H   0  0  0  0  0  0  0  0  0  0  0  0
   14.3931   -5.5136   -1.7582 C   0  0  0  0  0  0  0  0  0  0  0  0
   13.4535   -5.1096   -2.1216 H   0  0  0  0  0  0  0  0  0  0  0  0
   13.3971   -3.0656   -0.6369 C   0  0  0  0  0  0  0  0  0  0  0  0
   12.5857   -3.2372   -1.5511 O   0  0  0  0  0  0  0  0  0  0  0  0
   13.0791   -2.6550    0.6546 N   0  0  0  0  0  0  0  0  0  0  0  0
   11.7668   -2.2175    1.0862 N   0  0  0  0  0  0  0  0  0  0  0  0
   11.4707   -2.6365    1.9753 H   0  0  0  0  0  0  0  0  0  0  0  0
   11.5275   -0.7674    1.0839 C   0  0  0  0  0  0  0  0  0  0  0  0
   12.2503   -0.2645    1.7352 H   0  0  0  0  0  0  0  0  0  0  0  0
   10.5249   -0.5699    1.4674 H   0  0  0  0  0  0  0  0  0  0  0  0
   11.5989   -0.2102   -0.3314 C   0  0  0  0  0  0  0  0  0  0  0  0
   11.8575    0.8519   -0.3137 H   0  0  0  0  0  0  0  0  0  0  0  0
   12.3809   -0.7275   -0.8927 H   0  0  0  0  0  0  0  0  0  0  0  0
   10.2357   -0.3958   -0.9987 C   0  0  0  0  0  0  0  0  0  0  0  0
   10.0394   -1.4594   -1.1676 H   0  0  0  0  0  0  0  0  0  0  0  0
   10.2060    0.1376   -1.9520 H   0  0  0  0  0  0  0  0  0  0  0  0
    9.4410   -0.0025   -0.3556 H   0  0  0  0  0  0  0  0  0  0  0  0
   14.2926   -2.5888    1.3534 C   0  0  0  0  0  0  0  0  0  0  0  0
   14.5294   -2.2530    2.6604 N   0  0  0  0  0  0  0  0  0  0  0  0
   13.7495   -2.1476    3.3046 H   0  0  0  0  0  0  0  0  0  0  0  0
   15.4822   -2.3404    3.0170 H   0  0  0  0  0  0  0  0  0  0  0  0
   15.3111   -2.9091    0.6271 N   0  0  0  0  0  4  0  0  0  0  0  0
   16.2691   -2.9817    0.9784 H   0  0  0  0  0  0  0  0  0  0  0  0
   15.3629   -0.8579   -1.4786 C   0  0  0  0  0  0  0  0  0  0  0  0
   14.9218   -0.5292   -0.5428 H   0  0  0  0  0  0  0  0  0  0  0  0
   15.5074    1.9811   -0.7834 C   0  0  0  0  0  0  0  0  0  0  0  0
   15.4032    1.2653    0.0270 H   0  0  0  0  0  0  0  0  0  0  0  0
   15.4279    3.3494   -0.5533 C   0  0  0  0  0  0  0  0  0  0  0  0
   15.2409    3.7194    0.4460 H   0  0  0  0  0  0  0  0  0  0  0  0
  1  2  1  0
  2  3  2  0
  3  4  1  0
  4  5  1  0
  4  6  2  0
  6  7  1  0
  7  8  2  0
  8  9  1  0
  8 10  1  0
 10 11  1  0
 10 12  2  0
 12 13  1  0
 12 14  1  0
 15 14  1  6
 15 16  1  0
 16 17  2  0
 17 18  1  0
 17 19  1  0
 19 20  1  0
 19 21  2  0
 21 22  1  0
 21 23  1  0
 23 24  1  0
 23 25  2  0
 25 26  1  0
 15 27  1  0
 27 28  2  0
 27 29  1  0
 29 30  1  0
 30 31  1  0
 30 32  1  0
 32 33  1  0
 32 34  1  0
 32 35  1  0
 35 36  1  0
 35 37  1  0
 35 38  1  0
 38 39  1  0
 38 40  1  0
 38 41  1  0
 29 42  1  0
 42 43  1  0
 43 44  1  0
 43 45  1  0
 42 46  2  0
 46 47  1  0
 14 48  2  0
 48 49  1  0
  6 50  1  0
 50 51  1  0
 50 52  2  0
 52 53  1  0
 52  2  1  0
 48  7  1  0
 46 15  1  0
 25 16  1  0
M  CHG  1  46   1
M  END
>  <score>  (415) 
5.3697

$$$$

     RDKit          3D

 57 61  0  0  0  0  0  0  0  0999 V2000
   15.5334    5.3238   -1.4116 H   0  0  0  0  0  0  0  0  0  0  0  0
   15.5844    4.2588   -1.6143 C   0  0  0  0  0  0  0  0  0  0  0  0
   15.8369    3.8492   -2.8664 N   0  0  0  0  0  0  0  0  0  0  0  0
   15.8941    2.5251   -3.0999 C   0  0  0  0  0  0  0  0  0  0  0  0
   16.0966    2.1921   -4.1131 H   0  0  0  0  0  0  0  0  0  0  0  0
   15.7049    1.5563   -2.0986 C   0  0  0  0  0  0  0  0  0  0  0  0
   15.7783    0.1179   -2.3976 C   0  0  0  0  0  0  0  0  0  0  0  0
   16.3254   -0.3127   -3.6086 C   0  0  0  0  0  0  0  0  0  0  0  0
   16.6976    0.4303   -4.3070 H   0  0  0  0  0  0  0  0  0  0  0  0
   16.4109   -1.6758   -3.9077 C   0  0  0  0  0  0  0  0  0  0  0  0
   16.8585   -1.9955   -4.8440 H   0  0  0  0  0  0  0  0  0  0  0  0
   15.9467   -2.6234   -2.9869 C   0  0  0  0  0  0  0  0  0  0  0  0
   16.0080   -3.6818   -3.2216 H   0  0  0  0  0  0  0  0  0  0  0  0
   15.4094   -2.2279   -1.7537 C   0  0  0  0  0  0  0  0  0  0  0  0
   14.8649   -3.2513   -0.7621 C   0  0  2  0  0  0  0  0  0  0  0  0
   15.2216   -4.6975   -1.0722 C   0  0  0  0  0  0  0  0  0  0  0  0
   16.4328   -5.2277   -0.6086 C   0  0  0  0  0  0  0  0  0  0  0  0
   17.1084   -4.5806   -0.0567 H   0  0  0  0  0  0  0  0  0  0  0  0
   16.7513   -6.5737   -0.8055 C   0  0  0  0  0  0  0  0  0  0  0  0
   17.6845   -6.9659   -0.4097 H   0  0  0  0  0  0  0  0  0  0  0  0
   15.8595   -7.4074   -1.4889 C   0  0  0  0  0  0  0  0  0  0  0  0
   16.0984   -8.4577   -1.6271 H   0  0  0  0  0  0  0  0  0  0  0  0
   14.6525   -6.8918   -1.9749 C   0  0  0  0  0  0  0  0  0  0  0  0
   13.9527   -7.5464   -2.4878 H   0  0  0  0  0  0  0  0  0  0  0  0
   14.3344   -5.5436   -1.7646 C   0  0  0  0  0  0  0  0  0  0  0  0
   13.3791   -5.1612   -2.1128 H   0  0  0  0  0  0  0  0  0  0  0  0
   13.3478   -3.0666   -0.6250 C   0  0  0  0  0  0  0  0  0  0  0  0
   12.5446   -3.1735   -1.5556 O   0  0  0  0  0  0  0  0  0  0  0  0
   13.0498   -2.7080    0.6789 N   0  0  0  0  0  0  0  0  0  0  0  0
   11.8300   -2.0879    1.1176 N   0  0  0  0  0  0  0  0  0  0  0  0
   10.6399   -2.9416    1.3067 C   0  0  0  0  0  0  0  0  0  0  0  0
   10.1294   -2.6479    2.2285 H   0  0  0  0  0  0  0  0  0  0  0  0
   10.9385   -3.9902    1.4159 H   0  0  0  0  0  0  0  0  0  0  0  0
    9.6954   -2.8141    0.1021 C   0  0  0  0  0  0  0  0  0  0  0  0
    8.7743   -3.3701    0.2877 H   0  0  0  0  0  0  0  0  0  0  0  0
   10.1756   -3.2608   -0.7723 H   0  0  0  0  0  0  0  0  0  0  0  0
    9.3669   -1.3471   -0.2003 C   0  0  0  0  0  0  0  0  0  0  0  0
    8.6741   -1.2785   -1.0433 H   0  0  0  0  0  0  0  0  0  0  0  0
    8.8834   -0.8832    0.6646 H   0  0  0  0  0  0  0  0  0  0  0  0
   10.6612   -0.6008   -0.5276 C   0  0  0  0  0  0  0  0  0  0  0  0
   11.1239   -1.0142   -1.4252 H   0  0  0  0  0  0  0  0  0  0  0  0
   10.4515    0.4516   -0.7348 H   0  0  0  0  0  0  0  0  0  0  0  0
   11.6311   -0.6999    0.6464 C   0  0  0  0  0  0  0  0  0  0  0  0
   12.5879   -0.2624    0.3605 H   0  0  0  0  0  0  0  0  0  0  0  0
   11.2450   -0.0906    1.4460 H   0  0  0  0  0  0  0  0  0  0  0  0
   14.2618   -2.6316    1.3620 C   0  0  0  0  0  0  0  0  0  0  0  0
   14.4632   -2.2669    2.6637 N   0  0  0  0  0  0  0  0  0  0  0  0
   15.4029   -2.3418    3.0570 H   0  0  0  0  0  0  0  0  0  0  0  0
   13.6588   -2.1328    3.2747 H   0  0  0  0  0  0  0  0  0  0  0  0
   15.2758   -2.9342    0.6179 N   0  0  0  0  0  4  0  0  0  0  0  0
   16.2428   -2.9831    0.9485 H   0  0  0  0  0  0  0  0  0  0  0  0
   15.3155   -0.8466   -1.4842 C   0  0  0  0  0  0  0  0  0  0  0  0
   14.8675   -0.5091   -0.5546 H   0  0  0  0  0  0  0  0  0  0  0  0
   15.4677    1.9932   -0.7986 C   0  0  0  0  0  0  0  0  0  0  0  0
   15.3663    1.2615   -0.0022 H   0  0  0  0  0  0  0  0  0  0  0  0
   15.3943    3.3631   -0.5595 C   0  0  0  0  0  0  0  0  0  0  0  0
   15.2056    3.7448    0.4364 H   0  0  0  0  0  0  0  0  0  0  0  0
  1  2  1  0
  2  3  2  0
  3  4  1  0
  4  5  1  0
  4  6  2  0
  6  7  1  0
  7  8  2  0
  8  9  1  0
  8 10  1  0
 10 11  1  0
 10 12  2  0
 12 13  1  0
 12 14  1  0
 15 14  1  6
 15 16  1  0
 16 17  2  0
 17 18  1  0
 17 19  1  0
 19 20  1  0
 19 21  2  0
 21 22  1  0
 21 23  1  0
 23 24  1  0
 23 25  2  0
 25 26  1  0
 15 27  1  0
 27 28  2  0
 27 29  1  0
 29 30  1  0
 30 31  1  0
 31 32  1  0
 31 33  1  0
 31 34  1  0
 34 35  1  0
 34 36  1  0
 34 37  1  0
 37 38  1  0
 37 39  1  0
 37 40  1  0
 40 41  1  0
 40 42  1  0
 40 43  1  0
 43 44  1  0
 43 45  1  0
 29 46  1  0
 46 47  1  0
 47 48  1  0
 47 49  1  0
 46 50  2  0
 50 51  1  0
 14 52  2  0
 52 53  1  0
  6 54  1  0
 54 55  1  0
 54 56  2  0
 56 57  1  0
 56  2  1  0
 52  7  1  0
 50 15  1  0
 25 16  1  0
 43 30  1  0
M  CHG  1  50   1
M  END
>  <score>  (416) 
5.36938

$$$$

     RDKit          3D

 49 52  0  0  0  0  0  0  0  0999 V2000
    9.9637   -2.2532    3.0332 H   0  0  0  0  0  0  0  0  0  0  0  0
    9.1101   -2.0536    2.6176 O   0  0  0  0  0  0  0  0  0  0  0  0
    9.3280   -1.7944    1.3059 C   0  0  0  0  0  0  0  0  0  0  0  0
    8.4646   -1.4081    0.5303 O   0  0  0  0  0  0  0  0  0  0  0  0
   10.6676   -1.9859    0.7693 C   0  0  0  0  0  0  0  0  0  0  0  0
   10.7609   -1.6290   -0.2389 H   0  0  0  0  0  0  0  0  0  0  0  0
   11.7625   -2.5440    1.4081 C   0  0  0  0  0  0  0  0  0  0  0  0
   11.6809   -2.8663    2.4506 H   0  0  0  0  0  0  0  0  0  0  0  0
   12.9997   -2.6819    0.7474 N   0  0  0  0  0  0  0  0  0  0  0  0
   13.2629   -3.0065   -0.5803 C   0  0  0  0  0  0  0  0  0  0  0  0
   12.4041   -3.1008   -1.4545 O   0  0  0  0  0  0  0  0  0  0  0  0
   14.7883   -3.2351   -0.7747 C   0  0  1  0  0  0  0  0  0  0  0  0
   15.1631   -4.6999   -1.0654 C   0  0  0  0  0  0  0  0  0  0  0  0
   16.3866   -5.2230   -0.6025 C   0  0  0  0  0  0  0  0  0  0  0  0
   17.0711   -4.5766   -0.0606 H   0  0  0  0  0  0  0  0  0  0  0  0
   16.7313   -6.5674   -0.8022 C   0  0  0  0  0  0  0  0  0  0  0  0
   17.6709   -6.9533   -0.4156 H   0  0  0  0  0  0  0  0  0  0  0  0
   15.8572   -7.4221   -1.4771 C   0  0  0  0  0  0  0  0  0  0  0  0
   16.1106   -8.4705   -1.6135 H   0  0  0  0  0  0  0  0  0  0  0  0
   14.6451   -6.9226   -1.9630 C   0  0  0  0  0  0  0  0  0  0  0  0
   13.9666   -7.5896   -2.4881 H   0  0  0  0  0  0  0  0  0  0  0  0
   14.3033   -5.5728   -1.7636 C   0  0  0  0  0  0  0  0  0  0  0  0
   13.3526   -5.2077   -2.1396 H   0  0  0  0  0  0  0  0  0  0  0  0
   15.3652   -2.2306   -1.7775 C   0  0  0  0  0  0  0  0  0  0  0  0
   15.9369   -2.6368   -2.9962 C   0  0  0  0  0  0  0  0  0  0  0  0
   15.9984   -3.6947   -3.2416 H   0  0  0  0  0  0  0  0  0  0  0  0
   16.4234   -1.6869   -3.9043 C   0  0  0  0  0  0  0  0  0  0  0  0
   16.8639   -2.0069   -4.8427 H   0  0  0  0  0  0  0  0  0  0  0  0
   16.3338   -0.3192   -3.6122 C   0  0  0  0  0  0  0  0  0  0  0  0
   16.7174    0.4187   -4.3087 H   0  0  0  0  0  0  0  0  0  0  0  0
   15.7756    0.1226   -2.4073 C   0  0  0  0  0  0  0  0  0  0  0  0
   15.6933    1.5699   -2.0967 C   0  0  0  0  0  0  0  0  0  0  0  0
   15.8751    2.5455   -3.0916 C   0  0  0  0  0  0  0  0  0  0  0  0
   16.0619    2.2103   -4.1058 H   0  0  0  0  0  0  0  0  0  0  0  0
   15.8217    3.8721   -2.8568 N   0  0  0  0  0  0  0  0  0  0  0  0
   15.5873    4.2898   -1.6028 C   0  0  0  0  0  0  0  0  0  0  0  0
   15.5580    5.3570   -1.3927 H   0  0  0  0  0  0  0  0  0  0  0  0
   15.3800    3.3908   -0.5543 C   0  0  0  0  0  0  0  0  0  0  0  0
   15.1770    3.7763    0.4383 H   0  0  0  0  0  0  0  0  0  0  0  0
   15.4403    2.0162   -0.7990 C   0  0  0  0  0  0  0  0  0  0  0  0
   15.3239    1.2875   -0.0038 H   0  0  0  0  0  0  0  0  0  0  0  0
   15.3029   -0.8460   -1.5038 C   0  0  0  0  0  0  0  0  0  0  0  0
   14.8649   -0.5075   -0.5708 H   0  0  0  0  0  0  0  0  0  0  0  0
   15.2170   -2.9066    0.6014 N   0  0  0  0  0  4  0  0  0  0  0  0
   16.1885   -2.9383    0.9184 H   0  0  0  0  0  0  0  0  0  0  0  0
   14.2217   -2.6500    1.3834 C   0  0  0  0  0  0  0  0  0  0  0  0
   14.4096   -2.3649    2.7022 N   0  0  0  0  0  0  0  0  0  0  0  0
   13.6179   -2.0740    3.2739 H   0  0  0  0  0  0  0  0  0  0  0  0
   15.3570   -2.3523    3.0792 H   0  0  0  0  0  0  0  0  0  0  0  0
  1  2  1  0
  2  3  1  0
  3  4  2  0
  3  5  1  0
  5  6  1  0
  5  7  2  3
  7  8  1  0
  7  9  1  0
  9 10  1  0
 10 11  2  0
 10 12  1  0
 12 13  1  6
 13 14  2  0
 14 15  1  0
 14 16  1  0
 16 17  1  0
 16 18  2  0
 18 19  1  0
 18 20  1  0
 20 21  1  0
 20 22  2  0
 22 23  1  0
 12 24  1  0
 24 25  2  0
 25 26  1  0
 25 27  1  0
 27 28  1  0
 27 29  2  0
 29 30  1  0
 29 31  1  0
 31 32  1  0
 32 33  2  0
 33 34  1  0
 33 35  1  0
 35 36  2  0
 36 37  1  0
 36 38  1  0
 38 39  1  0
 38 40  2  0
 40 41  1  0
 31 42  2  0
 42 43  1  0
 12 44  1  0
 44 45  1  0
 44 46  2  0
 46 47  1  0
 47 48  1  0
 47 49  1  0
 46  9  1  0
 22 13  1  0
 42 24  1  0
 40 32  1  0
M  CHG  1  44   1
M  END
>  <score>  (417) 
5.36799

$$$$

     RDKit          3D

 62 66  0  0  0  0  0  0  0  0999 V2000
   15.5174    5.3267   -1.4193 H   0  0  0  0  0  0  0  0  0  0  0  0
   15.5952    4.2606   -1.6104 C   0  0  0  0  0  0  0  0  0  0  0  0
   15.8405    3.8477   -2.8628 N   0  0  0  0  0  0  0  0  0  0  0  0
   15.9235    2.5237   -3.0900 C   0  0  0  0  0  0  0  0  0  0  0  0
   16.1207    2.1914   -4.1038 H   0  0  0  0  0  0  0  0  0  0  0  0
   15.7603    1.5519   -2.0891 C   0  0  0  0  0  0  0  0  0  0  0  0
   15.8457    0.1125   -2.4064 C   0  0  0  0  0  0  0  0  0  0  0  0
   16.3599   -0.3227   -3.6363 C   0  0  0  0  0  0  0  0  0  0  0  0
   16.6987    0.4090   -4.3621 H   0  0  0  0  0  0  0  0  0  0  0  0
   16.4427   -1.6853   -3.9364 C   0  0  0  0  0  0  0  0  0  0  0  0
   16.8448   -1.9965   -4.8948 H   0  0  0  0  0  0  0  0  0  0  0  0
   16.0034   -2.6348   -3.0099 C   0  0  0  0  0  0  0  0  0  0  0  0
   16.0723   -3.6915   -3.2514 H   0  0  0  0  0  0  0  0  0  0  0  0
   15.4681   -2.2314   -1.7777 C   0  0  0  0  0  0  0  0  0  0  0  0
   14.8958   -3.2375   -0.7945 C   0  0  2  0  0  0  0  0  0  0  0  0
   15.2904   -4.6831   -1.0696 C   0  0  0  0  0  0  0  0  0  0  0  0
   16.5033   -5.2261   -0.6111 C   0  0  0  0  0  0  0  0  0  0  0  0
   17.2128   -4.6007   -0.0760 H   0  0  0  0  0  0  0  0  0  0  0  0
   16.8004   -6.5798   -0.8169 C   0  0  0  0  0  0  0  0  0  0  0  0
   17.7303   -6.9923   -0.4366 H   0  0  0  0  0  0  0  0  0  0  0  0
   15.8928   -7.4021   -1.4952 C   0  0  0  0  0  0  0  0  0  0  0  0
   16.1114   -8.4553   -1.6463 H   0  0  0  0  0  0  0  0  0  0  0  0
   14.6969   -6.8665   -1.9801 C   0  0  0  0  0  0  0  0  0  0  0  0
   13.9776   -7.4901   -2.5029 H   0  0  0  0  0  0  0  0  0  0  0  0
   14.4060   -5.5171   -1.7745 C   0  0  0  0  0  0  0  0  0  0  0  0
   13.4696   -5.1167   -2.1489 H   0  0  0  0  0  0  0  0  0  0  0  0
   13.3637   -3.0992   -0.7017 C   0  0  0  0  0  0  0  0  0  0  0  0
   12.5736   -3.2696   -1.6372 O   0  0  0  0  0  0  0  0  0  0  0  0
   12.9843   -2.8292    0.6036 N   0  0  0  0  0  0  0  0  0  0  0  0
   11.6594   -3.0597    1.1397 N   0  0  0  0  0  0  0  0  0  0  0  0
   11.3713   -2.5336    2.4697 C   0  0  0  0  0  0  0  0  0  0  0  0
   11.8201   -3.1746    3.2290 H   0  0  0  0  0  0  0  0  0  0  0  0
   11.8329   -1.5522    2.5377 H   0  0  0  0  0  0  0  0  0  0  0  0
    9.8495   -2.4600    2.6067 C   0  0  0  0  0  0  0  0  0  0  0  0
    9.5256   -1.4882    2.9870 H   0  0  0  0  0  0  0  0  0  0  0  0
    9.4954   -3.2304    3.2969 H   0  0  0  0  0  0  0  0  0  0  0  0
    9.2901   -2.7158    1.2133 C   0  0  1  0  0  0  0  0  0  0  0  0
    8.8118   -3.6990    1.2243 H   0  0  0  0  0  0  0  0  0  0  0  0
    8.2957   -1.6870    0.8249 N   0  0  0  0  0  0  0  0  0  0  0  0
    8.8469   -0.3284    0.6382 C   0  0  0  0  0  0  0  0  0  0  0  0
    9.3798   -0.2709   -0.3188 H   0  0  0  0  0  0  0  0  0  0  0  0
    9.5466   -0.0848    1.4447 H   0  0  0  0  0  0  0  0  0  0  0  0
    8.0482    0.4210    0.6382 H   0  0  0  0  0  0  0  0  0  0  0  0
    7.3830   -2.1283   -0.2452 C   0  0  0  0  0  0  0  0  0  0  0  0
    7.9471   -2.3436   -1.1604 H   0  0  0  0  0  0  0  0  0  0  0  0
    6.6363   -1.3590   -0.4660 H   0  0  0  0  0  0  0  0  0  0  0  0
    6.8536   -3.0365    0.0628 H   0  0  0  0  0  0  0  0  0  0  0  0
   10.5036   -2.7787    0.2747 C   0  0  0  0  0  0  0  0  0  0  0  0
   10.6550   -1.8232   -0.2330 H   0  0  0  0  0  0  0  0  0  0  0  0
   10.3665   -3.5501   -0.4890 H   0  0  0  0  0  0  0  0  0  0  0  0
   14.1842   -2.7174    1.3175 C   0  0  0  0  0  0  0  0  0  0  0  0
   14.4370   -2.4708    2.6406 N   0  0  0  0  0  0  0  0  0  0  0  0
   13.6773   -2.1362    3.2294 H   0  0  0  0  0  0  0  0  0  0  0  0
   15.3976   -2.2109    2.8710 H   0  0  0  0  0  0  0  0  0  0  0  0
   15.2373   -2.8807    0.5888 N   0  0  0  0  0  4  0  0  0  0  0  0
   16.1725   -2.9970    0.9809 H   0  0  0  0  0  0  0  0  0  0  0  0
   15.3944   -0.8546   -1.4951 C   0  0  0  0  0  0  0  0  0  0  0  0
   14.9633   -0.5294   -0.5525 H   0  0  0  0  0  0  0  0  0  0  0  0
   15.5152    1.9949   -0.7862 C   0  0  0  0  0  0  0  0  0  0  0  0
   15.4053    1.2824    0.0259 H   0  0  0  0  0  0  0  0  0  0  0  0
   15.4316    3.3657   -0.5505 C   0  0  0  0  0  0  0  0  0  0  0  0
   15.2404    3.7390    0.4489 H   0  0  0  0  0  0  0  0  0  0  0  0
  1  2  1  0
  2  3  2  0
  3  4  1  0
  4  5  1  0
  4  6  2  0
  6  7  1  0
  7  8  2  0
  8  9  1  0
  8 10  1  0
 10 11  1  0
 10 12  2  0
 12 13  1  0
 12 14  1  0
 15 14  1  6
 15 16  1  0
 16 17  2  0
 17 18  1  0
 17 19  1  0
 19 20  1  0
 19 21  2  0
 21 22  1  0
 21 23  1  0
 23 24  1  0
 23 25  2  0
 25 26  1  0
 15 27  1  0
 27 28  2  0
 27 29  1  0
 29 30  1  0
 30 31  1  0
 31 32  1  0
 31 33  1  0
 31 34  1  0
 34 35  1  0
 34 36  1  0
 34 37  1  0
 37 38  1  1
 37 39  1  0
 39 40  1  0
 40 41  1  0
 40 42  1  0
 40 43  1  0
 39 44  1  0
 44 45  1  0
 44 46  1  0
 44 47  1  0
 37 48  1  0
 48 49  1  0
 48 50  1  0
 29 51  1  0
 51 52  1  0
 52 53  1  0
 52 54  1  0
 51 55  2  0
 55 56  1  0
 14 57  2  0
 57 58  1  0
  6 59  1  0
 59 60  1  0
 59 61  2  0
 61 62  1  0
 61  2  1  0
 57  7  1  0
 55 15  1  0
 25 16  1  0
 48 30  1  0
M  CHG  1  55   1
M  END
>  <score>  (418) 
5.3676

$$$$

     RDKit          3D

 54 58  0  0  0  0  0  0  0  0999 V2000
   12.4938   -5.4867    2.9599 H   0  0  0  0  0  0  0  0  0  0  0  0
   12.4874   -4.6844    2.4084 O   0  0  0  0  0  0  0  0  0  0  0  0
   11.3558   -3.9613    2.6528 C   0  0  0  0  0  0  0  0  0  0  0  0
   10.4577   -4.4637    3.5983 C   0  0  0  0  0  0  0  0  0  0  0  0
   10.6832   -5.3924    4.1170 H   0  0  0  0  0  0  0  0  0  0  0  0
    9.2941   -3.7493    3.9155 C   0  0  0  0  0  0  0  0  0  0  0  0
    8.2008   -4.3378    5.1546 Cl  0  0  0  0  0  0  0  0  0  0  0  0
    9.0205   -2.5520    3.2416 C   0  0  0  0  0  0  0  0  0  0  0  0
    8.1215   -1.9905    3.4454 H   0  0  0  0  0  0  0  0  0  0  0  0
    9.9109   -2.0495    2.2942 C   0  0  0  0  0  0  0  0  0  0  0  0
    9.7275   -1.1046    1.7866 H   0  0  0  0  0  0  0  0  0  0  0  0
   11.0762   -2.7385    1.9881 C   0  0  0  0  0  0  0  0  0  0  0  0
   11.8552   -2.1177    1.0514 O   0  0  0  0  0  0  0  0  0  0  0  0
   13.0423   -2.7879    0.7015 N   0  0  0  0  0  0  0  0  0  0  0  0
   13.3612   -3.0905   -0.6020 C   0  0  0  0  0  0  0  0  0  0  0  0
   12.5489   -3.2072   -1.5206 O   0  0  0  0  0  0  0  0  0  0  0  0
   14.8818   -3.2500   -0.7223 C   0  0  1  0  0  0  0  0  0  0  0  0
   15.2547   -4.6854   -1.0324 C   0  0  0  0  0  0  0  0  0  0  0  0
   16.4710   -5.2215   -0.5888 C   0  0  0  0  0  0  0  0  0  0  0  0
   17.1695   -4.5904   -0.0457 H   0  0  0  0  0  0  0  0  0  0  0  0
   16.7764   -6.5663   -0.8103 C   0  0  0  0  0  0  0  0  0  0  0  0
   17.7119   -6.9673   -0.4328 H   0  0  0  0  0  0  0  0  0  0  0  0
   15.8727   -7.3843   -1.4999 C   0  0  0  0  0  0  0  0  0  0  0  0
   16.1039   -8.4317   -1.6644 H   0  0  0  0  0  0  0  0  0  0  0  0
   14.6683   -6.8526   -1.9724 C   0  0  0  0  0  0  0  0  0  0  0  0
   13.9562   -7.4763   -2.5053 H   0  0  0  0  0  0  0  0  0  0  0  0
   14.3643   -5.5096   -1.7417 C   0  0  0  0  0  0  0  0  0  0  0  0
   13.4202   -5.1084   -2.0979 H   0  0  0  0  0  0  0  0  0  0  0  0
   15.4241   -2.2367   -1.7189 C   0  0  0  0  0  0  0  0  0  0  0  0
   15.9536   -2.6435   -2.9534 C   0  0  0  0  0  0  0  0  0  0  0  0
   16.0088   -3.7013   -3.1892 H   0  0  0  0  0  0  0  0  0  0  0  0
   16.4034   -1.7040   -3.8856 C   0  0  0  0  0  0  0  0  0  0  0  0
   16.8185   -2.0234   -4.8357 H   0  0  0  0  0  0  0  0  0  0  0  0
   16.3251   -0.3421   -3.5950 C   0  0  0  0  0  0  0  0  0  0  0  0
   16.6817    0.3821   -4.3199 H   0  0  0  0  0  0  0  0  0  0  0  0
   15.7961    0.0981   -2.3772 C   0  0  0  0  0  0  0  0  0  0  0  0
   15.7349    1.5352   -2.0810 C   0  0  0  0  0  0  0  0  0  0  0  0
   15.9208    2.4969   -3.0902 C   0  0  0  0  0  0  0  0  0  0  0  0
   16.1268    2.1646   -4.1033 H   0  0  0  0  0  0  0  0  0  0  0  0
   15.8485    3.8211   -2.8669 N   0  0  0  0  0  0  0  0  0  0  0  0
   15.5951    4.2381   -1.6174 C   0  0  0  0  0  0  0  0  0  0  0  0
   15.5131    5.3040   -1.4329 H   0  0  0  0  0  0  0  0  0  0  0  0
   15.4296    3.3492   -0.5518 C   0  0  0  0  0  0  0  0  0  0  0  0
   15.2429    3.7208    0.4478 H   0  0  0  0  0  0  0  0  0  0  0  0
   15.5051    1.9805   -0.7801 C   0  0  0  0  0  0  0  0  0  0  0  0
   15.4005    1.2698    0.0347 H   0  0  0  0  0  0  0  0  0  0  0  0
   15.3315   -0.8570   -1.4558 C   0  0  0  0  0  0  0  0  0  0  0  0
   14.8854   -0.5201   -0.5239 H   0  0  0  0  0  0  0  0  0  0  0  0
   15.2640   -2.9274    0.6648 N   0  0  0  0  0  4  0  0  0  0  0  0
   16.2290   -2.8999    0.9980 H   0  0  0  0  0  0  0  0  0  0  0  0
   14.2335   -2.6330    1.3808 C   0  0  0  0  0  0  0  0  0  0  0  0
   14.4177   -2.1880    2.6586 N   0  0  0  0  0  0  0  0  0  0  0  0
   13.6178   -2.1753    3.2864 H   0  0  0  0  0  0  0  0  0  0  0  0
   15.3589   -2.2446    3.0435 H   0  0  0  0  0  0  0  0  0  0  0  0
  1  2  1  0
  2  3  1  0
  3  4  2  0
  4  5  1  0
  4  6  1  0
  6  7  1  0
  6  8  2  0
  8  9  1  0
  8 10  1  0
 10 11  1  0
 10 12  2  0
 12 13  1  0
 13 14  1  0
 14 15  1  0
 15 16  2  0
 15 17  1  0
 17 18  1  6
 18 19  2  0
 19 20  1  0
 19 21  1  0
 21 22  1  0
 21 23  2  0
 23 24  1  0
 23 25  1  0
 25 26  1  0
 25 27  2  0
 27 28  1  0
 17 29  1  0
 29 30  2  0
 30 31  1  0
 30 32  1  0
 32 33  1  0
 32 34  2  0
 34 35  1  0
 34 36  1  0
 36 37  1  0
 37 38  2  0
 38 39  1  0
 38 40  1  0
 40 41  2  0
 41 42  1  0
 41 43  1  0
 43 44  1  0
 43 45  2  0
 45 46  1  0
 36 47  2  0
 47 48  1  0
 17 49  1  0
 49 50  1  0
 49 51  2  0
 51 52  1  0
 52 53  1  0
 52 54  1  0
 12  3  1  0
 51 14  1  0
 27 18  1  0
 47 29  1  0
 45 37  1  0
M  CHG  1  49   1
M  END
>  <score>  (419) 
5.36443

$$$$

     RDKit          3D

 52 56  0  0  0  0  0  0  0  0999 V2000
   15.5693    5.3720   -1.3873 H   0  0  0  0  0  0  0  0  0  0  0  0
   15.5828    4.3031   -1.5954 C   0  0  0  0  0  0  0  0  0  0  0  0
   15.8195    3.8806   -2.8472 N   0  0  0  0  0  0  0  0  0  0  0  0
   15.8635    2.5527   -3.0880 C   0  0  0  0  0  0  0  0  0  0  0  0
   16.0474    2.2217   -4.1054 H   0  0  0  0  0  0  0  0  0  0  0  0
   15.6864    1.5713   -2.0958 C   0  0  0  0  0  0  0  0  0  0  0  0
   15.7703    0.1185   -2.4107 C   0  0  0  0  0  0  0  0  0  0  0  0
   16.3492   -0.3217   -3.6098 C   0  0  0  0  0  0  0  0  0  0  0  0
   16.7234    0.4097   -4.3201 H   0  0  0  0  0  0  0  0  0  0  0  0
   16.4314   -1.6900   -3.9070 C   0  0  0  0  0  0  0  0  0  0  0  0
   16.8639   -2.0082   -4.8513 H   0  0  0  0  0  0  0  0  0  0  0  0
   15.9427   -2.6447   -3.0031 C   0  0  0  0  0  0  0  0  0  0  0  0
   16.0033   -3.7003   -3.2568 H   0  0  0  0  0  0  0  0  0  0  0  0
   15.3762   -2.2436   -1.7801 C   0  0  0  0  0  0  0  0  0  0  0  0
   14.8046   -3.2474   -0.7781 C   0  0  2  0  0  0  0  0  0  0  0  0
   15.1686   -4.7128   -1.0689 C   0  0  0  0  0  0  0  0  0  0  0  0
   16.3904   -5.2353   -0.6105 C   0  0  0  0  0  0  0  0  0  0  0  0
   17.0658   -4.5849   -0.0627 H   0  0  0  0  0  0  0  0  0  0  0  0
   16.7285   -6.5807   -0.8031 C   0  0  0  0  0  0  0  0  0  0  0  0
   17.6716   -6.9554   -0.4169 H   0  0  0  0  0  0  0  0  0  0  0  0
   15.8533   -7.4393   -1.4728 C   0  0  0  0  0  0  0  0  0  0  0  0
   16.1206   -8.4854   -1.6116 H   0  0  0  0  0  0  0  0  0  0  0  0
   14.6430   -6.9367   -1.9616 C   0  0  0  0  0  0  0  0  0  0  0  0
   13.9727   -7.6104   -2.4880 H   0  0  0  0  0  0  0  0  0  0  0  0
   14.3024   -5.5856   -1.7650 C   0  0  0  0  0  0  0  0  0  0  0  0
   13.3528   -5.2300   -2.1547 H   0  0  0  0  0  0  0  0  0  0  0  0
   13.2926   -3.0117   -0.5999 C   0  0  0  0  0  0  0  0  0  0  0  0
   12.4411   -3.0982   -1.4819 O   0  0  0  0  0  0  0  0  0  0  0  0
   13.0039   -2.6997    0.7159 N   0  0  0  0  0  0  0  0  0  0  0  0
   11.7280   -2.4662    1.2666 C   0  0  0  0  0  0  0  0  0  0  0  0
   11.3053   -3.2479    2.3483 C   0  0  0  0  0  0  0  0  0  0  0  0
   11.9735   -4.0081    2.7473 H   0  0  0  0  0  0  0  0  0  0  0  0
   10.0271   -3.0687    2.8937 C   0  0  0  0  0  0  0  0  0  0  0  0
    9.6858   -3.6837    3.7172 H   0  0  0  0  0  0  0  0  0  0  0  0
    9.1645   -2.0991    2.3802 C   0  0  0  0  0  0  0  0  0  0  0  0
    7.9264   -1.9259    2.8979 F   0  0  0  0  0  0  0  0  0  0  0  0
    9.5909   -1.3076    1.3170 C   0  0  0  0  0  0  0  0  0  0  0  0
    8.9370   -0.5425    0.9204 H   0  0  0  0  0  0  0  0  0  0  0  0
   10.8579   -1.4788    0.7553 C   0  0  0  0  0  0  0  0  0  0  0  0
   11.2279   -0.6713   -0.2672 F   0  0  0  0  0  0  0  0  0  0  0  0
   14.2106   -2.6604    1.3810 C   0  0  0  0  0  0  0  0  0  0  0  0
   14.4004   -2.3522    2.6990 N   0  0  0  0  0  0  0  0  0  0  0  0
   15.3401   -2.3695    3.0978 H   0  0  0  0  0  0  0  0  0  0  0  0
   13.6005   -2.0599    3.2577 H   0  0  0  0  0  0  0  0  0  0  0  0
   15.2103   -2.9099    0.6007 N   0  0  0  0  0  4  0  0  0  0  0  0
   16.1816   -2.9143    0.9052 H   0  0  0  0  0  0  0  0  0  0  0  0
   15.2944   -0.8583   -1.5153 C   0  0  0  0  0  0  0  0  0  0  0  0
   14.8701   -0.5230   -0.5762 H   0  0  0  0  0  0  0  0  0  0  0  0
   15.4379    2.0251   -0.7970 C   0  0  0  0  0  0  0  0  0  0  0  0
   15.2989    1.3063    0.0017 H   0  0  0  0  0  0  0  0  0  0  0  0
   15.3726    3.4010   -0.5519 C   0  0  0  0  0  0  0  0  0  0  0  0
   15.1678    3.7865    0.4398 H   0  0  0  0  0  0  0  0  0  0  0  0
  1  2  1  0
  2  3  2  0
  3  4  1  0
  4  5  1  0
  4  6  2  0
  6  7  1  0
  7  8  2  0
  8  9  1  0
  8 10  1  0
 10 11  1  0
 10 12  2  0
 12 13  1  0
 12 14  1  0
 15 14  1  6
 15 16  1  0
 16 17  2  0
 17 18  1  0
 17 19  1  0
 19 20  1  0
 19 21  2  0
 21 22  1  0
 21 23  1  0
 23 24  1  0
 23 25  2  0
 25 26  1  0
 15 27  1  0
 27 28  2  0
 27 29  1  0
 29 30  1  0
 30 31  2  0
 31 32  1  0
 31 33  1  0
 33 34  1  0
 33 35  2  0
 35 36  1  0
 35 37  1  0
 37 38  1  0
 37 39  2  0
 39 40  1  0
 29 41  1  0
 41 42  1  0
 42 43  1  0
 42 44  1  0
 41 45  2  0
 45 46  1  0
 14 47  2  0
 47 48  1  0
  6 49  1  0
 49 50  1  0
 49 51  2  0
 51 52  1  0
 51  2  1  0
 47  7  1  0
 45 15  1  0
 25 16  1  0
 39 30  1  0
M  CHG  1  45   1
M  END
>  <score>  (420) 
5.36347

$$$$

     RDKit          3D

 65 69  0  0  0  0  0  0  0  0999 V2000
   15.5218    5.3267   -1.4128 H   0  0  0  0  0  0  0  0  0  0  0  0
   15.6016    4.2604   -1.6082 C   0  0  0  0  0  0  0  0  0  0  0  0
   15.8497    3.8450   -2.8595 N   0  0  0  0  0  0  0  0  0  0  0  0
   15.9381    2.5203   -3.0892 C   0  0  0  0  0  0  0  0  0  0  0  0
   16.1313    2.1877   -4.1039 H   0  0  0  0  0  0  0  0  0  0  0  0
   15.7755    1.5493   -2.0878 C   0  0  0  0  0  0  0  0  0  0  0  0
   15.8493    0.1076   -2.4001 C   0  0  0  0  0  0  0  0  0  0  0  0
   16.3560   -0.3426   -3.6269 C   0  0  0  0  0  0  0  0  0  0  0  0
   16.7034    0.3802   -4.3586 H   0  0  0  0  0  0  0  0  0  0  0  0
   16.4247   -1.7117   -3.9103 C   0  0  0  0  0  0  0  0  0  0  0  0
   16.8251   -2.0402   -4.8645 H   0  0  0  0  0  0  0  0  0  0  0  0
   15.9799   -2.6490   -2.9675 C   0  0  0  0  0  0  0  0  0  0  0  0
   16.0416   -3.7083   -3.2014 H   0  0  0  0  0  0  0  0  0  0  0  0
   15.4533   -2.2274   -1.7308 C   0  0  0  0  0  0  0  0  0  0  0  0
   14.8894   -3.2068   -0.7019 C   0  0  2  0  0  0  0  0  0  0  0  0
   15.2573   -4.6529   -1.0032 C   0  0  0  0  0  0  0  0  0  0  0  0
   16.4779   -5.2014   -0.5728 C   0  0  0  0  0  0  0  0  0  0  0  0
   17.1884   -4.5782   -0.0364 H   0  0  0  0  0  0  0  0  0  0  0  0
   16.7811   -6.5469   -0.8150 C   0  0  0  0  0  0  0  0  0  0  0  0
   17.7199   -6.9617   -0.4590 H   0  0  0  0  0  0  0  0  0  0  0  0
   15.8711   -7.3567   -1.5040 C   0  0  0  0  0  0  0  0  0  0  0  0
   16.0926   -8.4061   -1.6750 H   0  0  0  0  0  0  0  0  0  0  0  0
   14.6704   -6.8119   -1.9698 C   0  0  0  0  0  0  0  0  0  0  0  0
   13.9619   -7.4302   -2.5123 H   0  0  0  0  0  0  0  0  0  0  0  0
   14.3713   -5.4681   -1.7264 C   0  0  0  0  0  0  0  0  0  0  0  0
   13.4376   -5.0530   -2.0933 H   0  0  0  0  0  0  0  0  0  0  0  0
   13.3629   -3.0141   -0.5418 C   0  0  0  0  0  0  0  0  0  0  0  0
   12.5098   -3.1997   -1.4067 O   0  0  0  0  0  0  0  0  0  0  0  0
   13.0732   -2.6415    0.7598 N   0  0  0  0  0  0  0  0  0  0  0  0
   11.7911   -2.2444    1.2566 O   0  0  0  0  0  0  0  0  0  0  0  0
   10.9981   -3.3735    1.6272 C   0  0  0  0  0  0  0  0  0  0  0  0
   10.9540   -4.0833    0.7952 H   0  0  0  0  0  0  0  0  0  0  0  0
   11.4601   -3.8873    2.4772 H   0  0  0  0  0  0  0  0  0  0  0  0
    9.5745   -2.9531    1.9967 C   0  0  0  0  0  0  0  0  0  0  0  0
    9.1487   -2.3099    1.2224 H   0  0  0  0  0  0  0  0  0  0  0  0
    9.5868   -2.3955    2.9387 H   0  0  0  0  0  0  0  0  0  0  0  0
    8.7261   -4.2139    2.1413 C   0  0  0  0  0  0  0  0  0  0  0  0
    8.7040   -4.7503    1.1862 H   0  0  0  0  0  0  0  0  0  0  0  0
    7.6985   -3.9696    2.4249 H   0  0  0  0  0  0  0  0  0  0  0  0
    9.3505   -5.0664    3.1608 N   0  0  0  0  0  0  0  0  0  0  0  0
    9.0529   -6.5094    3.1418 C   0  0  0  0  0  0  0  0  0  0  0  0
    9.9168   -7.0492    3.5587 H   0  0  0  0  0  0  0  0  0  0  0  0
    8.9023   -6.8403    2.1078 H   0  0  0  0  0  0  0  0  0  0  0  0
    7.8012   -6.8287    3.9819 C   0  0  0  0  0  0  0  0  0  0  0  0
    7.7211   -7.9171    4.0804 H   0  0  0  0  0  0  0  0  0  0  0  0
    6.8993   -6.4683    3.4741 H   0  0  0  0  0  0  0  0  0  0  0  0
    7.8784   -6.2293    5.2896 O   0  0  0  0  0  0  0  0  0  0  0  0
    8.1317   -4.8113    5.2516 C   0  0  0  0  0  0  0  0  0  0  0  0
    7.3071   -4.2985    4.7482 H   0  0  0  0  0  0  0  0  0  0  0  0
    8.1738   -4.4256    6.2698 H   0  0  0  0  0  0  0  0  0  0  0  0
    9.4535   -4.5246    4.5240 C   0  0  0  0  0  0  0  0  0  0  0  0
    9.6650   -3.4468    4.5151 H   0  0  0  0  0  0  0  0  0  0  0  0
   10.2817   -5.0286    5.0394 H   0  0  0  0  0  0  0  0  0  0  0  0
   14.2812   -2.5275    1.4217 C   0  0  0  0  0  0  0  0  0  0  0  0
   14.5025   -2.1360    2.7169 N   0  0  0  0  0  0  0  0  0  0  0  0
   13.7108   -2.0585    3.3543 H   0  0  0  0  0  0  0  0  0  0  0  0
   15.4401   -2.2580    3.0950 H   0  0  0  0  0  0  0  0  0  0  0  0
   15.2910   -2.8506    0.6764 N   0  0  0  0  0  4  0  0  0  0  0  0
   16.2559   -2.8845    1.0092 H   0  0  0  0  0  0  0  0  0  0  0  0
   15.3959   -0.8460   -1.4750 C   0  0  0  0  0  0  0  0  0  0  0  0
   14.9778   -0.4994   -0.5358 H   0  0  0  0  0  0  0  0  0  0  0  0
   15.5337    1.9926   -0.7846 C   0  0  0  0  0  0  0  0  0  0  0  0
   15.4290    1.2749    0.0244 H   0  0  0  0  0  0  0  0  0  0  0  0
   15.4433    3.3642   -0.5489 C   0  0  0  0  0  0  0  0  0  0  0  0
   15.2528    3.7443    0.4473 H   0  0  0  0  0  0  0  0  0  0  0  0
  1  2  1  0
  2  3  2  0
  3  4  1  0
  4  5  1  0
  4  6  2  0
  6  7  1  0
  7  8  2  0
  8  9  1  0
  8 10  1  0
 10 11  1  0
 10 12  2  0
 12 13  1  0
 12 14  1  0
 15 14  1  6
 15 16  1  0
 16 17  2  0
 17 18  1  0
 17 19  1  0
 19 20  1  0
 19 21  2  0
 21 22  1  0
 21 23  1  0
 23 24  1  0
 23 25  2  0
 25 26  1  0
 15 27  1  0
 27 28  2  0
 27 29  1  0
 29 30  1  0
 30 31  1  0
 31 32  1  0
 31 33  1  0
 31 34  1  0
 34 35  1  0
 34 36  1  0
 34 37  1  0
 37 38  1  0
 37 39  1  0
 37 40  1  0
 40 41  1  0
 41 42  1  0
 41 43  1  0
 41 44  1  0
 44 45  1  0
 44 46  1  0
 44 47  1  0
 47 48  1  0
 48 49  1  0
 48 50  1  0
 48 51  1  0
 51 52  1  0
 51 53  1  0
 29 54  1  0
 54 55  1  0
 55 56  1  0
 55 57  1  0
 54 58  2  0
 58 59  1  0
 14 60  2  0
 60 61  1  0
  6 62  1  0
 62 63  1  0
 62 64  2  0
 64 65  1  0
 64  2  1  0
 60  7  1  0
 58 15  1  0
 25 16  1  0
 51 40  1  0
M  CHG  1  58   1
M  END
>  <score>  (421) 
5.35737

$$$$

     RDKit          3D

 52 56  0  0  0  0  0  0  0  0999 V2000
   15.5692    5.3720   -1.3871 H   0  0  0  0  0  0  0  0  0  0  0  0
   15.5829    4.3030   -1.5957 C   0  0  0  0  0  0  0  0  0  0  0  0
   15.8193    3.8807   -2.8478 N   0  0  0  0  0  0  0  0  0  0  0  0
   15.8638    2.5525   -3.0880 C   0  0  0  0  0  0  0  0  0  0  0  0
   16.0481    2.2207   -4.1049 H   0  0  0  0  0  0  0  0  0  0  0  0
   15.6864    1.5710   -2.0963 C   0  0  0  0  0  0  0  0  0  0  0  0
   15.7696    0.1181   -2.4107 C   0  0  0  0  0  0  0  0  0  0  0  0
   16.3486   -0.3216   -3.6096 C   0  0  0  0  0  0  0  0  0  0  0  0
   16.7230    0.4107   -4.3189 H   0  0  0  0  0  0  0  0  0  0  0  0
   16.4318   -1.6898   -3.9070 C   0  0  0  0  0  0  0  0  0  0  0  0
   16.8640   -2.0077   -4.8515 H   0  0  0  0  0  0  0  0  0  0  0  0
   15.9444   -2.6451   -3.0033 C   0  0  0  0  0  0  0  0  0  0  0  0
   16.0034   -3.7013   -3.2558 H   0  0  0  0  0  0  0  0  0  0  0  0
   15.3803   -2.2445   -1.7799 C   0  0  0  0  0  0  0  0  0  0  0  0
   14.8109   -3.2506   -0.7803 C   0  0  2  0  0  0  0  0  0  0  0  0
   15.1707   -4.7147   -1.0721 C   0  0  0  0  0  0  0  0  0  0  0  0
   16.3914   -5.2365   -0.6116 C   0  0  0  0  0  0  0  0  0  0  0  0
   17.0652   -4.5853   -0.0625 H   0  0  0  0  0  0  0  0  0  0  0  0
   16.7291   -6.5811   -0.8039 C   0  0  0  0  0  0  0  0  0  0  0  0
   17.6714   -6.9562   -0.4164 H   0  0  0  0  0  0  0  0  0  0  0  0
   15.8533   -7.4390   -1.4734 C   0  0  0  0  0  0  0  0  0  0  0  0
   16.1201   -8.4850   -1.6114 H   0  0  0  0  0  0  0  0  0  0  0  0
   14.6428   -6.9369   -1.9623 C   0  0  0  0  0  0  0  0  0  0  0  0
   13.9724   -7.6109   -2.4878 H   0  0  0  0  0  0  0  0  0  0  0  0
   14.3025   -5.5862   -1.7664 C   0  0  0  0  0  0  0  0  0  0  0  0
   13.3522   -5.2299   -2.1540 H   0  0  0  0  0  0  0  0  0  0  0  0
   13.3005   -3.0076   -0.6093 C   0  0  0  0  0  0  0  0  0  0  0  0
   12.4511   -3.0912   -1.4945 O   0  0  0  0  0  0  0  0  0  0  0  0
   13.0089   -2.6728    0.7028 N   0  0  0  0  0  0  0  0  0  0  0  0
   11.7551   -2.2596    1.2177 C   0  0  0  0  0  0  0  0  0  0  0  0
   11.0936   -1.1261    0.6972 C   0  0  0  0  0  0  0  0  0  0  0  0
   11.6651   -0.3675   -0.2698 F   0  0  0  0  0  0  0  0  0  0  0  0
    9.8404   -0.7497    1.1923 C   0  0  0  0  0  0  0  0  0  0  0  0
    9.3838    0.1537    0.8060 H   0  0  0  0  0  0  0  0  0  0  0  0
    9.2265   -1.4755    2.2181 C   0  0  0  0  0  0  0  0  0  0  0  0
    8.2793   -1.1459    2.6407 H   0  0  0  0  0  0  0  0  0  0  0  0
    9.8896   -2.5844    2.7488 C   0  0  0  0  0  0  0  0  0  0  0  0
    9.4452   -3.1574    3.5538 H   0  0  0  0  0  0  0  0  0  0  0  0
   11.1397   -2.9779    2.2623 C   0  0  0  0  0  0  0  0  0  0  0  0
   11.7223   -4.0841    2.7840 F   0  0  0  0  0  0  0  0  0  0  0  0
   14.2167   -2.6442    1.3723 C   0  0  0  0  0  0  0  0  0  0  0  0
   14.4052   -2.3323    2.6905 N   0  0  0  0  0  0  0  0  0  0  0  0
   13.5967   -2.0922    3.2612 H   0  0  0  0  0  0  0  0  0  0  0  0
   15.3413   -2.3652    3.0965 H   0  0  0  0  0  0  0  0  0  0  0  0
   15.2154   -2.9166    0.6000 N   0  0  0  0  0  4  0  0  0  0  0  0
   16.1859   -2.9157    0.9075 H   0  0  0  0  0  0  0  0  0  0  0  0
   15.2947   -0.8590   -1.5150 C   0  0  0  0  0  0  0  0  0  0  0  0
   14.8696   -0.5241   -0.5758 H   0  0  0  0  0  0  0  0  0  0  0  0
   15.4383    2.0247   -0.7978 C   0  0  0  0  0  0  0  0  0  0  0  0
   15.3001    1.3054    0.0003 H   0  0  0  0  0  0  0  0  0  0  0  0
   15.3730    3.4007   -0.5522 C   0  0  0  0  0  0  0  0  0  0  0  0
   15.1679    3.7857    0.4400 H   0  0  0  0  0  0  0  0  0  0  0  0
  1  2  1  0
  2  3  2  0
  3  4  1  0
  4  5  1  0
  4  6  2  0
  6  7  1  0
  7  8  2  0
  8  9  1  0
  8 10  1  0
 10 11  1  0
 10 12  2  0
 12 13  1  0
 12 14  1  0
 15 14  1  6
 15 16  1  0
 16 17  2  0
 17 18  1  0
 17 19  1  0
 19 20  1  0
 19 21  2  0
 21 22  1  0
 21 23  1  0
 23 24  1  0
 23 25  2  0
 25 26  1  0
 15 27  1  0
 27 28  2  0
 27 29  1  0
 29 30  1  0
 30 31  2  0
 31 32  1  0
 31 33  1  0
 33 34  1  0
 33 35  2  0
 35 36  1  0
 35 37  1  0
 37 38  1  0
 37 39  2  0
 39 40  1  0
 29 41  1  0
 41 42  1  0
 42 43  1  0
 42 44  1  0
 41 45  2  0
 45 46  1  0
 14 47  2  0
 47 48  1  0
  6 49  1  0
 49 50  1  0
 49 51  2  0
 51 52  1  0
 51  2  1  0
 47  7  1  0
 45 15  1  0
 25 16  1  0
 39 30  1  0
M  CHG  1  45   1
M  END
>  <score>  (422) 
5.35639

$$$$

     RDKit          3D

 57 61  0  0  0  0  0  0  0  0999 V2000
   15.5252    5.3217   -1.4117 H   0  0  0  0  0  0  0  0  0  0  0  0
   15.6010    4.2558   -1.6075 C   0  0  0  0  0  0  0  0  0  0  0  0
   15.8483    3.8444   -2.8599 N   0  0  0  0  0  0  0  0  0  0  0  0
   15.9378    2.5209   -3.0914 C   0  0  0  0  0  0  0  0  0  0  0  0
   16.1282    2.1914   -4.1075 H   0  0  0  0  0  0  0  0  0  0  0  0
   15.7812    1.5467   -2.0918 C   0  0  0  0  0  0  0  0  0  0  0  0
   15.8643    0.1072   -2.4110 C   0  0  0  0  0  0  0  0  0  0  0  0
   16.3723   -0.3364   -3.6402 C   0  0  0  0  0  0  0  0  0  0  0  0
   16.7148    0.3892   -4.3723 H   0  0  0  0  0  0  0  0  0  0  0  0
   16.4449   -1.7037   -3.9268 C   0  0  0  0  0  0  0  0  0  0  0  0
   16.8446   -2.0223   -4.8846 H   0  0  0  0  0  0  0  0  0  0  0  0
   15.9987   -2.6464   -2.9887 C   0  0  0  0  0  0  0  0  0  0  0  0
   16.0656   -3.7034   -3.2296 H   0  0  0  0  0  0  0  0  0  0  0  0
   15.4651   -2.2311   -1.7521 C   0  0  0  0  0  0  0  0  0  0  0  0
   14.8866   -3.2042   -0.7217 C   0  0  2  0  0  0  0  0  0  0  0  0
   15.2382   -4.6578   -1.0139 C   0  0  0  0  0  0  0  0  0  0  0  0
   16.4608   -5.2033   -0.5799 C   0  0  0  0  0  0  0  0  0  0  0  0
   17.1709   -4.5766   -0.0469 H   0  0  0  0  0  0  0  0  0  0  0  0
   16.7691   -6.5474   -0.8163 C   0  0  0  0  0  0  0  0  0  0  0  0
   17.7088   -6.9557   -0.4555 H   0  0  0  0  0  0  0  0  0  0  0  0
   15.8666   -7.3640   -1.5027 C   0  0  0  0  0  0  0  0  0  0  0  0
   16.0959   -8.4125   -1.6715 H   0  0  0  0  0  0  0  0  0  0  0  0
   14.6623   -6.8247   -1.9681 C   0  0  0  0  0  0  0  0  0  0  0  0
   13.9615   -7.4514   -2.5082 H   0  0  0  0  0  0  0  0  0  0  0  0
   14.3536   -5.4802   -1.7301 C   0  0  0  0  0  0  0  0  0  0  0  0
   13.4171   -5.0718   -2.1008 H   0  0  0  0  0  0  0  0  0  0  0  0
   13.3680   -2.9459   -0.5419 C   0  0  0  0  0  0  0  0  0  0  0  0
   12.4955   -3.0909   -1.3961 O   0  0  0  0  0  0  0  0  0  0  0  0
   13.1126   -2.4924    0.7383 N   0  0  0  0  0  0  0  0  0  0  0  0
   11.8873   -1.9157    1.2307 O   0  0  0  0  0  0  0  0  0  0  0  0
   11.1531   -2.6841    2.1054 C   0  0  0  0  0  0  0  0  0  0  0  0
   11.6547   -3.8814    2.6311 C   0  0  0  0  0  0  0  0  0  0  0  0
   12.6596   -4.1953    2.3808 H   0  0  0  0  0  0  0  0  0  0  0  0
   10.8819   -4.6811    3.4631 C   0  0  0  0  0  0  0  0  0  0  0  0
   11.2382   -5.6216    3.8622 H   0  0  0  0  0  0  0  0  0  0  0  0
    9.5966   -4.3009    3.8141 C   0  0  0  0  0  0  0  0  0  0  0  0
    8.9341   -5.1695    4.6337 O   0  0  0  0  0  0  0  0  0  0  0  0
    8.0326   -4.5804    5.5734 C   0  0  0  0  0  0  0  0  0  0  0  0
    7.8775   -5.2661    6.4092 H   0  0  0  0  0  0  0  0  0  0  0  0
    7.0722   -4.3586    5.1013 H   0  0  0  0  0  0  0  0  0  0  0  0
    8.4412   -3.6588    5.9893 H   0  0  0  0  0  0  0  0  0  0  0  0
    9.0803   -3.0894    3.3324 C   0  0  0  0  0  0  0  0  0  0  0  0
    8.0744   -2.7895    3.6103 H   0  0  0  0  0  0  0  0  0  0  0  0
    9.8638   -2.2777    2.4958 C   0  0  0  0  0  0  0  0  0  0  0  0
    9.4776   -1.3287    2.1343 H   0  0  0  0  0  0  0  0  0  0  0  0
   14.3258   -2.4384    1.3852 C   0  0  0  0  0  0  0  0  0  0  0  0
   14.4941   -2.0296    2.6753 N   0  0  0  0  0  0  0  0  0  0  0  0
   13.6553   -1.9570    3.2524 H   0  0  0  0  0  0  0  0  0  0  0  0
   15.3906   -2.2265    3.1180 H   0  0  0  0  0  0  0  0  0  0  0  0
   15.3089   -2.8559    0.6513 N   0  0  0  0  0  4  0  0  0  0  0  0
   16.2667   -2.9632    0.9897 H   0  0  0  0  0  0  0  0  0  0  0  0
   15.4138   -0.8510   -1.4897 C   0  0  0  0  0  0  0  0  0  0  0  0
   15.0021   -0.5113   -0.5450 H   0  0  0  0  0  0  0  0  0  0  0  0
   15.5332    1.9873   -0.7871 C   0  0  0  0  0  0  0  0  0  0  0  0
   15.4251    1.2726    0.0246 H   0  0  0  0  0  0  0  0  0  0  0  0
   15.4391    3.3586   -0.5497 C   0  0  0  0  0  0  0  0  0  0  0  0
   15.2437    3.7391    0.4459 H   0  0  0  0  0  0  0  0  0  0  0  0
  1  2  1  0
  2  3  2  0
  3  4  1  0
  4  5  1  0
  4  6  2  0
  6  7  1  0
  7  8  2  0
  8  9  1  0
  8 10  1  0
 10 11  1  0
 10 12  2  0
 12 13  1  0
 12 14  1  0
 15 14  1  6
 15 16  1  0
 16 17  2  0
 17 18  1  0
 17 19  1  0
 19 20  1  0
 19 21  2  0
 21 22  1  0
 21 23  1  0
 23 24  1  0
 23 25  2  0
 25 26  1  0
 15 27  1  0
 27 28  2  0
 27 29  1  0
 29 30  1  0
 30 31  1  0
 31 32  2  0
 32 33  1  0
 32 34  1  0
 34 35  1  0
 34 36  2  0
 36 37  1  0
 37 38  1  0
 38 39  1  0
 38 40  1  0
 38 41  1  0
 36 42  1  0
 42 43  1  0
 42 44  2  0
 44 45  1  0
 29 46  1  0
 46 47  1  0
 47 48  1  0
 47 49  1  0
 46 50  2  0
 50 51  1  0
 14 52  2  0
 52 53  1  0
  6 54  1  0
 54 55  1  0
 54 56  2  0
 56 57  1  0
 56  2  1  0
 52  7  1  0
 50 15  1  0
 25 16  1  0
 44 31  1  0
M  CHG  1  50   1
M  END
>  <score>  (423) 
5.35528

$$$$

     RDKit          3D

 55 60  0  0  0  0  0  0  0  0999 V2000
   15.5447    5.3391   -1.4018 H   0  0  0  0  0  0  0  0  0  0  0  0
   15.5862    4.2737   -1.6093 C   0  0  0  0  0  0  0  0  0  0  0  0
   15.8290    3.8612   -2.8630 N   0  0  0  0  0  0  0  0  0  0  0  0
   15.8860    2.5356   -3.0968 C   0  0  0  0  0  0  0  0  0  0  0  0
   16.0822    2.1975   -4.1095 H   0  0  0  0  0  0  0  0  0  0  0  0
   15.7015    1.5651   -2.0976 C   0  0  0  0  0  0  0  0  0  0  0  0
   15.7755    0.1225   -2.3989 C   0  0  0  0  0  0  0  0  0  0  0  0
   16.3279   -0.3162   -3.6056 C   0  0  0  0  0  0  0  0  0  0  0  0
   16.7055    0.4260   -4.3015 H   0  0  0  0  0  0  0  0  0  0  0  0
   16.4120   -1.6823   -3.8988 C   0  0  0  0  0  0  0  0  0  0  0  0
   16.8612   -2.0045   -4.8331 H   0  0  0  0  0  0  0  0  0  0  0  0
   15.9316   -2.6284   -2.9833 C   0  0  0  0  0  0  0  0  0  0  0  0
   15.9936   -3.6875   -3.2175 H   0  0  0  0  0  0  0  0  0  0  0  0
   15.3751   -2.2237   -1.7589 C   0  0  0  0  0  0  0  0  0  0  0  0
   14.8042   -3.2341   -0.7631 C   0  0  2  0  0  0  0  0  0  0  0  0
   15.1751   -4.6905   -1.0614 C   0  0  0  0  0  0  0  0  0  0  0  0
   16.3953   -5.2132   -0.6001 C   0  0  0  0  0  0  0  0  0  0  0  0
   17.0747   -4.5648   -0.0544 H   0  0  0  0  0  0  0  0  0  0  0  0
   16.7335   -6.5571   -0.8010 C   0  0  0  0  0  0  0  0  0  0  0  0
   17.6710   -6.9467   -0.4143 H   0  0  0  0  0  0  0  0  0  0  0  0
   15.8545   -7.4025   -1.4826 C   0  0  0  0  0  0  0  0  0  0  0  0
   16.1026   -8.4517   -1.6190 H   0  0  0  0  0  0  0  0  0  0  0  0
   14.6438   -6.8990   -1.9677 C   0  0  0  0  0  0  0  0  0  0  0  0
   13.9597   -7.5631   -2.4886 H   0  0  0  0  0  0  0  0  0  0  0  0
   14.3053   -5.5520   -1.7585 C   0  0  0  0  0  0  0  0  0  0  0  0
   13.3525   -5.1793   -2.1210 H   0  0  0  0  0  0  0  0  0  0  0  0
   13.2829   -3.0180   -0.6093 C   0  0  0  0  0  0  0  0  0  0  0  0
   12.4253   -3.1261   -1.4891 O   0  0  0  0  0  0  0  0  0  0  0  0
   13.0160   -2.6566    0.6939 N   0  0  0  0  0  0  0  0  0  0  0  0
   11.7565   -2.4527    1.2428 C   0  0  0  0  0  0  0  0  0  0  0  0
   10.8438   -1.5530    0.6671 C   0  0  0  0  0  0  0  0  0  0  0  0
   11.1460   -1.0074   -0.2218 H   0  0  0  0  0  0  0  0  0  0  0  0
    9.5666   -1.3764    1.2374 C   0  0  0  0  0  0  0  0  0  0  0  0
    8.8461   -0.6726    0.8274 H   0  0  0  0  0  0  0  0  0  0  0  0
    9.2124   -2.1753    2.3319 C   0  0  0  0  0  0  0  0  0  0  0  0
   10.0964   -3.1129    2.8255 C   0  0  0  0  0  0  0  0  0  0  0  0
   11.3879   -3.2179    2.3465 C   0  0  0  0  0  0  0  0  0  0  0  0
   12.0704   -3.9181    2.8144 H   0  0  0  0  0  0  0  0  0  0  0  0
    9.5496   -3.9008    3.7746 O   0  0  0  0  0  0  0  0  0  0  0  0
    8.2822   -3.2919    4.0120 C   0  0  0  0  0  0  0  0  0  0  0  0
    7.4965   -4.0565    3.9515 H   0  0  0  0  0  0  0  0  0  0  0  0
    8.3370   -2.9001    5.0327 H   0  0  0  0  0  0  0  0  0  0  0  0
    8.0517   -2.2344    3.0387 O   0  0  0  0  0  0  0  0  0  0  0  0
   14.2074   -2.6522    1.3869 C   0  0  0  0  0  0  0  0  0  0  0  0
   14.3946   -2.3830    2.7171 N   0  0  0  0  0  0  0  0  0  0  0  0
   15.3482   -2.3231    3.0724 H   0  0  0  0  0  0  0  0  0  0  0  0
   13.6140   -2.0515    3.2839 H   0  0  0  0  0  0  0  0  0  0  0  0
   15.2148   -2.9163    0.6241 N   0  0  0  0  0  4  0  0  0  0  0  0
   16.1815   -2.9616    0.9577 H   0  0  0  0  0  0  0  0  0  0  0  0
   15.3020   -0.8403   -1.4898 C   0  0  0  0  0  0  0  0  0  0  0  0
   14.8607   -0.4964   -0.5596 H   0  0  0  0  0  0  0  0  0  0  0  0
   15.4560    2.0044   -0.7991 C   0  0  0  0  0  0  0  0  0  0  0  0
   15.3489    1.2673   -0.0092 H   0  0  0  0  0  0  0  0  0  0  0  0
   15.3879    3.3766   -0.5579 C   0  0  0  0  0  0  0  0  0  0  0  0
   15.1915    3.7606    0.4353 H   0  0  0  0  0  0  0  0  0  0  0  0
  1  2  1  0
  2  3  2  0
  3  4  1  0
  4  5  1  0
  4  6  2  0
  6  7  1  0
  7  8  2  0
  8  9  1  0
  8 10  1  0
 10 11  1  0
 10 12  2  0
 12 13  1  0
 12 14  1  0
 15 14  1  6
 15 16  1  0
 16 17  2  0
 17 18  1  0
 17 19  1  0
 19 20  1  0
 19 21  2  0
 21 22  1  0
 21 23  1  0
 23 24  1  0
 23 25  2  0
 25 26  1  0
 15 27  1  0
 27 28  2  0
 27 29  1  0
 29 30  1  0
 30 31  2  0
 31 32  1  0
 31 33  1  0
 33 34  1  0
 33 35  2  0
 35 36  1  0
 36 37  2  0
 37 38  1  0
 36 39  1  0
 39 40  1  0
 40 41  1  0
 40 42  1  0
 40 43  1  0
 29 44  1  0
 44 45  1  0
 45 46  1  0
 45 47  1  0
 44 48  2  0
 48 49  1  0
 14 50  2  0
 50 51  1  0
  6 52  1  0
 52 53  1  0
 52 54  2  0
 54 55  1  0
 54  2  1  0
 50  7  1  0
 48 15  1  0
 25 16  1  0
 37 30  1  0
 43 35  1  0
M  CHG  1  48   1
M  END
>  <score>  (424) 
5.35166

$$$$

     RDKit          3D

 45 48  0  0  0  0  0  0  0  0999 V2000
   10.7746   -2.6743    2.7545 H   0  0  0  0  0  0  0  0  0  0  0  0
   11.7116   -2.8076    2.5672 O   0  0  0  0  0  0  0  0  0  0  0  0
   11.7909   -2.5897    1.2619 C   0  0  0  0  0  0  0  0  0  0  0  0
   10.8275   -2.3688    0.5561 O   0  0  0  0  0  0  0  0  0  0  0  0
   13.0217   -2.6873    0.7056 N   0  0  0  0  0  0  0  0  0  0  0  0
   13.2601   -3.0178   -0.5939 C   0  0  0  0  0  0  0  0  0  0  0  0
   12.3402   -3.0955   -1.4031 O   0  0  0  0  0  0  0  0  0  0  0  0
   14.7839   -3.2433   -0.7766 C   0  0  1  0  0  0  0  0  0  0  0  0
   15.1536   -4.7068   -1.0603 C   0  0  0  0  0  0  0  0  0  0  0  0
   16.3770   -5.2227   -0.5947 C   0  0  0  0  0  0  0  0  0  0  0  0
   17.0656   -4.5742   -0.0610 H   0  0  0  0  0  0  0  0  0  0  0  0
   16.7266   -6.5620   -0.7996 C   0  0  0  0  0  0  0  0  0  0  0  0
   17.6679   -6.9447   -0.4192 H   0  0  0  0  0  0  0  0  0  0  0  0
   15.8564   -7.4179   -1.4762 C   0  0  0  0  0  0  0  0  0  0  0  0
   16.1124   -8.4660   -1.6127 H   0  0  0  0  0  0  0  0  0  0  0  0
   14.6434   -6.9228   -1.9620 C   0  0  0  0  0  0  0  0  0  0  0  0
   13.9684   -7.5895   -2.4892 H   0  0  0  0  0  0  0  0  0  0  0  0
   14.2934   -5.5775   -1.7599 C   0  0  0  0  0  0  0  0  0  0  0  0
   13.3452   -5.2127   -2.1438 H   0  0  0  0  0  0  0  0  0  0  0  0
   15.3584   -2.2326   -1.7752 C   0  0  0  0  0  0  0  0  0  0  0  0
   15.9291   -2.6381   -2.9925 C   0  0  0  0  0  0  0  0  0  0  0  0
   15.9945   -3.6949   -3.2352 H   0  0  0  0  0  0  0  0  0  0  0  0
   16.4189   -1.6904   -3.8984 C   0  0  0  0  0  0  0  0  0  0  0  0
   16.8635   -2.0079   -4.8347 H   0  0  0  0  0  0  0  0  0  0  0  0
   16.3329   -0.3237   -3.6087 C   0  0  0  0  0  0  0  0  0  0  0  0
   16.7201    0.4081   -4.3110 H   0  0  0  0  0  0  0  0  0  0  0  0
   15.7752    0.1207   -2.4026 C   0  0  0  0  0  0  0  0  0  0  0  0
   15.6929    1.5698   -2.0953 C   0  0  0  0  0  0  0  0  0  0  0  0
   15.8748    2.5465   -3.0907 C   0  0  0  0  0  0  0  0  0  0  0  0
   16.0577    2.2173   -4.1077 H   0  0  0  0  0  0  0  0  0  0  0  0
   15.8235    3.8732   -2.8563 N   0  0  0  0  0  0  0  0  0  0  0  0
   15.5883    4.2899   -1.6023 C   0  0  0  0  0  0  0  0  0  0  0  0
   15.5586    5.3569   -1.3934 H   0  0  0  0  0  0  0  0  0  0  0  0
   15.3780    3.3920   -0.5539 C   0  0  0  0  0  0  0  0  0  0  0  0
   15.1770    3.7746    0.4405 H   0  0  0  0  0  0  0  0  0  0  0  0
   15.4360    2.0182   -0.7982 C   0  0  0  0  0  0  0  0  0  0  0  0
   15.3181    1.2956    0.0014 H   0  0  0  0  0  0  0  0  0  0  0  0
   15.2964   -0.8477   -1.4985 C   0  0  0  0  0  0  0  0  0  0  0  0
   14.8550   -0.5113   -0.5647 H   0  0  0  0  0  0  0  0  0  0  0  0
   15.1875   -2.9265    0.6197 N   0  0  0  0  0  4  0  0  0  0  0  0
   16.1556   -2.9202    0.9519 H   0  0  0  0  0  0  0  0  0  0  0  0
   14.1892   -2.6717    1.3944 C   0  0  0  0  0  0  0  0  0  0  0  0
   14.3487   -2.3971    2.7239 N   0  0  0  0  0  0  0  0  0  0  0  0
   15.3021   -2.3730    3.0923 H   0  0  0  0  0  0  0  0  0  0  0  0
   13.5898   -1.9594    3.2495 H   0  0  0  0  0  0  0  0  0  0  0  0
  1  2  1  0
  2  3  1  0
  3  4  2  0
  3  5  1  0
  5  6  1  0
  6  7  2  0
  6  8  1  0
  8  9  1  6
  9 10  2  0
 10 11  1  0
 10 12  1  0
 12 13  1  0
 12 14  2  0
 14 15  1  0
 14 16  1  0
 16 17  1  0
 16 18  2  0
 18 19  1  0
  8 20  1  0
 20 21  2  0
 21 22  1  0
 21 23  1  0
 23 24  1  0
 23 25  2  0
 25 26  1  0
 25 27  1  0
 27 28  1  0
 28 29  2  0
 29 30  1  0
 29 31  1  0
 31 32  2  0
 32 33  1  0
 32 34  1  0
 34 35  1  0
 34 36  2  0
 36 37  1  0
 27 38  2  0
 38 39  1  0
  8 40  1  0
 40 41  1  0
 40 42  2  0
 42 43  1  0
 43 44  1  0
 43 45  1  0
 42  5  1  0
 18  9  1  0
 38 20  1  0
 36 28  1  0
M  CHG  1  40   1
M  END
>  <score>  (425) 
5.35117

$$$$

     RDKit          3D

 52 56  0  0  0  0  0  0  0  0999 V2000
   15.5429    5.3365   -1.4021 H   0  0  0  0  0  0  0  0  0  0  0  0
   15.5863    4.2719   -1.6101 C   0  0  0  0  0  0  0  0  0  0  0  0
   15.8287    3.8600   -2.8640 N   0  0  0  0  0  0  0  0  0  0  0  0
   15.8872    2.5348   -3.0983 C   0  0  0  0  0  0  0  0  0  0  0  0
   16.0867    2.1915   -4.1092 H   0  0  0  0  0  0  0  0  0  0  0  0
   15.7035    1.5661   -2.0977 C   0  0  0  0  0  0  0  0  0  0  0  0
   15.7752    0.1238   -2.3989 C   0  0  0  0  0  0  0  0  0  0  0  0
   16.3269   -0.3149   -3.6050 C   0  0  0  0  0  0  0  0  0  0  0  0
   16.7016    0.4323   -4.2966 H   0  0  0  0  0  0  0  0  0  0  0  0
   16.4105   -1.6811   -3.8991 C   0  0  0  0  0  0  0  0  0  0  0  0
   16.8614   -2.0038   -4.8317 H   0  0  0  0  0  0  0  0  0  0  0  0
   15.9313   -2.6267   -2.9837 C   0  0  0  0  0  0  0  0  0  0  0  0
   15.9921   -3.6864   -3.2140 H   0  0  0  0  0  0  0  0  0  0  0  0
   15.3772   -2.2213   -1.7590 C   0  0  0  0  0  0  0  0  0  0  0  0
   14.8108   -3.2324   -0.7652 C   0  0  2  0  0  0  0  0  0  0  0  0
   15.1776   -4.6875   -1.0632 C   0  0  0  0  0  0  0  0  0  0  0  0
   16.3971   -5.2112   -0.6008 C   0  0  0  0  0  0  0  0  0  0  0  0
   17.0739   -4.5617   -0.0531 H   0  0  0  0  0  0  0  0  0  0  0  0
   16.7332   -6.5553   -0.8005 C   0  0  0  0  0  0  0  0  0  0  0  0
   17.6703   -6.9468   -0.4139 H   0  0  0  0  0  0  0  0  0  0  0  0
   15.8552   -7.3997   -1.4843 C   0  0  0  0  0  0  0  0  0  0  0  0
   16.1001   -8.4491   -1.6188 H   0  0  0  0  0  0  0  0  0  0  0  0
   14.6438   -6.8956   -1.9684 C   0  0  0  0  0  0  0  0  0  0  0  0
   13.9590   -7.5597   -2.4881 H   0  0  0  0  0  0  0  0  0  0  0  0
   14.3062   -5.5493   -1.7577 C   0  0  0  0  0  0  0  0  0  0  0  0
   13.3525   -5.1737   -2.1168 H   0  0  0  0  0  0  0  0  0  0  0  0
   13.2905   -3.0225   -0.6150 C   0  0  0  0  0  0  0  0  0  0  0  0
   12.4261   -3.1315   -1.4871 O   0  0  0  0  0  0  0  0  0  0  0  0
   13.0339   -2.6859    0.6943 N   0  0  0  0  0  0  0  0  0  0  0  0
   11.7838   -2.4778    1.2423 C   0  0  0  0  0  0  0  0  0  0  0  0
   11.4136   -3.1959    2.3836 C   0  0  0  0  0  0  0  0  0  0  0  0
   12.1160   -3.8974    2.8372 H   0  0  0  0  0  0  0  0  0  0  0  0
   10.1307   -3.0304    2.9081 C   0  0  0  0  0  0  0  0  0  0  0  0
    9.8008   -3.5861    3.7814 H   0  0  0  0  0  0  0  0  0  0  0  0
    9.2382   -2.1453    2.3088 C   0  0  0  0  0  0  0  0  0  0  0  0
    7.6437   -2.0609    2.9613 Cl  0  0  0  0  0  0  0  0  0  0  0  0
    9.6216   -1.3849    1.1955 C   0  0  0  0  0  0  0  0  0  0  0  0
    8.5071   -0.2252    0.5094 Cl  0  0  0  0  0  0  0  0  0  0  0  0
   10.9000   -1.5663    0.6482 C   0  0  0  0  0  0  0  0  0  0  0  0
   11.2154   -0.9983   -0.2271 H   0  0  0  0  0  0  0  0  0  0  0  0
   14.2204   -2.6589    1.3878 C   0  0  0  0  0  0  0  0  0  0  0  0
   14.3993   -2.3851    2.7157 N   0  0  0  0  0  0  0  0  0  0  0  0
   15.3520   -2.3154    3.0708 H   0  0  0  0  0  0  0  0  0  0  0  0
   13.6193   -2.0469    3.2791 H   0  0  0  0  0  0  0  0  0  0  0  0
   15.2251   -2.9151    0.6225 N   0  0  0  0  0  4  0  0  0  0  0  0
   16.1895   -2.9682    0.9588 H   0  0  0  0  0  0  0  0  0  0  0  0
   15.3021   -0.8380   -1.4898 C   0  0  0  0  0  0  0  0  0  0  0  0
   14.8619   -0.4903   -0.5595 H   0  0  0  0  0  0  0  0  0  0  0  0
   15.4591    2.0033   -0.7997 C   0  0  0  0  0  0  0  0  0  0  0  0
   15.3555    1.2590   -0.0153 H   0  0  0  0  0  0  0  0  0  0  0  0
   15.3894    3.3749   -0.5592 C   0  0  0  0  0  0  0  0  0  0  0  0
   15.1925    3.7593    0.4323 H   0  0  0  0  0  0  0  0  0  0  0  0
  1  2  1  0
  2  3  2  0
  3  4  1  0
  4  5  1  0
  4  6  2  0
  6  7  1  0
  7  8  2  0
  8  9  1  0
  8 10  1  0
 10 11  1  0
 10 12  2  0
 12 13  1  0
 12 14  1  0
 15 14  1  6
 15 16  1  0
 16 17  2  0
 17 18  1  0
 17 19  1  0
 19 20  1  0
 19 21  2  0
 21 22  1  0
 21 23  1  0
 23 24  1  0
 23 25  2  0
 25 26  1  0
 15 27  1  0
 27 28  2  0
 27 29  1  0
 29 30  1  0
 30 31  2  0
 31 32  1  0
 31 33  1  0
 33 34  1  0
 33 35  2  0
 35 36  1  0
 35 37  1  0
 37 38  1  0
 37 39  2  0
 39 40  1  0
 29 41  1  0
 41 42  1  0
 42 43  1  0
 42 44  1  0
 41 45  2  0
 45 46  1  0
 14 47  2  0
 47 48  1  0
  6 49  1  0
 49 50  1  0
 49 51  2  0
 51 52  1  0
 51  2  1  0
 47  7  1  0
 45 15  1  0
 25 16  1  0
 39 30  1  0
M  CHG  1  45   1
M  END
>  <score>  (426) 
5.34789

$$$$

     RDKit          3D

 58 62  0  0  0  0  0  0  0  0999 V2000
   15.5143    5.3206   -1.4264 H   0  0  0  0  0  0  0  0  0  0  0  0
   15.5956    4.2547   -1.6132 C   0  0  0  0  0  0  0  0  0  0  0  0
   15.8461    3.8413   -2.8649 N   0  0  0  0  0  0  0  0  0  0  0  0
   15.9260    2.5183   -3.0922 C   0  0  0  0  0  0  0  0  0  0  0  0
   16.1277    2.1821   -4.1046 H   0  0  0  0  0  0  0  0  0  0  0  0
   15.7528    1.5518   -2.0895 C   0  0  0  0  0  0  0  0  0  0  0  0
   15.8297    0.1177   -2.4042 C   0  0  0  0  0  0  0  0  0  0  0  0
   16.3517   -0.3259   -3.6278 C   0  0  0  0  0  0  0  0  0  0  0  0
   16.6984    0.3966   -4.3579 H   0  0  0  0  0  0  0  0  0  0  0  0
   16.4280   -1.6909   -3.9217 C   0  0  0  0  0  0  0  0  0  0  0  0
   16.8256   -2.0150   -4.8784 H   0  0  0  0  0  0  0  0  0  0  0  0
   15.9917   -2.6318   -2.9849 C   0  0  0  0  0  0  0  0  0  0  0  0
   16.0377   -3.6924   -3.2144 H   0  0  0  0  0  0  0  0  0  0  0  0
   15.4800   -2.2133   -1.7499 C   0  0  0  0  0  0  0  0  0  0  0  0
   14.9383   -3.1942   -0.7375 C   0  0  2  0  0  0  0  0  0  0  0  0
   15.2609   -4.6471   -1.0335 C   0  0  0  0  0  0  0  0  0  0  0  0
   16.4706   -5.1985   -0.5905 C   0  0  0  0  0  0  0  0  0  0  0  0
   17.1759   -4.5707   -0.0535 H   0  0  0  0  0  0  0  0  0  0  0  0
   16.7635   -6.5449   -0.8108 C   0  0  0  0  0  0  0  0  0  0  0  0
   17.6992   -6.9477   -0.4367 H   0  0  0  0  0  0  0  0  0  0  0  0
   15.8542   -7.3563   -1.4975 C   0  0  0  0  0  0  0  0  0  0  0  0
   16.0863   -8.4029   -1.6683 H   0  0  0  0  0  0  0  0  0  0  0  0
   14.6514   -6.8143   -1.9638 C   0  0  0  0  0  0  0  0  0  0  0  0
   13.9411   -7.4391   -2.4973 H   0  0  0  0  0  0  0  0  0  0  0  0
   14.3577   -5.4662   -1.7345 C   0  0  0  0  0  0  0  0  0  0  0  0
   13.4154   -5.0667   -2.0981 H   0  0  0  0  0  0  0  0  0  0  0  0
   13.4320   -2.9389   -0.6090 C   0  0  0  0  0  0  0  0  0  0  0  0
   12.5822   -3.1853   -1.4615 O   0  0  0  0  0  0  0  0  0  0  0  0
   13.1772   -2.4782    0.6608 N   0  0  0  0  0  0  0  0  0  0  0  0
   11.9094   -2.4583    1.2173 C   0  0  0  0  0  0  0  0  0  0  0  0
   10.8945   -1.6769    0.6576 C   0  0  0  0  0  0  0  0  0  0  0  0
   11.0986   -1.0797   -0.2276 H   0  0  0  0  0  0  0  0  0  0  0  0
    9.6182   -1.6677    1.2446 C   0  0  0  0  0  0  0  0  0  0  0  0
    8.8330   -1.0505    0.8150 H   0  0  0  0  0  0  0  0  0  0  0  0
    9.3615   -2.4705    2.3724 C   0  0  0  0  0  0  0  0  0  0  0  0
    8.0067   -2.5415    3.0082 C   0  0  0  0  0  0  0  0  0  0  0  0
    8.1111   -2.8337    4.0554 H   0  0  0  0  0  0  0  0  0  0  0  0
    7.5598   -1.5514    2.9951 H   0  0  0  0  0  0  0  0  0  0  0  0
    7.1353   -3.5800    2.3002 C   0  0  0  0  0  0  0  0  0  0  0  0
    6.9696   -3.3168    1.2524 H   0  0  0  0  0  0  0  0  0  0  0  0
    7.6383   -4.5496    2.3272 H   0  0  0  0  0  0  0  0  0  0  0  0
    6.1625   -3.6687    2.7945 H   0  0  0  0  0  0  0  0  0  0  0  0
   10.3833   -3.2592    2.9062 C   0  0  0  0  0  0  0  0  0  0  0  0
   10.2001   -3.9048    3.7585 H   0  0  0  0  0  0  0  0  0  0  0  0
   11.6511   -3.2408    2.3341 C   0  0  0  0  0  0  0  0  0  0  0  0
   12.4525   -3.8566    2.7236 H   0  0  0  0  0  0  0  0  0  0  0  0
   14.3524   -2.5854    1.3753 C   0  0  0  0  0  0  0  0  0  0  0  0
   14.4728   -2.4604    2.7264 N   0  0  0  0  0  0  0  0  0  0  0  0
   13.6696   -2.0712    3.2167 H   0  0  0  0  0  0  0  0  0  0  0  0
   15.4061   -2.2397    3.0742 H   0  0  0  0  0  0  0  0  0  0  0  0
   15.3679   -2.8626    0.6325 N   0  0  0  0  0  4  0  0  0  0  0  0
   16.2853   -3.1164    1.0103 H   0  0  0  0  0  0  0  0  0  0  0  0
   15.3799   -0.8384   -1.4867 C   0  0  0  0  0  0  0  0  0  0  0  0
   14.9343   -0.5084   -0.5523 H   0  0  0  0  0  0  0  0  0  0  0  0
   15.5170    1.9924   -0.7841 C   0  0  0  0  0  0  0  0  0  0  0  0
   15.4062    1.2824    0.0309 H   0  0  0  0  0  0  0  0  0  0  0  0
   15.4353    3.3614   -0.5503 C   0  0  0  0  0  0  0  0  0  0  0  0
   15.2463    3.7318    0.4502 H   0  0  0  0  0  0  0  0  0  0  0  0
  1  2  1  0
  2  3  2  0
  3  4  1  0
  4  5  1  0
  4  6  2  0
  6  7  1  0
  7  8  2  0
  8  9  1  0
  8 10  1  0
 10 11  1  0
 10 12  2  0
 12 13  1  0
 12 14  1  0
 15 14  1  6
 15 16  1  0
 16 17  2  0
 17 18  1  0
 17 19  1  0
 19 20  1  0
 19 21  2  0
 21 22  1  0
 21 23  1  0
 23 24  1  0
 23 25  2  0
 25 26  1  0
 15 27  1  0
 27 28  2  0
 27 29  1  0
 29 30  1  0
 30 31  2  0
 31 32  1  0
 31 33  1  0
 33 34  1  0
 33 35  2  0
 35 36  1  0
 36 37  1  0
 36 38  1  0
 36 39  1  0
 39 40  1  0
 39 41  1  0
 39 42  1  0
 35 43  1  0
 43 44  1  0
 43 45  2  0
 45 46  1  0
 29 47  1  0
 47 48  1  0
 48 49  1  0
 48 50  1  0
 47 51  2  0
 51 52  1  0
 14 53  2  0
 53 54  1  0
  6 55  1  0
 55 56  1  0
 55 57  2  0
 57 58  1  0
 57  2  1  0
 53  7  1  0
 51 15  1  0
 25 16  1  0
 45 30  1  0
M  CHG  1  51   1
M  END
>  <score>  (427) 
5.34754

$$$$

     RDKit          3D

 55 59  0  0  0  0  0  0  0  0999 V2000
    6.1133   -4.3385    1.5987 H   0  0  0  0  0  0  0  0  0  0  0  0
    7.0682   -3.8356    1.5207 C   0  0  0  0  0  0  0  0  0  0  0  0
    7.1769   -2.8416    0.6249 N   0  0  0  0  0  0  0  0  0  0  0  0
    8.3674   -2.2407    0.4787 C   0  0  0  0  0  0  0  0  0  0  0  0
    8.4604   -1.4341   -0.2511 H   0  0  0  0  0  0  0  0  0  0  0  0
    9.4931   -2.6506    1.1985 C   0  0  0  0  0  0  0  0  0  0  0  0
   10.7568   -2.0324    0.8820 C   0  0  0  0  0  0  0  0  0  0  0  0
   10.8205   -1.2072   -0.0209 O   0  0  0  0  0  0  0  0  0  0  0  0
   11.8953   -2.6171    1.4230 N   0  0  0  0  0  0  0  0  0  0  0  0
   11.7006   -3.2772    2.1737 H   0  0  0  0  0  0  0  0  0  0  0  0
   13.1984   -2.6556    0.7869 N   0  0  0  0  0  0  0  0  0  0  0  0
   13.4430   -3.0388   -0.5234 C   0  0  0  0  0  0  0  0  0  0  0  0
   12.5520   -3.2998   -1.3363 O   0  0  0  0  0  0  0  0  0  0  0  0
   14.9502   -3.2175   -0.7315 C   0  0  1  0  0  0  0  0  0  0  0  0
   15.2877   -4.6690   -1.0432 C   0  0  0  0  0  0  0  0  0  0  0  0
   16.4937   -5.2257   -0.5947 C   0  0  0  0  0  0  0  0  0  0  0  0
   17.1991   -4.6018   -0.0535 H   0  0  0  0  0  0  0  0  0  0  0  0
   16.7813   -6.5760   -0.8064 C   0  0  0  0  0  0  0  0  0  0  0  0
   17.7114   -6.9874   -0.4256 H   0  0  0  0  0  0  0  0  0  0  0  0
   15.8688   -7.3878   -1.4889 C   0  0  0  0  0  0  0  0  0  0  0  0
   16.0905   -8.4388   -1.6478 H   0  0  0  0  0  0  0  0  0  0  0  0
   14.6706   -6.8427   -1.9634 C   0  0  0  0  0  0  0  0  0  0  0  0
   13.9571   -7.4683   -2.4923 H   0  0  0  0  0  0  0  0  0  0  0  0
   14.3832   -5.4913   -1.7434 C   0  0  0  0  0  0  0  0  0  0  0  0
   13.4410   -5.0893   -2.1058 H   0  0  0  0  0  0  0  0  0  0  0  0
   15.4540   -2.2169   -1.7570 C   0  0  0  0  0  0  0  0  0  0  0  0
   15.9800   -2.6234   -2.9923 C   0  0  0  0  0  0  0  0  0  0  0  0
   16.0444   -3.6806   -3.2288 H   0  0  0  0  0  0  0  0  0  0  0  0
   16.4231   -1.6778   -3.9219 C   0  0  0  0  0  0  0  0  0  0  0  0
   16.8406   -1.9925   -4.8720 H   0  0  0  0  0  0  0  0  0  0  0  0
   16.3388   -0.3154   -3.6292 C   0  0  0  0  0  0  0  0  0  0  0  0
   16.6967    0.4142   -4.3480 H   0  0  0  0  0  0  0  0  0  0  0  0
   15.8060    0.1197   -2.4105 C   0  0  0  0  0  0  0  0  0  0  0  0
   15.7373    1.5535   -2.0999 C   0  0  0  0  0  0  0  0  0  0  0  0
   15.9179    2.5222   -3.1011 C   0  0  0  0  0  0  0  0  0  0  0  0
   16.1190    2.1932   -4.1166 H   0  0  0  0  0  0  0  0  0  0  0  0
   15.8436    3.8449   -2.8686 N   0  0  0  0  0  0  0  0  0  0  0  0
   15.5911    4.2536   -1.6159 C   0  0  0  0  0  0  0  0  0  0  0  0
   15.5166    5.3187   -1.4212 H   0  0  0  0  0  0  0  0  0  0  0  0
   15.4216    3.3567   -0.5581 C   0  0  0  0  0  0  0  0  0  0  0  0
   15.2286    3.7237    0.4420 H   0  0  0  0  0  0  0  0  0  0  0  0
   15.5007    1.9890   -0.7957 C   0  0  0  0  0  0  0  0  0  0  0  0
   15.3912    1.2725    0.0135 H   0  0  0  0  0  0  0  0  0  0  0  0
   15.3515   -0.8394   -1.4931 C   0  0  0  0  0  0  0  0  0  0  0  0
   14.9136   -0.5055   -0.5560 H   0  0  0  0  0  0  0  0  0  0  0  0
   15.4176   -2.8662    0.6282 N   0  0  0  0  0  4  0  0  0  0  0  0
   16.3802   -3.0043    0.9408 H   0  0  0  0  0  0  0  0  0  0  0  0
   14.4289   -2.6296    1.4315 C   0  0  0  0  0  0  0  0  0  0  0  0
   14.5922   -2.4277    2.7767 N   0  0  0  0  0  0  0  0  0  0  0  0
   13.7967   -2.0585    3.2977 H   0  0  0  0  0  0  0  0  0  0  0  0
   15.5270   -2.2033    3.1003 H   0  0  0  0  0  0  0  0  0  0  0  0
    9.3986   -3.7069    2.1195 C   0  0  0  0  0  0  0  0  0  0  0  0
   10.2561   -4.0784    2.6892 H   0  0  0  0  0  0  0  0  0  0  0  0
    8.1474   -4.2818    2.2870 C   0  0  0  0  0  0  0  0  0  0  0  0
    8.0009   -5.0984    2.9830 H   0  0  0  0  0  0  0  0  0  0  0  0
  1  2  1  0
  2  3  2  0
  3  4  1  0
  4  5  1  0
  4  6  2  0
  6  7  1  0
  7  8  2  0
  7  9  1  0
  9 10  1  0
  9 11  1  0
 11 12  1  0
 12 13  2  0
 12 14  1  0
 14 15  1  6
 15 16  2  0
 16 17  1  0
 16 18  1  0
 18 19  1  0
 18 20  2  0
 20 21  1  0
 20 22  1  0
 22 23  1  0
 22 24  2  0
 24 25  1  0
 14 26  1  0
 26 27  2  0
 27 28  1  0
 27 29  1  0
 29 30  1  0
 29 31  2  0
 31 32  1  0
 31 33  1  0
 33 34  1  0
 34 35  2  0
 35 36  1  0
 35 37  1  0
 37 38  2  0
 38 39  1  0
 38 40  1  0
 40 41  1  0
 40 42  2  0
 42 43  1  0
 33 44  2  0
 44 45  1  0
 14 46  1  0
 46 47  1  0
 46 48  2  0
 48 49  1  0
 49 50  1  0
 49 51  1  0
  6 52  1  0
 52 53  1  0
 52 54  2  0
 54 55  1  0
 54  2  1  0
 48 11  1  0
 24 15  1  0
 44 26  1  0
 42 34  1  0
M  CHG  1  46   1
M  END
>  <score>  (428) 
5.34694

$$$$

     RDKit          3D

 60 63  0  0  0  0  0  0  0  0999 V2000
   15.5064    5.3032   -1.4329 H   0  0  0  0  0  0  0  0  0  0  0  0
   15.5886    4.2383   -1.6225 C   0  0  0  0  0  0  0  0  0  0  0  0
   15.8489    3.8266   -2.8735 N   0  0  0  0  0  0  0  0  0  0  0  0
   15.9267    2.5053   -3.1042 C   0  0  0  0  0  0  0  0  0  0  0  0
   16.1298    2.1810   -4.1218 H   0  0  0  0  0  0  0  0  0  0  0  0
   15.7343    1.5426   -2.0973 C   0  0  0  0  0  0  0  0  0  0  0  0
   15.7819    0.1133   -2.3965 C   0  0  0  0  0  0  0  0  0  0  0  0
   16.3222   -0.3200   -3.6081 C   0  0  0  0  0  0  0  0  0  0  0  0
   16.6926    0.4064   -4.3245 H   0  0  0  0  0  0  0  0  0  0  0  0
   16.4050   -1.6816   -3.8880 C   0  0  0  0  0  0  0  0  0  0  0  0
   16.8321   -2.0002   -4.8299 H   0  0  0  0  0  0  0  0  0  0  0  0
   15.9318   -2.6173   -2.9633 C   0  0  0  0  0  0  0  0  0  0  0  0
   15.9910   -3.6735   -3.1959 H   0  0  0  0  0  0  0  0  0  0  0  0
   15.3772   -2.2096   -1.7411 C   0  0  0  0  0  0  0  0  0  0  0  0
   14.8392   -3.2176   -0.7360 C   0  0  2  0  0  0  0  0  0  0  0  0
   15.2213   -4.6578   -1.0350 C   0  0  0  0  0  0  0  0  0  0  0  0
   16.4410   -5.1894   -0.5842 C   0  0  0  0  0  0  0  0  0  0  0  0
   17.1401   -4.5582   -0.0411 H   0  0  0  0  0  0  0  0  0  0  0  0
   16.7530   -6.5349   -0.8017 C   0  0  0  0  0  0  0  0  0  0  0  0
   17.6861   -6.9355   -0.4187 H   0  0  0  0  0  0  0  0  0  0  0  0
   15.8559   -7.3604   -1.4876 C   0  0  0  0  0  0  0  0  0  0  0  0
   16.0931   -8.4073   -1.6494 H   0  0  0  0  0  0  0  0  0  0  0  0
   14.6499   -6.8342   -1.9606 C   0  0  0  0  0  0  0  0  0  0  0  0
   13.9497   -7.4646   -2.4981 H   0  0  0  0  0  0  0  0  0  0  0  0
   14.3356   -5.4911   -1.7374 C   0  0  0  0  0  0  0  0  0  0  0  0
   13.3885   -5.0991   -2.0960 H   0  0  0  0  0  0  0  0  0  0  0  0
   13.3202   -3.0488   -0.5625 C   0  0  0  0  0  0  0  0  0  0  0  0
   12.4504   -3.3307   -1.3821 O   0  0  0  0  0  0  0  0  0  0  0  0
   13.0510   -2.6094    0.7166 N   0  0  0  0  0  0  0  0  0  0  0  0
   11.7268   -2.5367    1.3200 C   0  0  0  0  0  0  0  0  0  0  0  0
   11.7267   -1.7954    2.1287 H   0  0  0  0  0  0  0  0  0  0  0  0
   10.9814   -2.2206    0.5792 H   0  0  0  0  0  0  0  0  0  0  0  0
   11.3599   -3.9044    1.8775 C   0  0  0  0  0  0  0  0  0  0  0  0
   12.0963   -4.2016    2.6344 H   0  0  0  0  0  0  0  0  0  0  0  0
   11.3765   -4.6505    1.0760 H   0  0  0  0  0  0  0  0  0  0  0  0
    9.9735   -3.8760    2.5138 C   0  0  0  0  0  0  0  0  0  0  0  0
    9.2105   -3.6171    1.7672 H   0  0  0  0  0  0  0  0  0  0  0  0
    9.9450   -3.1182    3.3056 H   0  0  0  0  0  0  0  0  0  0  0  0
    9.7129   -5.2580    3.1044 C   0  0  0  0  0  0  0  0  0  0  0  0
    9.6159   -5.9903    2.2934 H   0  0  0  0  0  0  0  0  0  0  0  0
   10.5723   -5.5438    3.7268 H   0  0  0  0  0  0  0  0  0  0  0  0
    8.4522   -5.2395    3.9674 C   0  0  0  0  0  0  0  0  0  0  0  0
    8.3566   -6.1860    4.5023 H   0  0  0  0  0  0  0  0  0  0  0  0
    8.5509   -4.4593    4.7248 H   0  0  0  0  0  0  0  0  0  0  0  0
    7.2002   -4.9724    3.1285 C   0  0  0  0  0  0  0  0  0  0  0  0
    7.2999   -4.0443    2.5535 H   0  0  0  0  0  0  0  0  0  0  0  0
    7.0278   -5.7875    2.4172 H   0  0  0  0  0  0  0  0  0  0  0  0
    6.3485   -4.8863    3.8088 H   0  0  0  0  0  0  0  0  0  0  0  0
   14.2455   -2.6150    1.4021 C   0  0  0  0  0  0  0  0  0  0  0  0
   14.4150   -2.4108    2.7402 N   0  0  0  0  0  0  0  0  0  0  0  0
   13.6241   -2.0801    3.2886 H   0  0  0  0  0  0  0  0  0  0  0  0
   15.3667   -2.2717    3.0876 H   0  0  0  0  0  0  0  0  0  0  0  0
   15.2488   -2.8777    0.6390 N   0  0  0  0  0  4  0  0  0  0  0  0
   16.1929   -3.0331    0.9919 H   0  0  0  0  0  0  0  0  0  0  0  0
   15.3016   -0.8323   -1.4742 C   0  0  0  0  0  0  0  0  0  0  0  0
   14.8659   -0.4888   -0.5387 H   0  0  0  0  0  0  0  0  0  0  0  0
   15.5073    1.9767   -0.7930 C   0  0  0  0  0  0  0  0  0  0  0  0
   15.4073    1.2636    0.0215 H   0  0  0  0  0  0  0  0  0  0  0  0
   15.4267    3.3434   -0.5606 C   0  0  0  0  0  0  0  0  0  0  0  0
   15.2374    3.7094    0.4402 H   0  0  0  0  0  0  0  0  0  0  0  0
  1  2  1  0
  2  3  2  0
  3  4  1  0
  4  5  1  0
  4  6  2  0
  6  7  1  0
  7  8  2  0
  8  9  1  0
  8 10  1  0
 10 11  1  0
 10 12  2  0
 12 13  1  0
 12 14  1  0
 15 14  1  6
 15 16  1  0
 16 17  2  0
 17 18  1  0
 17 19  1  0
 19 20  1  0
 19 21  2  0
 21 22  1  0
 21 23  1  0
 23 24  1  0
 23 25  2  0
 25 26  1  0
 15 27  1  0
 27 28  2  0
 27 29  1  0
 29 30  1  0
 30 31  1  0
 30 32  1  0
 30 33  1  0
 33 34  1  0
 33 35  1  0
 33 36  1  0
 36 37  1  0
 36 38  1  0
 36 39  1  0
 39 40  1  0
 39 41  1  0
 39 42  1  0
 42 43  1  0
 42 44  1  0
 42 45  1  0
 45 46  1  0
 45 47  1  0
 45 48  1  0
 29 49  1  0
 49 50  1  0
 50 51  1  0
 50 52  1  0
 49 53  2  0
 53 54  1  0
 14 55  2  0
 55 56  1  0
  6 57  1  0
 57 58  1  0
 57 59  2  0
 59 60  1  0
 59  2  1  0
 55  7  1  0
 53 15  1  0
 25 16  1  0
M  CHG  1  53   1
M  END
>  <score>  (429) 
5.34521

$$$$

     RDKit          3D

 54 58  0  0  0  0  0  0  0  0999 V2000
   15.5155    5.3294   -1.3927 H   0  0  0  0  0  0  0  0  0  0  0  0
   15.6233    4.2674   -1.5930 C   0  0  0  0  0  0  0  0  0  0  0  0
   15.8816    3.8711   -2.8478 N   0  0  0  0  0  0  0  0  0  0  0  0
   16.0060    2.5519   -3.0832 C   0  0  0  0  0  0  0  0  0  0  0  0
   16.2067    2.2315   -4.0996 H   0  0  0  0  0  0  0  0  0  0  0  0
   15.8755    1.5658   -2.0913 C   0  0  0  0  0  0  0  0  0  0  0  0
   16.0024    0.1320   -2.4358 C   0  0  0  0  0  0  0  0  0  0  0  0
   16.4786   -0.2751   -3.6925 C   0  0  0  0  0  0  0  0  0  0  0  0
   16.7700    0.4770   -4.4186 H   0  0  0  0  0  0  0  0  0  0  0  0
   16.5666   -1.6336   -4.0202 C   0  0  0  0  0  0  0  0  0  0  0  0
   16.9336   -1.9242   -4.9991 H   0  0  0  0  0  0  0  0  0  0  0  0
   16.1697   -2.6066   -3.0965 C   0  0  0  0  0  0  0  0  0  0  0  0
   16.2198   -3.6578   -3.3653 H   0  0  0  0  0  0  0  0  0  0  0  0
   15.6860   -2.2307   -1.8357 C   0  0  0  0  0  0  0  0  0  0  0  0
   15.1016   -3.2483   -0.8723 C   0  0  2  0  0  0  0  0  0  0  0  0
   15.4516   -4.7051   -1.1669 C   0  0  0  0  0  0  0  0  0  0  0  0
   16.6425   -5.2650   -0.6778 C   0  0  0  0  0  0  0  0  0  0  0  0
   17.3395   -4.6371   -0.1313 H   0  0  0  0  0  0  0  0  0  0  0  0
   16.9227   -6.6244   -0.8484 C   0  0  0  0  0  0  0  0  0  0  0  0
   17.8395   -7.0385   -0.4397 H   0  0  0  0  0  0  0  0  0  0  0  0
   16.0171   -7.4462   -1.5245 C   0  0  0  0  0  0  0  0  0  0  0  0
   16.2321   -8.5039   -1.6460 H   0  0  0  0  0  0  0  0  0  0  0  0
   14.8365   -6.9011   -2.0384 C   0  0  0  0  0  0  0  0  0  0  0  0
   14.1307   -7.5410   -2.5590 H   0  0  0  0  0  0  0  0  0  0  0  0
   14.5578   -5.5389   -1.8651 C   0  0  0  0  0  0  0  0  0  0  0  0
   13.6272   -5.1330   -2.2519 H   0  0  0  0  0  0  0  0  0  0  0  0
   13.5723   -3.0395   -0.8020 C   0  0  0  0  0  0  0  0  0  0  0  0
   12.7587   -3.1291   -1.7230 O   0  0  0  0  0  0  0  0  0  0  0  0
   13.2393   -2.7804    0.5030 N   0  0  0  0  0  0  0  0  0  0  0  0
   11.9723   -2.7576    1.0564 C   0  0  0  0  0  0  0  0  0  0  0  0
   11.6629   -3.6687    2.0615 C   0  0  0  0  0  0  0  0  0  0  0  0
   12.4023   -4.4258    2.3177 H   0  0  0  0  0  0  0  0  0  0  0  0
   10.4465   -3.5756    2.7376 C   0  0  0  0  0  0  0  0  0  0  0  0
   10.2335   -4.2986    3.5239 H   0  0  0  0  0  0  0  0  0  0  0  0
    9.5467   -2.5294    2.4308 C   0  0  0  0  0  0  0  0  0  0  0  0
    8.3449   -2.3581    3.1345 N   0  0  0  0  0  4  0  0  0  0  0  0
    7.9219   -3.3046    3.8143 O   0  0  0  0  0  0  0  0  0  0  0  0
    7.7876   -1.2546    3.0328 O   0  0  0  0  0  1  0  0  0  0  0  0
    9.8798   -1.6190    1.4080 C   0  0  0  0  0  0  0  0  0  0  0  0
    9.2120   -0.7938    1.1650 H   0  0  0  0  0  0  0  0  0  0  0  0
   11.0760   -1.7532    0.7138 C   0  0  0  0  0  0  0  0  0  0  0  0
   11.3413   -1.0336   -0.0482 H   0  0  0  0  0  0  0  0  0  0  0  0
   14.3916   -2.7891    1.2503 C   0  0  0  0  0  0  0  0  0  0  0  0
   14.3810   -2.6153    2.6060 N   0  0  0  0  0  0  0  0  0  0  0  0
   13.5121   -2.2608    3.0024 H   0  0  0  0  0  0  0  0  0  0  0  0
   15.2579   -2.3514    3.0505 H   0  0  0  0  0  0  0  0  0  0  0  0
   15.4535   -2.9478    0.5321 N   0  0  0  0  0  4  0  0  0  0  0  0
   16.4021   -3.0338    0.9106 H   0  0  0  0  0  0  0  0  0  0  0  0
   15.6156   -0.8599   -1.5229 C   0  0  0  0  0  0  0  0  0  0  0  0
   15.2260   -0.5557   -0.5564 H   0  0  0  0  0  0  0  0  0  0  0  0
   15.6073    1.9908   -0.7828 C   0  0  0  0  0  0  0  0  0  0  0  0
   15.5061    1.2696    0.0259 H   0  0  0  0  0  0  0  0  0  0  0  0
   15.4810    3.3605   -0.5391 C   0  0  0  0  0  0  0  0  0  0  0  0
   15.2748    3.7335    0.4582 H   0  0  0  0  0  0  0  0  0  0  0  0
  1  2  1  0
  2  3  2  0
  3  4  1  0
  4  5  1  0
  4  6  2  0
  6  7  1  0
  7  8  2  0
  8  9  1  0
  8 10  1  0
 10 11  1  0
 10 12  2  0
 12 13  1  0
 12 14  1  0
 15 14  1  6
 15 16  1  0
 16 17  2  0
 17 18  1  0
 17 19  1  0
 19 20  1  0
 19 21  2  0
 21 22  1  0
 21 23  1  0
 23 24  1  0
 23 25  2  0
 25 26  1  0
 15 27  1  0
 27 28  2  0
 27 29  1  0
 29 30  1  0
 30 31  2  0
 31 32  1  0
 31 33  1  0
 33 34  1  0
 33 35  2  0
 35 36  1  0
 36 37  2  0
 36 38  1  0
 35 39  1  0
 39 40  1  0
 39 41  2  0
 41 42  1  0
 29 43  1  0
 43 44  1  0
 44 45  1  0
 44 46  1  0
 43 47  2  0
 47 48  1  0
 14 49  2  0
 49 50  1  0
  6 51  1  0
 51 52  1  0
 51 53  2  0
 53 54  1  0
 53  2  1  0
 49  7  1  0
 47 15  1  0
 25 16  1  0
 41 30  1  0
M  CHG  3  36   1  38  -1  47   1
M  END
>  <score>  (430) 
5.34359

$$$$

     RDKit          3D

 52 56  0  0  0  0  0  0  0  0999 V2000
   15.5574    5.3550   -1.3953 H   0  0  0  0  0  0  0  0  0  0  0  0
   15.5856    4.2878   -1.6024 C   0  0  0  0  0  0  0  0  0  0  0  0
   15.8251    3.8705   -2.8550 N   0  0  0  0  0  0  0  0  0  0  0  0
   15.8749    2.5438   -3.0911 C   0  0  0  0  0  0  0  0  0  0  0  0
   16.0618    2.2137   -4.1078 H   0  0  0  0  0  0  0  0  0  0  0  0
   15.6929    1.5675   -2.0948 C   0  0  0  0  0  0  0  0  0  0  0  0
   15.7737    0.1189   -2.4025 C   0  0  0  0  0  0  0  0  0  0  0  0
   16.3360   -0.3211   -3.6077 C   0  0  0  0  0  0  0  0  0  0  0  0
   16.7173    0.4111   -4.3127 H   0  0  0  0  0  0  0  0  0  0  0  0
   16.4189   -1.6878   -3.9028 C   0  0  0  0  0  0  0  0  0  0  0  0
   16.8637   -2.0081   -4.8406 H   0  0  0  0  0  0  0  0  0  0  0  0
   15.9307   -2.6385   -2.9949 C   0  0  0  0  0  0  0  0  0  0  0  0
   15.9967   -3.6952   -3.2416 H   0  0  0  0  0  0  0  0  0  0  0  0
   15.3604   -2.2389   -1.7727 C   0  0  0  0  0  0  0  0  0  0  0  0
   14.7788   -3.2518   -0.7771 C   0  0  2  0  0  0  0  0  0  0  0  0
   15.1644   -4.7081   -1.0656 C   0  0  0  0  0  0  0  0  0  0  0  0
   16.3889   -5.2264   -0.6034 C   0  0  0  0  0  0  0  0  0  0  0  0
   17.0699   -4.5772   -0.0608 H   0  0  0  0  0  0  0  0  0  0  0  0
   16.7315   -6.5701   -0.8009 C   0  0  0  0  0  0  0  0  0  0  0  0
   17.6735   -6.9512   -0.4163 H   0  0  0  0  0  0  0  0  0  0  0  0
   15.8559   -7.4236   -1.4772 C   0  0  0  0  0  0  0  0  0  0  0  0
   16.1137   -8.4708   -1.6149 H   0  0  0  0  0  0  0  0  0  0  0  0
   14.6443   -6.9242   -1.9655 C   0  0  0  0  0  0  0  0  0  0  0  0
   13.9660   -7.5915   -2.4895 H   0  0  0  0  0  0  0  0  0  0  0  0
   14.3025   -5.5770   -1.7639 C   0  0  0  0  0  0  0  0  0  0  0  0
   13.3522   -5.2109   -2.1403 H   0  0  0  0  0  0  0  0  0  0  0  0
   13.2523   -3.0462   -0.6008 C   0  0  0  0  0  0  0  0  0  0  0  0
   12.3922   -3.0642   -1.4794 O   0  0  0  0  0  0  0  0  0  0  0  0
   12.9890   -2.6959    0.7056 N   0  0  0  0  0  0  0  0  0  0  0  0
   11.7529   -2.1081    1.1716 C   0  0  2  0  0  0  0  0  0  0  0  0
   11.6300   -2.2114    2.2591 H   0  0  0  0  0  0  0  0  0  0  0  0
   10.6654   -2.7590    0.4614 N   0  0  0  0  0  0  0  0  0  0  0  0
   10.0137   -1.7907   -0.0727 C   0  0  0  0  0  0  0  0  0  0  0  0
    8.9365   -2.1578   -0.7547 N   0  0  0  0  0  0  0  0  0  0  0  0
    9.2135   -2.9380   -1.3229 H   0  0  0  0  0  0  0  0  0  0  0  0
    8.2180   -2.3744   -0.0849 H   0  0  0  0  0  0  0  0  0  0  0  0
   10.3523   -0.5195    0.1555 O   0  0  0  0  0  0  0  0  0  0  0  0
   11.6318   -0.6418    0.7593 C   0  0  0  0  0  0  0  0  0  0  0  0
   11.7201    0.0223    1.6070 H   0  0  0  0  0  0  0  0  0  0  0  0
   12.4124   -0.3724    0.0463 H   0  0  0  0  0  0  0  0  0  0  0  0
   14.1889   -2.6222    1.3636 C   0  0  0  0  0  0  0  0  0  0  0  0
   14.3838   -2.2715    2.6668 N   0  0  0  0  0  0  0  0  0  0  0  0
   13.5844   -2.1257    3.2790 H   0  0  0  0  0  0  0  0  0  0  0  0
   15.3223   -2.3560    3.0582 H   0  0  0  0  0  0  0  0  0  0  0  0
   15.1868   -2.9146    0.6025 N   0  0  0  0  0  4  0  0  0  0  0  0
   16.1564   -2.9315    0.9239 H   0  0  0  0  0  0  0  0  0  0  0  0
   15.2965   -0.8529   -1.5010 C   0  0  0  0  0  0  0  0  0  0  0  0
   14.8628   -0.5151   -0.5665 H   0  0  0  0  0  0  0  0  0  0  0  0
   15.4417    2.0158   -0.7970 C   0  0  0  0  0  0  0  0  0  0  0  0
   15.3204    1.2929    0.0021 H   0  0  0  0  0  0  0  0  0  0  0  0
   15.3780    3.3896   -0.5543 C   0  0  0  0  0  0  0  0  0  0  0  0
   15.1790    3.7739    0.4392 H   0  0  0  0  0  0  0  0  0  0  0  0
  1  2  1  0
  2  3  2  0
  3  4  1  0
  4  5  1  0
  4  6  2  0
  6  7  1  0
  7  8  2  0
  8  9  1  0
  8 10  1  0
 10 11  1  0
 10 12  2  0
 12 13  1  0
 12 14  1  0
 15 14  1  6
 15 16  1  0
 16 17  2  0
 17 18  1  0
 17 19  1  0
 19 20  1  0
 19 21  2  0
 21 22  1  0
 21 23  1  0
 23 24  1  0
 23 25  2  0
 25 26  1  0
 15 27  1  0
 27 28  2  0
 27 29  1  0
 29 30  1  0
 30 31  1  1
 30 32  1  0
 32 33  2  0
 33 34  1  0
 34 35  1  0
 34 36  1  0
 33 37  1  0
 37 38  1  0
 38 39  1  0
 38 40  1  0
 29 41  1  0
 41 42  1  0
 42 43  1  0
 42 44  1  0
 41 45  2  0
 45 46  1  0
 14 47  2  0
 47 48  1  0
  6 49  1  0
 49 50  1  0
 49 51  2  0
 51 52  1  0
 51  2  1  0
 47  7  1  0
 45 15  1  0
 25 16  1  0
 38 30  1  0
M  CHG  1  45   1
M  END
>  <score>  (431) 
5.34357

$$$$

     RDKit          3D

 56 60  0  0  0  0  0  0  0  0999 V2000
   15.5519    5.3487   -1.3960 H   0  0  0  0  0  0  0  0  0  0  0  0
   15.5865    4.2827   -1.6059 C   0  0  0  0  0  0  0  0  0  0  0  0
   15.8239    3.8671   -2.8594 N   0  0  0  0  0  0  0  0  0  0  0  0
   15.8799    2.5409   -3.0945 C   0  0  0  0  0  0  0  0  0  0  0  0
   16.0733    2.1997   -4.1067 H   0  0  0  0  0  0  0  0  0  0  0  0
   15.6979    1.5684   -2.0969 C   0  0  0  0  0  0  0  0  0  0  0  0
   15.7736    0.1223   -2.4034 C   0  0  0  0  0  0  0  0  0  0  0  0
   16.3309   -0.3180   -3.6077 C   0  0  0  0  0  0  0  0  0  0  0  0
   16.7099    0.4249   -4.3020 H   0  0  0  0  0  0  0  0  0  0  0  0
   16.4162   -1.6851   -3.9000 C   0  0  0  0  0  0  0  0  0  0  0  0
   16.8621   -2.0061   -4.8359 H   0  0  0  0  0  0  0  0  0  0  0  0
   15.9309   -2.6329   -2.9883 C   0  0  0  0  0  0  0  0  0  0  0  0
   15.9934   -3.6913   -3.2277 H   0  0  0  0  0  0  0  0  0  0  0  0
   15.3657   -2.2275   -1.7666 C   0  0  0  0  0  0  0  0  0  0  0  0
   14.7904   -3.2348   -0.7645 C   0  0  2  0  0  0  0  0  0  0  0  0
   15.1677   -4.6948   -1.0615 C   0  0  0  0  0  0  0  0  0  0  0  0
   16.3902   -5.2163   -0.6015 C   0  0  0  0  0  0  0  0  0  0  0  0
   17.0698   -4.5681   -0.0558 H   0  0  0  0  0  0  0  0  0  0  0  0
   16.7317   -6.5612   -0.8016 C   0  0  0  0  0  0  0  0  0  0  0  0
   17.6698   -6.9497   -0.4149 H   0  0  0  0  0  0  0  0  0  0  0  0
   15.8561   -7.4117   -1.4808 C   0  0  0  0  0  0  0  0  0  0  0  0
   16.1059   -8.4613   -1.6152 H   0  0  0  0  0  0  0  0  0  0  0  0
   14.6450   -6.9103   -1.9654 C   0  0  0  0  0  0  0  0  0  0  0  0
   13.9638   -7.5765   -2.4878 H   0  0  0  0  0  0  0  0  0  0  0  0
   14.3037   -5.5622   -1.7594 C   0  0  0  0  0  0  0  0  0  0  0  0
   13.3519   -5.1921   -2.1277 H   0  0  0  0  0  0  0  0  0  0  0  0
   13.2675   -3.0183   -0.5934 C   0  0  0  0  0  0  0  0  0  0  0  0
   12.4143   -3.1098   -1.4754 O   0  0  0  0  0  0  0  0  0  0  0  0
   12.9924   -2.6907    0.7170 N   0  0  0  0  0  0  0  0  0  0  0  0
   11.7286   -2.4934    1.2742 C   0  0  0  0  0  0  0  0  0  0  0  0
   10.8199   -1.6046    0.7030 C   0  0  0  0  0  0  0  0  0  0  0  0
   11.1329   -1.0332   -0.1655 H   0  0  0  0  0  0  0  0  0  0  0  0
    9.5460   -1.4278    1.2674 C   0  0  0  0  0  0  0  0  0  0  0  0
    8.8642   -0.7053    0.8204 H   0  0  0  0  0  0  0  0  0  0  0  0
    9.1720   -2.1942    2.3901 C   0  0  0  0  0  0  0  0  0  0  0  0
    8.1890   -2.0854    2.8345 H   0  0  0  0  0  0  0  0  0  0  0  0
   10.0713   -3.1327    2.9341 C   0  0  0  0  0  0  0  0  0  0  0  0
    9.7826   -4.0251    3.9402 O   0  0  0  0  0  0  0  0  0  0  0  0
    8.5517   -3.8364    4.6204 C   0  0  0  0  0  0  0  0  0  0  0  0
    8.4628   -4.5361    5.4582 H   0  0  0  0  0  0  0  0  0  0  0  0
    8.5256   -2.8126    4.9923 H   0  0  0  0  0  0  0  0  0  0  0  0
    7.7220   -4.0166    3.9366 H   0  0  0  0  0  0  0  0  0  0  0  0
   11.3493   -3.2263    2.3952 C   0  0  0  0  0  0  0  0  0  0  0  0
   12.0425   -3.9213    2.8479 H   0  0  0  0  0  0  0  0  0  0  0  0
   14.1931   -2.6613    1.3924 C   0  0  0  0  0  0  0  0  0  0  0  0
   14.3878   -2.3741    2.7131 N   0  0  0  0  0  0  0  0  0  0  0  0
   15.3401   -2.3385    3.0746 H   0  0  0  0  0  0  0  0  0  0  0  0
   13.6076   -2.0469    3.2812 H   0  0  0  0  0  0  0  0  0  0  0  0
   15.1998   -2.9134    0.6206 N   0  0  0  0  0  4  0  0  0  0  0  0
   16.1681   -2.9495    0.9478 H   0  0  0  0  0  0  0  0  0  0  0  0
   15.2986   -0.8432   -1.4972 C   0  0  0  0  0  0  0  0  0  0  0  0
   14.8635   -0.4982   -0.5647 H   0  0  0  0  0  0  0  0  0  0  0  0
   15.4497    2.0106   -0.7991 C   0  0  0  0  0  0  0  0  0  0  0  0
   15.3383    1.2732   -0.0109 H   0  0  0  0  0  0  0  0  0  0  0  0
   15.3843    3.3842   -0.5570 C   0  0  0  0  0  0  0  0  0  0  0  0
   15.1833    3.7694    0.4348 H   0  0  0  0  0  0  0  0  0  0  0  0
  1  2  1  0
  2  3  2  0
  3  4  1  0
  4  5  1  0
  4  6  2  0
  6  7  1  0
  7  8  2  0
  8  9  1  0
  8 10  1  0
 10 11  1  0
 10 12  2  0
 12 13  1  0
 12 14  1  0
 15 14  1  6
 15 16  1  0
 16 17  2  0
 17 18  1  0
 17 19  1  0
 19 20  1  0
 19 21  2  0
 21 22  1  0
 21 23  1  0
 23 24  1  0
 23 25  2  0
 25 26  1  0
 15 27  1  0
 27 28  2  0
 27 29  1  0
 29 30  1  0
 30 31  2  0
 31 32  1  0
 31 33  1  0
 33 34  1  0
 33 35  2  0
 35 36  1  0
 35 37  1  0
 37 38  1  0
 38 39  1  0
 39 40  1  0
 39 41  1  0
 39 42  1  0
 37 43  2  0
 43 44  1  0
 29 45  1  0
 45 46  1  0
 46 47  1  0
 46 48  1  0
 45 49  2  0
 49 50  1  0
 14 51  2  0
 51 52  1  0
  6 53  1  0
 53 54  1  0
 53 55  2  0
 55 56  1  0
 55  2  1  0
 51  7  1  0
 49 15  1  0
 25 16  1  0
 43 30  1  0
M  CHG  1  49   1
M  END
>  <score>  (432) 
5.34085

$$$$

     RDKit          3D

 58 61  0  0  0  0  0  0  0  0999 V2000
   15.5121    5.3155   -1.4335 H   0  0  0  0  0  0  0  0  0  0  0  0
   15.5998    4.2498   -1.6177 C   0  0  0  0  0  0  0  0  0  0  0  0
   15.8527    3.8309   -2.8670 N   0  0  0  0  0  0  0  0  0  0  0  0
   15.9266    2.5058   -3.0883 C   0  0  0  0  0  0  0  0  0  0  0  0
   16.1312    2.1658   -4.0992 H   0  0  0  0  0  0  0  0  0  0  0  0
   15.7373    1.5473   -2.0788 C   0  0  0  0  0  0  0  0  0  0  0  0
   15.7796    0.1099   -2.3719 C   0  0  0  0  0  0  0  0  0  0  0  0
   16.3163   -0.3496   -3.5794 C   0  0  0  0  0  0  0  0  0  0  0  0
   16.6950    0.3633   -4.3031 H   0  0  0  0  0  0  0  0  0  0  0  0
   16.3794   -1.7155   -3.8570 C   0  0  0  0  0  0  0  0  0  0  0  0
   16.8026   -2.0532   -4.7967 H   0  0  0  0  0  0  0  0  0  0  0  0
   15.9037   -2.6387   -2.9232 C   0  0  0  0  0  0  0  0  0  0  0  0
   15.9441   -3.7011   -3.1447 H   0  0  0  0  0  0  0  0  0  0  0  0
   15.3691   -2.2087   -1.7000 C   0  0  0  0  0  0  0  0  0  0  0  0
   14.8205   -3.2031   -0.6923 C   0  0  2  0  0  0  0  0  0  0  0  0
   15.1829   -4.6407   -1.0075 C   0  0  0  0  0  0  0  0  0  0  0  0
   16.4062   -5.1629   -0.5714 C   0  0  0  0  0  0  0  0  0  0  0  0
   17.0962   -4.5215   -0.0300 H   0  0  0  0  0  0  0  0  0  0  0  0
   16.7318   -6.4987   -0.8052 C   0  0  0  0  0  0  0  0  0  0  0  0
   17.6759   -6.8837   -0.4339 H   0  0  0  0  0  0  0  0  0  0  0  0
   15.8401   -7.3238   -1.4994 C   0  0  0  0  0  0  0  0  0  0  0  0
   16.0896   -8.3657   -1.6721 H   0  0  0  0  0  0  0  0  0  0  0  0
   14.6260   -6.8058   -1.9642 C   0  0  0  0  0  0  0  0  0  0  0  0
   13.9295   -7.4369   -2.5075 H   0  0  0  0  0  0  0  0  0  0  0  0
   14.2992   -5.4690   -1.7194 C   0  0  0  0  0  0  0  0  0  0  0  0
   13.3509   -5.0768   -2.0761 H   0  0  0  0  0  0  0  0  0  0  0  0
   13.3021   -3.0201   -0.5436 C   0  0  0  0  0  0  0  0  0  0  0  0
   12.4121   -3.2272   -1.3640 O   0  0  0  0  0  0  0  0  0  0  0  0
   13.0428   -2.7662    0.7600 N   0  0  0  0  0  0  0  0  0  0  0  0
   11.7946   -2.6658    1.2573 C   0  0  0  0  0  0  0  0  0  0  0  0
   10.8750   -2.3514    0.5219 O   0  0  0  0  0  0  0  0  0  0  0  0
   11.6248   -3.0100    2.5689 N   0  0  0  0  0  0  0  0  0  0  0  0
   12.3746   -3.5796    2.9567 H   0  0  0  0  0  0  0  0  0  0  0  0
   10.3095   -3.0758    3.1819 C   0  0  0  0  0  0  0  0  0  0  0  0
   10.4032   -3.3186    4.2476 H   0  0  0  0  0  0  0  0  0  0  0  0
    9.8190   -2.0959    3.1189 H   0  0  0  0  0  0  0  0  0  0  0  0
    9.4441   -4.1358    2.5024 C   0  0  0  0  0  0  0  0  0  0  0  0
    9.9200   -5.1152    2.6100 H   0  0  0  0  0  0  0  0  0  0  0  0
    9.3322   -3.9283    1.4270 H   0  0  0  0  0  0  0  0  0  0  0  0
    8.1003   -4.1160    3.2230 C   0  0  0  0  0  0  0  0  0  0  0  0
    8.2734   -4.1400    4.3053 H   0  0  0  0  0  0  0  0  0  0  0  0
    7.5061   -4.9895    2.9392 H   0  0  0  0  0  0  0  0  0  0  0  0
    7.3640   -2.8401    2.8557 C   0  0  0  0  0  0  0  0  0  0  0  0
    7.1592   -2.8411    1.7864 H   0  0  0  0  0  0  0  0  0  0  0  0
    6.4238   -2.7754    3.4059 H   0  0  0  0  0  0  0  0  0  0  0  0
    7.9656   -1.9542    3.0756 H   0  0  0  0  0  0  0  0  0  0  0  0
   14.1972   -2.7301    1.4629 C   0  0  0  0  0  0  0  0  0  0  0  0
   14.3010   -2.4969    2.7915 N   0  0  0  0  0  0  0  0  0  0  0  0
   15.2261   -2.2054    3.1021 H   0  0  0  0  0  0  0  0  0  0  0  0
   13.4891   -2.0985    3.2580 H   0  0  0  0  0  0  0  0  0  0  0  0
   15.2185   -2.9082    0.7024 N   0  0  0  0  0  4  0  0  0  0  0  0
   16.1746   -3.0060    1.0550 H   0  0  0  0  0  0  0  0  0  0  0  0
   15.2914   -0.8283   -1.4484 C   0  0  0  0  0  0  0  0  0  0  0  0
   14.8448   -0.4741   -0.5234 H   0  0  0  0  0  0  0  0  0  0  0  0
   15.5134    1.9938   -0.7781 C   0  0  0  0  0  0  0  0  0  0  0  0
   15.4079    1.2809    0.0344 H   0  0  0  0  0  0  0  0  0  0  0  0
   15.4379    3.3623   -0.5508 C   0  0  0  0  0  0  0  0  0  0  0  0
   15.2458    3.7324    0.4478 H   0  0  0  0  0  0  0  0  0  0  0  0
  1  2  1  0
  2  3  2  0
  3  4  1  0
  4  5  1  0
  4  6  2  0
  6  7  1  0
  7  8  2  0
  8  9  1  0
  8 10  1  0
 10 11  1  0
 10 12  2  0
 12 13  1  0
 12 14  1  0
 15 14  1  6
 15 16  1  0
 16 17  2  0
 17 18  1  0
 17 19  1  0
 19 20  1  0
 19 21  2  0
 21 22  1  0
 21 23  1  0
 23 24  1  0
 23 25  2  0
 25 26  1  0
 15 27  1  0
 27 28  2  0
 27 29  1  0
 29 30  1  0
 30 31  2  0
 30 32  1  0
 32 33  1  0
 32 34  1  0
 34 35  1  0
 34 36  1  0
 34 37  1  0
 37 38  1  0
 37 39  1  0
 37 40  1  0
 40 41  1  0
 40 42  1  0
 40 43  1  0
 43 44  1  0
 43 45  1  0
 43 46  1  0
 29 47  1  0
 47 48  1  0
 48 49  1  0
 48 50  1  0
 47 51  2  0
 51 52  1  0
 14 53  2  0
 53 54  1  0
  6 55  1  0
 55 56  1  0
 55 57  2  0
 57 58  1  0
 57  2  1  0
 53  7  1  0
 51 15  1  0
 25 16  1  0
M  CHG  1  51   1
M  END
>  <score>  (433) 
5.33343

$$$$

     RDKit          3D

 54 57  0  0  0  0  0  0  0  0999 V2000
   15.5114    5.3199   -1.4225 H   0  0  0  0  0  0  0  0  0  0  0  0
   15.5938    4.2554   -1.6148 C   0  0  0  0  0  0  0  0  0  0  0  0
   15.8413    3.8464   -2.8688 N   0  0  0  0  0  0  0  0  0  0  0  0
   15.9271    2.5234   -3.0973 C   0  0  0  0  0  0  0  0  0  0  0  0
   16.1292    2.1871   -4.1092 H   0  0  0  0  0  0  0  0  0  0  0  0
   15.7620    1.5542   -2.0957 C   0  0  0  0  0  0  0  0  0  0  0  0
   15.8461    0.1188   -2.4110 C   0  0  0  0  0  0  0  0  0  0  0  0
   16.3569   -0.3218   -3.6391 C   0  0  0  0  0  0  0  0  0  0  0  0
   16.6957    0.4058   -4.3696 H   0  0  0  0  0  0  0  0  0  0  0  0
   16.4399   -1.6879   -3.9285 C   0  0  0  0  0  0  0  0  0  0  0  0
   16.8369   -2.0040   -4.8886 H   0  0  0  0  0  0  0  0  0  0  0  0
   16.0072   -2.6313   -2.9867 C   0  0  0  0  0  0  0  0  0  0  0  0
   16.0656   -3.6891   -3.2239 H   0  0  0  0  0  0  0  0  0  0  0  0
   15.4819   -2.2173   -1.7508 C   0  0  0  0  0  0  0  0  0  0  0  0
   14.9114   -3.1974   -0.7367 C   0  0  2  0  0  0  0  0  0  0  0  0
   15.2679   -4.6501   -1.0202 C   0  0  0  0  0  0  0  0  0  0  0  0
   16.4840   -5.2002   -0.5773 C   0  0  0  0  0  0  0  0  0  0  0  0
   17.1998   -4.5816   -0.0441 H   0  0  0  0  0  0  0  0  0  0  0  0
   16.7781   -6.5511   -0.7982 C   0  0  0  0  0  0  0  0  0  0  0  0
   17.7142   -6.9681   -0.4370 H   0  0  0  0  0  0  0  0  0  0  0  0
   15.8662   -7.3634   -1.4817 C   0  0  0  0  0  0  0  0  0  0  0  0
   16.0917   -8.4106   -1.6594 H   0  0  0  0  0  0  0  0  0  0  0  0
   14.6674   -6.8221   -1.9566 C   0  0  0  0  0  0  0  0  0  0  0  0
   13.9561   -7.4411   -2.4969 H   0  0  0  0  0  0  0  0  0  0  0  0
   14.3767   -5.4739   -1.7294 C   0  0  0  0  0  0  0  0  0  0  0  0
   13.4401   -5.0717   -2.1009 H   0  0  0  0  0  0  0  0  0  0  0  0
   13.3940   -2.9609   -0.6360 C   0  0  0  0  0  0  0  0  0  0  0  0
   12.5616   -3.2558   -1.5006 O   0  0  0  0  0  0  0  0  0  0  0  0
   13.0926   -2.3901    0.5964 N   0  0  0  0  0  0  0  0  0  0  0  0
   11.7685   -2.1083    1.1128 N   0  0  0  0  0  0  0  0  0  0  0  0
   11.3176   -1.3080    0.6458 H   0  0  0  0  0  0  0  0  0  0  0  0
   10.8792   -3.2820    1.1743 C   0  0  0  0  0  0  0  0  0  0  0  0
   10.8088   -3.7629    0.1918 H   0  0  0  0  0  0  0  0  0  0  0  0
    9.8661   -2.9767    1.4477 H   0  0  0  0  0  0  0  0  0  0  0  0
   11.4232   -4.2776    2.2063 C   0  0  0  0  0  0  0  0  0  0  0  0
   11.4495   -3.8165    3.1996 H   0  0  0  0  0  0  0  0  0  0  0  0
   12.4478   -4.5761    1.9534 H   0  0  0  0  0  0  0  0  0  0  0  0
   10.5699   -5.4237    2.2234 O   0  0  0  0  0  0  0  0  0  0  0  0
   10.9817   -6.3821    3.2011 C   0  0  0  0  0  0  0  0  0  0  0  0
   10.9930   -5.9452    4.2070 H   0  0  0  0  0  0  0  0  0  0  0  0
   10.2766   -7.2148    3.2002 H   0  0  0  0  0  0  0  0  0  0  0  0
   11.9798   -6.7745    2.9734 H   0  0  0  0  0  0  0  0  0  0  0  0
   14.2763   -2.4661    1.3368 C   0  0  0  0  0  0  0  0  0  0  0  0
   14.4692   -2.2942    2.6790 N   0  0  0  0  0  0  0  0  0  0  0  0
   13.6929   -1.9774    3.2594 H   0  0  0  0  0  0  0  0  0  0  0  0
   15.4250   -2.2768    3.0342 H   0  0  0  0  0  0  0  0  0  0  0  0
   15.3005   -2.8346    0.6378 N   0  0  0  0  0  4  0  0  0  0  0  0
   16.2019   -3.0904    1.0515 H   0  0  0  0  0  0  0  0  0  0  0  0
   15.4004   -0.8391   -1.4899 C   0  0  0  0  0  0  0  0  0  0  0  0
   14.9640   -0.5040   -0.5545 H   0  0  0  0  0  0  0  0  0  0  0  0
   15.5208    1.9909   -0.7907 C   0  0  0  0  0  0  0  0  0  0  0  0
   15.4123    1.2756    0.0201 H   0  0  0  0  0  0  0  0  0  0  0  0
   15.4342    3.3593   -0.5537 C   0  0  0  0  0  0  0  0  0  0  0  0
   15.2408    3.7264    0.4473 H   0  0  0  0  0  0  0  0  0  0  0  0
  1  2  1  0
  2  3  2  0
  3  4  1  0
  4  5  1  0
  4  6  2  0
  6  7  1  0
  7  8  2  0
  8  9  1  0
  8 10  1  0
 10 11  1  0
 10 12  2  0
 12 13  1  0
 12 14  1  0
 15 14  1  6
 15 16  1  0
 16 17  2  0
 17 18  1  0
 17 19  1  0
 19 20  1  0
 19 21  2  0
 21 22  1  0
 21 23  1  0
 23 24  1  0
 23 25  2  0
 25 26  1  0
 15 27  1  0
 27 28  2  0
 27 29  1  0
 29 30  1  0
 30 31  1  0
 30 32  1  0
 32 33  1  0
 32 34  1  0
 32 35  1  0
 35 36  1  0
 35 37  1  0
 35 38  1  0
 38 39  1  0
 39 40  1  0
 39 41  1  0
 39 42  1  0
 29 43  1  0
 43 44  1  0
 44 45  1  0
 44 46  1  0
 43 47  2  0
 47 48  1  0
 14 49  2  0
 49 50  1  0
  6 51  1  0
 51 52  1  0
 51 53  2  0
 53 54  1  0
 53  2  1  0
 49  7  1  0
 47 15  1  0
 25 16  1  0
M  CHG  1  47   1
M  END
>  <score>  (434) 
5.33315

$$$$

     RDKit          3D

 55 59  0  0  0  0  0  0  0  0999 V2000
   15.5692    5.3251   -1.4162 H   0  0  0  0  0  0  0  0  0  0  0  0
   15.6360    4.2578   -1.6072 C   0  0  0  0  0  0  0  0  0  0  0  0
   15.8729    3.8323   -2.8582 N   0  0  0  0  0  0  0  0  0  0  0  0
   15.9363    2.5059   -3.0819 C   0  0  0  0  0  0  0  0  0  0  0  0
   16.1126    2.1739   -4.1008 H   0  0  0  0  0  0  0  0  0  0  0  0
   15.7691    1.5432   -2.0709 C   0  0  0  0  0  0  0  0  0  0  0  0
   15.8209    0.0985   -2.3635 C   0  0  0  0  0  0  0  0  0  0  0  0
   16.3365   -0.3762   -3.5776 C   0  0  0  0  0  0  0  0  0  0  0  0
   16.7168    0.3267   -4.3110 H   0  0  0  0  0  0  0  0  0  0  0  0
   16.3740   -1.7471   -3.8493 C   0  0  0  0  0  0  0  0  0  0  0  0
   16.7777   -2.0946   -4.7944 H   0  0  0  0  0  0  0  0  0  0  0  0
   15.8858   -2.6616   -2.9110 C   0  0  0  0  0  0  0  0  0  0  0  0
   15.9031   -3.7232   -3.1420 H   0  0  0  0  0  0  0  0  0  0  0  0
   15.3668   -2.2164   -1.6830 C   0  0  0  0  0  0  0  0  0  0  0  0
   14.7654   -3.1756   -0.6668 C   0  0  2  0  0  0  0  0  0  0  0  0
   15.1387   -4.6317   -0.9540 C   0  0  0  0  0  0  0  0  0  0  0  0
   16.3739   -5.1468   -0.5222 C   0  0  0  0  0  0  0  0  0  0  0  0
   17.0553   -4.5101    0.0324 H   0  0  0  0  0  0  0  0  0  0  0  0
   16.7408   -6.4711   -0.7884 C   0  0  0  0  0  0  0  0  0  0  0  0
   17.6978   -6.8459   -0.4334 H   0  0  0  0  0  0  0  0  0  0  0  0
   15.8766   -7.3059   -1.5020 C   0  0  0  0  0  0  0  0  0  0  0  0
   16.1563   -8.3371   -1.7010 H   0  0  0  0  0  0  0  0  0  0  0  0
   14.6520   -6.8052   -1.9607 C   0  0  0  0  0  0  0  0  0  0  0  0
   13.9800   -7.4466   -2.5230 H   0  0  0  0  0  0  0  0  0  0  0  0
   14.2890   -5.4772   -1.6904 C   0  0  0  0  0  0  0  0  0  0  0  0
   13.3376   -5.1035   -2.0563 H   0  0  0  0  0  0  0  0  0  0  0  0
   13.2517   -2.9077   -0.5571 C   0  0  0  0  0  0  0  0  0  0  0  0
   12.3811   -3.2400   -1.3619 O   0  0  0  0  0  0  0  0  0  0  0  0
   12.9543   -2.3321    0.6657 N   0  0  0  0  0  0  0  0  0  0  0  0
   11.6150   -2.4102    1.2459 C   0  0  0  0  0  0  0  0  0  0  0  0
   11.5026   -1.7087    2.0839 H   0  0  0  0  0  0  0  0  0  0  0  0
   10.8301   -2.1702    0.5129 H   0  0  0  0  0  0  0  0  0  0  0  0
   11.5129   -3.8413    1.6978 C   0  0  0  0  0  0  0  0  0  0  0  0
   11.2548   -4.8574    0.7704 C   0  0  0  0  0  0  0  0  0  0  0  0
   10.9794   -4.6019   -0.2484 H   0  0  0  0  0  0  0  0  0  0  0  0
   11.4504   -6.1925    1.1303 C   0  0  0  0  0  0  0  0  0  0  0  0
   11.3276   -6.9855    0.4034 H   0  0  0  0  0  0  0  0  0  0  0  0
   11.8690   -6.5278    2.4159 C   0  0  0  0  0  0  0  0  0  0  0  0
   12.2291   -8.1925    2.7532 Cl  0  0  0  0  0  0  0  0  0  0  0  0
   12.0395   -5.5213    3.3737 C   0  0  0  0  0  0  0  0  0  0  0  0
   12.3734   -5.7409    4.3813 H   0  0  0  0  0  0  0  0  0  0  0  0
   11.8675   -4.1866    3.0039 C   0  0  0  0  0  0  0  0  0  0  0  0
   12.0920   -3.4024    3.7092 H   0  0  0  0  0  0  0  0  0  0  0  0
   14.1120   -2.4470    1.4145 C   0  0  0  0  0  0  0  0  0  0  0  0
   14.2342   -2.3181    2.7704 N   0  0  0  0  0  0  0  0  0  0  0  0
   15.1776   -2.2636    3.1561 H   0  0  0  0  0  0  0  0  0  0  0  0
   13.4460   -1.9502    3.3004 H   0  0  0  0  0  0  0  0  0  0  0  0
   15.1369   -2.8079    0.7159 N   0  0  0  0  0  4  0  0  0  0  0  0
   16.0401   -3.0404    1.1276 H   0  0  0  0  0  0  0  0  0  0  0  0
   15.3401   -0.8344   -1.4310 C   0  0  0  0  0  0  0  0  0  0  0  0
   14.9204   -0.4796   -0.4939 H   0  0  0  0  0  0  0  0  0  0  0  0
   15.5442    1.9989   -0.7692 C   0  0  0  0  0  0  0  0  0  0  0  0
   15.4420    1.2922    0.0492 H   0  0  0  0  0  0  0  0  0  0  0  0
   15.4676    3.3706   -0.5430 C   0  0  0  0  0  0  0  0  0  0  0  0
   15.2785    3.7521    0.4531 H   0  0  0  0  0  0  0  0  0  0  0  0
  1  2  1  0
  2  3  2  0
  3  4  1  0
  4  5  1  0
  4  6  2  0
  6  7  1  0
  7  8  2  0
  8  9  1  0
  8 10  1  0
 10 11  1  0
 10 12  2  0
 12 13  1  0
 12 14  1  0
 15 14  1  6
 15 16  1  0
 16 17  2  0
 17 18  1  0
 17 19  1  0
 19 20  1  0
 19 21  2  0
 21 22  1  0
 21 23  1  0
 23 24  1  0
 23 25  2  0
 25 26  1  0
 15 27  1  0
 27 28  2  0
 27 29  1  0
 29 30  1  0
 30 31  1  0
 30 32  1  0
 30 33  1  0
 33 34  2  0
 34 35  1  0
 34 36  1  0
 36 37  1  0
 36 38  2  0
 38 39  1  0
 38 40  1  0
 40 41  1  0
 40 42  2  0
 42 43  1  0
 29 44  1  0
 44 45  1  0
 45 46  1  0
 45 47  1  0
 44 48  2  0
 48 49  1  0
 14 50  2  0
 50 51  1  0
  6 52  1  0
 52 53  1  0
 52 54  2  0
 54 55  1  0
 54  2  1  0
 50  7  1  0
 48 15  1  0
 25 16  1  0
 42 33  1  0
M  CHG  1  48   1
M  END
>  <score>  (435) 
5.33199

$$$$

     RDKit          3D

 64 68  0  0  0  0  0  0  0  0999 V2000
   15.5238    5.3296   -1.4082 H   0  0  0  0  0  0  0  0  0  0  0  0
   15.6074    4.2643   -1.6064 C   0  0  0  0  0  0  0  0  0  0  0  0
   15.8546    3.8534   -2.8599 N   0  0  0  0  0  0  0  0  0  0  0  0
   15.9476    2.5303   -3.0925 C   0  0  0  0  0  0  0  0  0  0  0  0
   16.1376    2.1988   -4.1080 H   0  0  0  0  0  0  0  0  0  0  0  0
   15.7912    1.5561   -2.0952 C   0  0  0  0  0  0  0  0  0  0  0  0
   15.8665    0.1177   -2.4198 C   0  0  0  0  0  0  0  0  0  0  0  0
   16.3700   -0.3362   -3.6486 C   0  0  0  0  0  0  0  0  0  0  0  0
   16.7215    0.3829   -4.3814 H   0  0  0  0  0  0  0  0  0  0  0  0
   16.4314   -1.7078   -3.9340 C   0  0  0  0  0  0  0  0  0  0  0  0
   16.8293   -2.0422   -4.8882 H   0  0  0  0  0  0  0  0  0  0  0  0
   15.9844   -2.6434   -2.9901 C   0  0  0  0  0  0  0  0  0  0  0  0
   16.0393   -3.7048   -3.2207 H   0  0  0  0  0  0  0  0  0  0  0  0
   15.4629   -2.2139   -1.7546 C   0  0  0  0  0  0  0  0  0  0  0  0
   14.9054   -3.1751   -0.7107 C   0  0  2  0  0  0  0  0  0  0  0  0
   15.2596   -4.6281   -1.0001 C   0  0  0  0  0  0  0  0  0  0  0  0
   16.4769   -5.1785   -0.5674 C   0  0  0  0  0  0  0  0  0  0  0  0
   17.1848   -4.5551   -0.0290 H   0  0  0  0  0  0  0  0  0  0  0  0
   16.7823   -6.5235   -0.8109 C   0  0  0  0  0  0  0  0  0  0  0  0
   17.7224   -6.9368   -0.4565 H   0  0  0  0  0  0  0  0  0  0  0  0
   15.8742   -7.3342   -1.5016 C   0  0  0  0  0  0  0  0  0  0  0  0
   16.0985   -8.3825   -1.6763 H   0  0  0  0  0  0  0  0  0  0  0  0
   14.6727   -6.7913   -1.9671 C   0  0  0  0  0  0  0  0  0  0  0  0
   13.9664   -7.4121   -2.5106 H   0  0  0  0  0  0  0  0  0  0  0  0
   14.3730   -5.4469   -1.7228 C   0  0  0  0  0  0  0  0  0  0  0  0
   13.4380   -5.0385   -2.0929 H   0  0  0  0  0  0  0  0  0  0  0  0
   13.3832   -2.9779   -0.5338 C   0  0  0  0  0  0  0  0  0  0  0  0
   12.5253   -3.2551   -1.3751 O   0  0  0  0  0  0  0  0  0  0  0  0
   13.0992   -2.5293    0.7563 N   0  0  0  0  0  0  0  0  0  0  0  0
   11.8163   -2.6036    1.4521 N   0  0  0  0  0  0  0  0  0  0  0  0
   11.1351   -1.8551    1.3386 H   0  0  0  0  0  0  0  0  0  0  0  0
   11.4299   -3.5714    2.3727 C   0  0  0  0  0  0  0  0  0  0  0  0
   12.1180   -4.5421    2.6443 O   0  0  0  0  0  0  0  0  0  0  0  0
   10.1876   -3.4208    2.9246 N   0  0  0  0  0  0  0  0  0  0  0  0
    9.7008   -2.5545    2.7224 H   0  0  0  0  0  0  0  0  0  0  0  0
    9.6122   -4.3723    3.8601 C   0  0  0  0  0  0  0  0  0  0  0  0
   10.3575   -4.6512    4.6196 H   0  0  0  0  0  0  0  0  0  0  0  0
    9.1707   -5.6525    3.1144 C   0  0  0  0  0  0  0  0  0  0  0  0
    9.9762   -6.3845    3.2307 H   0  0  0  0  0  0  0  0  0  0  0  0
    9.0812   -5.4570    2.0394 H   0  0  0  0  0  0  0  0  0  0  0  0
    7.8541   -6.2586    3.6494 C   0  0  0  0  0  0  0  0  0  0  0  0
    6.9907   -5.8252    3.1338 H   0  0  0  0  0  0  0  0  0  0  0  0
    7.8351   -7.3397    3.4523 H   0  0  0  0  0  0  0  0  0  0  0  0
    7.7422   -6.0103    5.1524 C   0  0  0  0  0  0  0  0  0  0  0  0
    6.8439   -6.5003    5.5360 H   0  0  0  0  0  0  0  0  0  0  0  0
    8.6258   -6.4644    5.6148 H   0  0  0  0  0  0  0  0  0  0  0  0
    7.7063   -4.5252    5.5366 C   0  0  0  0  0  0  0  0  0  0  0  0
    6.6665   -4.1764    5.6034 H   0  0  0  0  0  0  0  0  0  0  0  0
    8.1644   -4.4286    6.5288 H   0  0  0  0  0  0  0  0  0  0  0  0
    8.4654   -3.6370    4.5459 C   0  0  0  0  0  0  0  0  0  0  0  0
    7.7850   -3.2719    3.7696 H   0  0  0  0  0  0  0  0  0  0  0  0
    8.8610   -2.7716    5.0898 H   0  0  0  0  0  0  0  0  0  0  0  0
   14.3325   -2.4338    1.3895 C   0  0  0  0  0  0  0  0  0  0  0  0
   14.5296   -2.1052    2.6990 N   0  0  0  0  0  0  0  0  0  0  0  0
   13.7268   -2.2053    3.3153 H   0  0  0  0  0  0  0  0  0  0  0  0
   15.4498   -2.3275    3.0732 H   0  0  0  0  0  0  0  0  0  0  0  0
   15.3307   -2.7767    0.6469 N   0  0  0  0  0  4  0  0  0  0  0  0
   16.2781   -2.9199    1.0077 H   0  0  0  0  0  0  0  0  0  0  0  0
   15.4117   -0.8343   -1.4995 C   0  0  0  0  0  0  0  0  0  0  0  0
   14.9987   -0.4913   -0.5579 H   0  0  0  0  0  0  0  0  0  0  0  0
   15.5493    1.9945   -0.7884 C   0  0  0  0  0  0  0  0  0  0  0  0
   15.4479    1.2773    0.0219 H   0  0  0  0  0  0  0  0  0  0  0  0
   15.4538    3.3655   -0.5491 C   0  0  0  0  0  0  0  0  0  0  0  0
   15.2644    3.7454    0.4480 H   0  0  0  0  0  0  0  0  0  0  0  0
  1  2  1  0
  2  3  2  0
  3  4  1  0
  4  5  1  0
  4  6  2  0
  6  7  1  0
  7  8  2  0
  8  9  1  0
  8 10  1  0
 10 11  1  0
 10 12  2  0
 12 13  1  0
 12 14  1  0
 15 14  1  6
 15 16  1  0
 16 17  2  0
 17 18  1  0
 17 19  1  0
 19 20  1  0
 19 21  2  0
 21 22  1  0
 21 23  1  0
 23 24  1  0
 23 25  2  0
 25 26  1  0
 15 27  1  0
 27 28  2  0
 27 29  1  0
 29 30  1  0
 30 31  1  0
 30 32  1  0
 32 33  2  0
 32 34  1  0
 34 35  1  0
 34 36  1  0
 36 37  1  0
 36 38  1  0
 38 39  1  0
 38 40  1  0
 38 41  1  0
 41 42  1  0
 41 43  1  0
 41 44  1  0
 44 45  1  0
 44 46  1  0
 44 47  1  0
 47 48  1  0
 47 49  1  0
 47 50  1  0
 50 51  1  0
 50 52  1  0
 29 53  1  0
 53 54  1  0
 54 55  1  0
 54 56  1  0
 53 57  2  0
 57 58  1  0
 14 59  2  0
 59 60  1  0
  6 61  1  0
 61 62  1  0
 61 63  2  0
 63 64  1  0
 63  2  1  0
 59  7  1  0
 57 15  1  0
 25 16  1  0
 50 36  1  0
M  CHG  1  57   1
M  END
>  <score>  (436) 
5.33075

$$$$

     RDKit          3D

 52 56  0  0  0  0  0  0  0  0999 V2000
    9.0564   -0.9970    0.4317 H   0  0  0  0  0  0  0  0  0  0  0  0
    9.7365   -1.6129    1.0027 C   0  0  0  0  0  0  0  0  0  0  0  0
   10.9669   -1.8509    0.4906 N   0  0  0  0  0  0  0  0  0  0  0  0
   11.7624   -2.5848    1.2774 C   0  0  0  0  0  0  0  0  0  0  0  0
   13.0230   -2.8111    0.7638 N   0  0  0  0  0  0  0  0  0  0  0  0
   13.2797   -3.0208   -0.5712 C   0  0  0  0  0  0  0  0  0  0  0  0
   12.4163   -3.1522   -1.4385 O   0  0  0  0  0  0  0  0  0  0  0  0
   14.7970   -3.2069   -0.7426 C   0  0  1  0  0  0  0  0  0  0  0  0
   15.1692   -4.6559   -1.0424 C   0  0  0  0  0  0  0  0  0  0  0  0
   16.3913   -5.1771   -0.5860 C   0  0  0  0  0  0  0  0  0  0  0  0
   17.0803   -4.5334   -0.0450 H   0  0  0  0  0  0  0  0  0  0  0  0
   16.7251   -6.5174   -0.7981 C   0  0  0  0  0  0  0  0  0  0  0  0
   17.6666   -6.9031   -0.4177 H   0  0  0  0  0  0  0  0  0  0  0  0
   15.8405   -7.3566   -1.4815 C   0  0  0  0  0  0  0  0  0  0  0  0
   16.0953   -8.3998   -1.6393 H   0  0  0  0  0  0  0  0  0  0  0  0
   14.6275   -6.8506   -1.9601 C   0  0  0  0  0  0  0  0  0  0  0  0
   13.9421   -7.4982   -2.4992 H   0  0  0  0  0  0  0  0  0  0  0  0
   14.2943   -5.5073   -1.7433 C   0  0  0  0  0  0  0  0  0  0  0  0
   13.3423   -5.1288   -2.1046 H   0  0  0  0  0  0  0  0  0  0  0  0
   15.3569   -2.2053   -1.7448 C   0  0  0  0  0  0  0  0  0  0  0  0
   15.9210   -2.6184   -2.9613 C   0  0  0  0  0  0  0  0  0  0  0  0
   15.9765   -3.6767   -3.1922 H   0  0  0  0  0  0  0  0  0  0  0  0
   16.4063   -1.6843   -3.8816 C   0  0  0  0  0  0  0  0  0  0  0  0
   16.8424   -2.0082   -4.8191 H   0  0  0  0  0  0  0  0  0  0  0  0
   16.3243   -0.3215   -3.6037 C   0  0  0  0  0  0  0  0  0  0  0  0
   16.7054    0.4029   -4.3167 H   0  0  0  0  0  0  0  0  0  0  0  0
   15.7789    0.1205   -2.3950 C   0  0  0  0  0  0  0  0  0  0  0  0
   15.7223    1.5544   -2.0965 C   0  0  0  0  0  0  0  0  0  0  0  0
   15.9131    2.5201   -3.0992 C   0  0  0  0  0  0  0  0  0  0  0  0
   16.1089    2.1955   -4.1166 H   0  0  0  0  0  0  0  0  0  0  0  0
   15.8427    3.8431   -2.8685 N   0  0  0  0  0  0  0  0  0  0  0  0
   15.5890    4.2553   -1.6169 C   0  0  0  0  0  0  0  0  0  0  0  0
   15.5221    5.3208   -1.4207 H   0  0  0  0  0  0  0  0  0  0  0  0
   15.4107    3.3613   -0.5583 C   0  0  0  0  0  0  0  0  0  0  0  0
   15.2162    3.7313    0.4411 H   0  0  0  0  0  0  0  0  0  0  0  0
   15.4834    1.9934   -0.7954 C   0  0  0  0  0  0  0  0  0  0  0  0
   15.3775    1.2766    0.0141 H   0  0  0  0  0  0  0  0  0  0  0  0
   15.2943   -0.8268   -1.4771 C   0  0  0  0  0  0  0  0  0  0  0  0
   14.8502   -0.4832   -0.5459 H   0  0  0  0  0  0  0  0  0  0  0  0
   15.2171   -2.8902    0.6414 N   0  0  0  0  0  4  0  0  0  0  0  0
   16.1781   -2.9823    0.9747 H   0  0  0  0  0  0  0  0  0  0  0  0
   14.2148   -2.7104    1.4302 C   0  0  0  0  0  0  0  0  0  0  0  0
   14.3882   -2.4524    2.7609 N   0  0  0  0  0  0  0  0  0  0  0  0
   13.6062   -2.0386    3.2672 H   0  0  0  0  0  0  0  0  0  0  0  0
   15.3352   -2.2198    3.0570 H   0  0  0  0  0  0  0  0  0  0  0  0
   11.3065   -3.1104    2.5237 C   0  0  0  0  0  0  0  0  0  0  0  0
   12.0111   -3.6966    3.0994 H   0  0  0  0  0  0  0  0  0  0  0  0
   10.0578   -2.9248    3.0037 N   0  0  0  0  0  0  0  0  0  0  0  0
    9.3068   -2.1405    2.2538 C   0  0  0  0  0  0  0  0  0  0  0  0
    8.0865   -2.0077    2.8543 N   0  0  0  0  0  0  0  0  0  0  0  0
    7.3017   -1.9707    2.2207 H   0  0  0  0  0  0  0  0  0  0  0  0
    8.0345   -2.7088    3.5940 H   0  0  0  0  0  0  0  0  0  0  0  0
  1  2  1  0
  2  3  2  0
  3  4  1  0
  4  5  1  0
  5  6  1  0
  6  7  2  0
  6  8  1  0
  8  9  1  6
  9 10  2  0
 10 11  1  0
 10 12  1  0
 12 13  1  0
 12 14  2  0
 14 15  1  0
 14 16  1  0
 16 17  1  0
 16 18  2  0
 18 19  1  0
  8 20  1  0
 20 21  2  0
 21 22  1  0
 21 23  1  0
 23 24  1  0
 23 25  2  0
 25 26  1  0
 25 27  1  0
 27 28  1  0
 28 29  2  0
 29 30  1  0
 29 31  1  0
 31 32  2  0
 32 33  1  0
 32 34  1  0
 34 35  1  0
 34 36  2  0
 36 37  1  0
 27 38  2  0
 38 39  1  0
  8 40  1  0
 40 41  1  0
 40 42  2  0
 42 43  1  0
 43 44  1  0
 43 45  1  0
  4 46  2  0
 46 47  1  0
 46 48  1  0
 48 49  2  0
 49 50  1  0
 50 51  1  0
 50 52  1  0
 49  2  1  0
 42  5  1  0
 18  9  1  0
 38 20  1  0
 36 28  1  0
M  CHG  1  40   1
M  END
>  <score>  (437) 
5.33069

$$$$

     RDKit          3D

 52 55  0  0  0  0  0  0  0  0999 V2000
   15.5521    5.3485   -1.3962 H   0  0  0  0  0  0  0  0  0  0  0  0
   15.5878    4.2825   -1.6057 C   0  0  0  0  0  0  0  0  0  0  0  0
   15.8245    3.8677   -2.8597 N   0  0  0  0  0  0  0  0  0  0  0  0
   15.8787    2.5414   -3.0942 C   0  0  0  0  0  0  0  0  0  0  0  0
   16.0709    2.2028   -4.1073 H   0  0  0  0  0  0  0  0  0  0  0  0
   15.6948    1.5682   -2.0972 C   0  0  0  0  0  0  0  0  0  0  0  0
   15.7751    0.1209   -2.4056 C   0  0  0  0  0  0  0  0  0  0  0  0
   16.3306   -0.3177   -3.6132 C   0  0  0  0  0  0  0  0  0  0  0  0
   16.7114    0.4275   -4.3038 H   0  0  0  0  0  0  0  0  0  0  0  0
   16.4208   -1.6838   -3.9105 C   0  0  0  0  0  0  0  0  0  0  0  0
   16.8649   -2.0006   -4.8480 H   0  0  0  0  0  0  0  0  0  0  0  0
   15.9499   -2.6360   -2.9988 C   0  0  0  0  0  0  0  0  0  0  0  0
   16.0051   -3.6940   -3.2389 H   0  0  0  0  0  0  0  0  0  0  0  0
   15.4029   -2.2351   -1.7703 C   0  0  0  0  0  0  0  0  0  0  0  0
   14.8494   -3.2478   -0.7681 C   0  0  2  0  0  0  0  0  0  0  0  0
   15.1973   -4.7072   -1.0753 C   0  0  0  0  0  0  0  0  0  0  0  0
   16.4114   -5.2348   -0.6099 C   0  0  0  0  0  0  0  0  0  0  0  0
   17.0854   -4.5850   -0.0599 H   0  0  0  0  0  0  0  0  0  0  0  0
   16.7435   -6.5796   -0.8036 C   0  0  0  0  0  0  0  0  0  0  0  0
   17.6800   -6.9661   -0.4107 H   0  0  0  0  0  0  0  0  0  0  0  0
   15.8610   -7.4243   -1.4828 C   0  0  0  0  0  0  0  0  0  0  0  0
   16.1058   -8.4738   -1.6161 H   0  0  0  0  0  0  0  0  0  0  0  0
   14.6494   -6.9207   -1.9686 C   0  0  0  0  0  0  0  0  0  0  0  0
   13.9592   -7.5830   -2.4867 H   0  0  0  0  0  0  0  0  0  0  0  0
   14.3200   -5.5691   -1.7680 C   0  0  0  0  0  0  0  0  0  0  0  0
   13.3646   -5.1961   -2.1263 H   0  0  0  0  0  0  0  0  0  0  0  0
   13.3377   -3.0210   -0.6080 C   0  0  0  0  0  0  0  0  0  0  0  0
   12.5260   -3.1141   -1.5319 O   0  0  0  0  0  0  0  0  0  0  0  0
   13.0489   -2.6091    0.6936 N   0  0  0  0  0  0  0  0  0  0  0  0
   11.7777   -2.0791    1.1935 N   0  0  0  0  0  0  0  0  0  0  0  0
   11.7847   -1.2087    1.7398 H   0  0  0  0  0  0  0  0  0  0  0  0
   10.5094   -2.5852    0.9105 C   0  0  0  0  0  0  0  0  0  0  0  0
   10.3297   -3.6213    0.2723 O   0  0  0  0  0  0  0  0  0  0  0  0
    9.3035   -1.7603    1.3372 C   0  0  0  0  0  0  0  0  0  0  0  0
    8.4774   -2.0099    0.6681 H   0  0  0  0  0  0  0  0  0  0  0  0
    9.5292   -0.6947    1.2115 H   0  0  0  0  0  0  0  0  0  0  0  0
    8.9205   -2.0535    2.7956 C   0  0  0  0  0  0  0  0  0  0  0  0
    9.7405   -1.7902    3.4736 H   0  0  0  0  0  0  0  0  0  0  0  0
    8.0338   -1.4824    3.0889 H   0  0  0  0  0  0  0  0  0  0  0  0
    8.7023   -3.1197    2.9148 H   0  0  0  0  0  0  0  0  0  0  0  0
   14.2774   -2.5991    1.3629 C   0  0  0  0  0  0  0  0  0  0  0  0
   14.4535   -2.2862    2.6827 N   0  0  0  0  0  0  0  0  0  0  0  0
   15.3828   -2.3516    3.0935 H   0  0  0  0  0  0  0  0  0  0  0  0
   13.6342   -2.1719    3.2769 H   0  0  0  0  0  0  0  0  0  0  0  0
   15.2799   -2.9250    0.6094 N   0  0  0  0  0  4  0  0  0  0  0  0
   16.2549   -2.9695    0.9243 H   0  0  0  0  0  0  0  0  0  0  0  0
   15.3141   -0.8511   -1.4991 C   0  0  0  0  0  0  0  0  0  0  0  0
   14.8652   -0.5150   -0.5689 H   0  0  0  0  0  0  0  0  0  0  0  0
   15.4454    2.0115   -0.7992 C   0  0  0  0  0  0  0  0  0  0  0  0
   15.3369    1.2756   -0.0095 H   0  0  0  0  0  0  0  0  0  0  0  0
   15.3838    3.3847   -0.5569 C   0  0  0  0  0  0  0  0  0  0  0  0
   15.1836    3.7682    0.4355 H   0  0  0  0  0  0  0  0  0  0  0  0
  1  2  1  0
  2  3  2  0
  3  4  1  0
  4  5  1  0
  4  6  2  0
  6  7  1  0
  7  8  2  0
  8  9  1  0
  8 10  1  0
 10 11  1  0
 10 12  2  0
 12 13  1  0
 12 14  1  0
 15 14  1  6
 15 16  1  0
 16 17  2  0
 17 18  1  0
 17 19  1  0
 19 20  1  0
 19 21  2  0
 21 22  1  0
 21 23  1  0
 23 24  1  0
 23 25  2  0
 25 26  1  0
 15 27  1  0
 27 28  2  0
 27 29  1  0
 29 30  1  0
 30 31  1  0
 30 32  1  0
 32 33  2  0
 32 34  1  0
 34 35  1  0
 34 36  1  0
 34 37  1  0
 37 38  1  0
 37 39  1  0
 37 40  1  0
 29 41  1  0
 41 42  1  0
 42 43  1  0
 42 44  1  0
 41 45  2  0
 45 46  1  0
 14 47  2  0
 47 48  1  0
  6 49  1  0
 49 50  1  0
 49 51  2  0
 51 52  1  0
 51  2  1  0
 47  7  1  0
 45 15  1  0
 25 16  1  0
M  CHG  1  45   1
M  END
>  <score>  (438) 
5.32912

$$$$

     RDKit          3D

 52 56  0  0  0  0  0  0  0  0999 V2000
   15.5487    5.3455   -1.3966 H   0  0  0  0  0  0  0  0  0  0  0  0
   15.5865    4.2796   -1.6075 C   0  0  0  0  0  0  0  0  0  0  0  0
   15.8247    3.8656   -2.8623 N   0  0  0  0  0  0  0  0  0  0  0  0
   15.8827    2.5390   -3.0957 C   0  0  0  0  0  0  0  0  0  0  0  0
   16.0787    2.1947   -4.1065 H   0  0  0  0  0  0  0  0  0  0  0  0
   15.6998    1.5675   -2.0983 C   0  0  0  0  0  0  0  0  0  0  0  0
   15.7744    0.1231   -2.4021 C   0  0  0  0  0  0  0  0  0  0  0  0
   16.3286   -0.3171   -3.6073 C   0  0  0  0  0  0  0  0  0  0  0  0
   16.7054    0.4304   -4.2973 H   0  0  0  0  0  0  0  0  0  0  0  0
   16.4163   -1.6835   -3.9001 C   0  0  0  0  0  0  0  0  0  0  0  0
   16.8610   -2.0046   -4.8355 H   0  0  0  0  0  0  0  0  0  0  0  0
   15.9355   -2.6317   -2.9883 C   0  0  0  0  0  0  0  0  0  0  0  0
   15.9938   -3.6911   -3.2237 H   0  0  0  0  0  0  0  0  0  0  0  0
   15.3764   -2.2258   -1.7664 C   0  0  0  0  0  0  0  0  0  0  0  0
   14.8130   -3.2372   -0.7691 C   0  0  2  0  0  0  0  0  0  0  0  0
   15.1771   -4.6951   -1.0660 C   0  0  0  0  0  0  0  0  0  0  0  0
   16.3954   -5.2177   -0.6021 C   0  0  0  0  0  0  0  0  0  0  0  0
   17.0724   -4.5674   -0.0551 H   0  0  0  0  0  0  0  0  0  0  0  0
   16.7344   -6.5618   -0.8022 C   0  0  0  0  0  0  0  0  0  0  0  0
   17.6704   -6.9522   -0.4140 H   0  0  0  0  0  0  0  0  0  0  0  0
   15.8567   -7.4093   -1.4828 C   0  0  0  0  0  0  0  0  0  0  0  0
   16.1032   -8.4592   -1.6164 H   0  0  0  0  0  0  0  0  0  0  0  0
   14.6452   -6.9076   -1.9669 C   0  0  0  0  0  0  0  0  0  0  0  0
   13.9620   -7.5723   -2.4882 H   0  0  0  0  0  0  0  0  0  0  0  0
   14.3067   -5.5594   -1.7609 C   0  0  0  0  0  0  0  0  0  0  0  0
   13.3543   -5.1855   -2.1232 H   0  0  0  0  0  0  0  0  0  0  0  0
   13.2971   -3.0268   -0.6117 C   0  0  0  0  0  0  0  0  0  0  0  0
   12.4350   -3.1177   -1.4866 O   0  0  0  0  0  0  0  0  0  0  0  0
   13.0343   -2.6917    0.6966 N   0  0  0  0  0  0  0  0  0  0  0  0
   11.7843   -2.3636    1.2019 C   0  0  0  0  0  0  0  0  0  0  0  0
   11.2170   -3.2033    2.1690 C   0  0  0  0  0  0  0  0  0  0  0  0
   11.7714   -4.0807    2.5064 H   0  0  0  0  0  0  0  0  0  0  0  0
    9.9608   -2.8848    2.7074 C   0  0  0  0  0  0  0  0  0  0  0  0
    9.5182   -3.5047    3.4794 H   0  0  0  0  0  0  0  0  0  0  0  0
    9.3008   -1.7259    2.2928 C   0  0  0  0  0  0  0  0  0  0  0  0
    7.8591   -1.1772    3.0615 Cl  0  0  0  0  0  0  0  0  0  0  0  0
    9.8532   -0.9182    1.3089 C   0  0  0  0  0  0  0  0  0  0  0  0
    9.3371   -0.0052    1.0442 H   0  0  0  0  0  0  0  0  0  0  0  0
   11.1037   -1.2098    0.7648 C   0  0  0  0  0  0  0  0  0  0  0  0
   11.8209   -0.0567   -0.3495 Cl  0  0  0  0  0  0  0  0  0  0  0  0
   14.2255   -2.6421    1.3815 C   0  0  0  0  0  0  0  0  0  0  0  0
   14.4056   -2.3347    2.7023 N   0  0  0  0  0  0  0  0  0  0  0  0
   13.6069   -2.0944    3.2880 H   0  0  0  0  0  0  0  0  0  0  0  0
   15.3499   -2.3294    3.0827 H   0  0  0  0  0  0  0  0  0  0  0  0
   15.2279   -2.9141    0.6164 N   0  0  0  0  0  4  0  0  0  0  0  0
   16.1954   -2.9527    0.9456 H   0  0  0  0  0  0  0  0  0  0  0  0
   15.3027   -0.8415   -1.4947 C   0  0  0  0  0  0  0  0  0  0  0  0
   14.8623   -0.4955   -0.5641 H   0  0  0  0  0  0  0  0  0  0  0  0
   15.4520    2.0077   -0.8007 C   0  0  0  0  0  0  0  0  0  0  0  0
   15.3450    1.2657   -0.0158 H   0  0  0  0  0  0  0  0  0  0  0  0
   15.3861    3.3809   -0.5582 C   0  0  0  0  0  0  0  0  0  0  0  0
   15.1847    3.7647    0.4337 H   0  0  0  0  0  0  0  0  0  0  0  0
  1  2  1  0
  2  3  2  0
  3  4  1  0
  4  5  1  0
  4  6  2  0
  6  7  1  0
  7  8  2  0
  8  9  1  0
  8 10  1  0
 10 11  1  0
 10 12  2  0
 12 13  1  0
 12 14  1  0
 15 14  1  6
 15 16  1  0
 16 17  2  0
 17 18  1  0
 17 19  1  0
 19 20  1  0
 19 21  2  0
 21 22  1  0
 21 23  1  0
 23 24  1  0
 23 25  2  0
 25 26  1  0
 15 27  1  0
 27 28  2  0
 27 29  1  0
 29 30  1  0
 30 31  2  0
 31 32  1  0
 31 33  1  0
 33 34  1  0
 33 35  2  0
 35 36  1  0
 35 37  1  0
 37 38  1  0
 37 39  2  0
 39 40  1  0
 29 41  1  0
 41 42  1  0
 42 43  1  0
 42 44  1  0
 41 45  2  0
 45 46  1  0
 14 47  2  0
 47 48  1  0
  6 49  1  0
 49 50  1  0
 49 51  2  0
 51 52  1  0
 51  2  1  0
 47  7  1  0
 45 15  1  0
 25 16  1  0
 39 30  1  0
M  CHG  1  45   1
M  END
>  <score>  (439) 
5.32693

$$$$

     RDKit          3D

 50 53  0  0  0  0  0  0  0  0999 V2000
   10.3319   -4.5734    4.0279 H   0  0  0  0  0  0  0  0  0  0  0  0
   10.0038   -3.6959    3.6690 O   0  0  0  0  0  0  0  0  0  0  0  0
   10.9029   -4.0300    2.4470 P   0  0  0  0  0  0  0  0  0  0  0  0
   10.3970   -5.0658    1.5203 O   0  0  0  0  0  0  0  0  0  0  0  0
   11.2771   -4.5758    3.8662 O   0  0  0  0  0  0  0  0  0  0  0  0
   10.7005   -3.8885    4.2868 H   0  0  0  0  0  0  0  0  0  0  0  0
   11.8655   -2.6720    1.2868 C   0  0  0  0  0  0  0  0  0  0  0  0
   11.0602   -2.4208    0.2104 F   0  0  0  0  0  0  0  0  0  0  0  0
   11.9912   -1.4877    1.9449 F   0  0  0  0  0  0  0  0  0  0  0  0
   13.2252   -2.9157    0.7297 N   0  0  0  0  0  0  0  0  0  0  0  0
   13.5465   -3.0246   -0.6133 C   0  0  0  0  0  0  0  0  0  0  0  0
   12.6940   -3.0496   -1.4968 O   0  0  0  0  0  0  0  0  0  0  0  0
   15.0717   -3.1788   -0.7766 C   0  0  1  0  0  0  0  0  0  0  0  0
   15.4204   -4.6339   -1.0839 C   0  0  0  0  0  0  0  0  0  0  0  0
   16.6182   -5.2158   -0.6348 C   0  0  0  0  0  0  0  0  0  0  0  0
   17.3442   -4.6110   -0.0981 H   0  0  0  0  0  0  0  0  0  0  0  0
   16.8740   -6.5784   -0.8427 C   0  0  0  0  0  0  0  0  0  0  0  0
   17.7970   -7.0180   -0.4733 H   0  0  0  0  0  0  0  0  0  0  0  0
   15.9357   -7.3760   -1.5083 C   0  0  0  0  0  0  0  0  0  0  0  0
   16.1204   -8.4373   -1.6469 H   0  0  0  0  0  0  0  0  0  0  0  0
   14.7613   -6.8017   -2.0017 C   0  0  0  0  0  0  0  0  0  0  0  0
   14.0350   -7.4132   -2.5308 H   0  0  0  0  0  0  0  0  0  0  0  0
   14.5130   -5.4404   -1.7970 C   0  0  0  0  0  0  0  0  0  0  0  0
   13.5890   -5.0122   -2.1733 H   0  0  0  0  0  0  0  0  0  0  0  0
   15.6151   -2.1786   -1.7906 C   0  0  0  0  0  0  0  0  0  0  0  0
   16.0894   -2.5835   -3.0477 C   0  0  0  0  0  0  0  0  0  0  0  0
   16.1284   -3.6414   -3.2897 H   0  0  0  0  0  0  0  0  0  0  0  0
   16.4983   -1.6380   -3.9958 C   0  0  0  0  0  0  0  0  0  0  0  0
   16.8662   -1.9599   -4.9643 H   0  0  0  0  0  0  0  0  0  0  0  0
   16.4304   -0.2723   -3.7017 C   0  0  0  0  0  0  0  0  0  0  0  0
   16.7422    0.4562   -4.4436 H   0  0  0  0  0  0  0  0  0  0  0  0
   15.9626    0.1626   -2.4543 C   0  0  0  0  0  0  0  0  0  0  0  0
   15.8632    1.5968   -2.1299 C   0  0  0  0  0  0  0  0  0  0  0  0
   16.0037    2.5847   -3.1195 C   0  0  0  0  0  0  0  0  0  0  0  0
   16.2025    2.2773   -4.1421 H   0  0  0  0  0  0  0  0  0  0  0  0
   15.8883    3.9023   -2.8672 N   0  0  0  0  0  0  0  0  0  0  0  0
   15.6297    4.2902   -1.6090 C   0  0  0  0  0  0  0  0  0  0  0  0
   15.5298    5.3501   -1.3943 H   0  0  0  0  0  0  0  0  0  0  0  0
   15.4854    3.3744   -0.5655 C   0  0  0  0  0  0  0  0  0  0  0  0
   15.2778    3.7245    0.4376 H   0  0  0  0  0  0  0  0  0  0  0  0
   15.6060    2.0122   -0.8205 C   0  0  0  0  0  0  0  0  0  0  0  0
   15.5007    1.2829   -0.0197 H   0  0  0  0  0  0  0  0  0  0  0  0
   15.5625   -0.8014   -1.5156 C   0  0  0  0  0  0  0  0  0  0  0  0
   15.1814   -0.4630   -0.5573 H   0  0  0  0  0  0  0  0  0  0  0  0
   15.4476   -2.8408    0.6114 N   0  0  0  0  0  4  0  0  0  0  0  0
   16.4128   -2.7836    0.9352 H   0  0  0  0  0  0  0  0  0  0  0  0
   14.4185   -2.7046    1.3827 C   0  0  0  0  0  0  0  0  0  0  0  0
   14.5034   -2.3772    2.7029 N   0  0  0  0  0  0  0  0  0  0  0  0
   13.6627   -2.0278    3.1618 H   0  0  0  0  0  0  0  0  0  0  0  0
   15.4200   -2.1187    3.0652 H   0  0  0  0  0  0  0  0  0  0  0  0
  1  2  1  0
  2  3  1  0
  3  4  2  0
  3  5  1  0
  5  6  1  0
  3  7  1  0
  7  8  1  0
  7  9  1  0
  7 10  1  0
 10 11  1  0
 11 12  2  0
 11 13  1  0
 13 14  1  6
 14 15  2  0
 15 16  1  0
 15 17  1  0
 17 18  1  0
 17 19  2  0
 19 20  1  0
 19 21  1  0
 21 22  1  0
 21 23  2  0
 23 24  1  0
 13 25  1  0
 25 26  2  0
 26 27  1  0
 26 28  1  0
 28 29  1  0
 28 30  2  0
 30 31  1  0
 30 32  1  0
 32 33  1  0
 33 34  2  0
 34 35  1  0
 34 36  1  0
 36 37  2  0
 37 38  1  0
 37 39  1  0
 39 40  1  0
 39 41  2  0
 41 42  1  0
 32 43  2  0
 43 44  1  0
 13 45  1  0
 45 46  1  0
 45 47  2  0
 47 48  1  0
 48 49  1  0
 48 50  1  0
 47 10  1  0
 23 14  1  0
 43 25  1  0
 41 33  1  0
M  CHG  1  45   1
M  END
>  <score>  (440) 
5.31999

$$$$

     RDKit          3D

 54 57  0  0  0  0  0  0  0  0999 V2000
   15.5208    5.3213   -1.4216 H   0  0  0  0  0  0  0  0  0  0  0  0
   15.5883    4.2559   -1.6161 C   0  0  0  0  0  0  0  0  0  0  0  0
   15.8403    3.8424   -2.8673 N   0  0  0  0  0  0  0  0  0  0  0  0
   15.9120    2.5197   -3.0992 C   0  0  0  0  0  0  0  0  0  0  0  0
   16.1093    2.1961   -4.1169 H   0  0  0  0  0  0  0  0  0  0  0  0
   15.7225    1.5539   -2.0958 C   0  0  0  0  0  0  0  0  0  0  0  0
   15.7832    0.1197   -2.3943 C   0  0  0  0  0  0  0  0  0  0  0  0
   16.3277   -0.3218   -3.6037 C   0  0  0  0  0  0  0  0  0  0  0  0
   16.7025    0.4042   -4.3192 H   0  0  0  0  0  0  0  0  0  0  0  0
   16.4126   -1.6850   -3.8791 C   0  0  0  0  0  0  0  0  0  0  0  0
   16.8404   -2.0060   -4.8203 H   0  0  0  0  0  0  0  0  0  0  0  0
   15.9348   -2.6183   -2.9546 C   0  0  0  0  0  0  0  0  0  0  0  0
   15.9888   -3.6756   -3.1894 H   0  0  0  0  0  0  0  0  0  0  0  0
   15.3758   -2.2054   -1.7357 C   0  0  0  0  0  0  0  0  0  0  0  0
   14.8166   -3.2076   -0.7359 C   0  0  2  0  0  0  0  0  0  0  0  0
   15.1725   -4.6563   -1.0457 C   0  0  0  0  0  0  0  0  0  0  0  0
   16.3939   -5.1798   -0.5938 C   0  0  0  0  0  0  0  0  0  0  0  0
   17.0844   -4.5387   -0.0519 H   0  0  0  0  0  0  0  0  0  0  0  0
   16.7246   -6.5203   -0.8049 C   0  0  0  0  0  0  0  0  0  0  0  0
   17.6636   -6.9076   -0.4204 H   0  0  0  0  0  0  0  0  0  0  0  0
   15.8381   -7.3580   -1.4877 C   0  0  0  0  0  0  0  0  0  0  0  0
   16.0895   -8.4033   -1.6423 H   0  0  0  0  0  0  0  0  0  0  0  0
   14.6250   -6.8491   -1.9646 C   0  0  0  0  0  0  0  0  0  0  0  0
   13.9360   -7.4965   -2.5000 H   0  0  0  0  0  0  0  0  0  0  0  0
   14.2934   -5.5043   -1.7463 C   0  0  0  0  0  0  0  0  0  0  0  0
   13.3416   -5.1238   -2.1061 H   0  0  0  0  0  0  0  0  0  0  0  0
   13.3083   -2.9976   -0.5676 C   0  0  0  0  0  0  0  0  0  0  0  0
   12.4408   -3.0807   -1.4323 O   0  0  0  0  0  0  0  0  0  0  0  0
   13.0370   -2.8241    0.7588 N   0  0  0  0  0  0  0  0  0  0  0  0
   11.7928   -2.5170    1.2319 C   0  0  0  0  0  0  0  0  0  0  0  0
   11.0359   -1.7812    0.4524 N   0  0  0  0  0  0  0  0  0  0  0  0
    9.7791   -1.3515    0.8312 N   0  0  0  0  0  0  0  0  0  0  0  0
    9.4390   -1.5525    1.7702 H   0  0  0  0  0  0  0  0  0  0  0  0
    9.0001   -0.4396    0.1179 C   0  0  0  0  0  0  0  0  0  0  0  0
    7.6049    0.1152    0.7976 S   0  0  0  0  0  0  0  0  0  0  0  0
    9.3350    0.0811   -1.1126 N   0  0  0  0  0  0  0  0  0  0  0  0
   10.3170    0.0230   -1.3630 H   0  0  0  0  0  0  0  0  0  0  0  0
    8.7867    0.8801   -1.4183 H   0  0  0  0  0  0  0  0  0  0  0  0
   11.3015   -3.1261    2.4987 C   0  0  0  0  0  0  0  0  0  0  0  0
   12.0951   -3.7372    2.9456 H   0  0  0  0  0  0  0  0  0  0  0  0
   10.9727   -2.3453    3.1859 H   0  0  0  0  0  0  0  0  0  0  0  0
   10.4405   -3.7619    2.2672 H   0  0  0  0  0  0  0  0  0  0  0  0
   14.2111   -2.7702    1.4501 C   0  0  0  0  0  0  0  0  0  0  0  0
   14.3676   -2.5074    2.7791 N   0  0  0  0  0  0  0  0  0  0  0  0
   13.5819   -2.0627    3.2504 H   0  0  0  0  0  0  0  0  0  0  0  0
   15.3101   -2.2443    3.0644 H   0  0  0  0  0  0  0  0  0  0  0  0
   15.2192   -2.9229    0.6604 N   0  0  0  0  0  4  0  0  0  0  0  0
   16.1838   -2.9856    0.9833 H   0  0  0  0  0  0  0  0  0  0  0  0
   15.3036   -0.8270   -1.4721 C   0  0  0  0  0  0  0  0  0  0  0  0
   14.8581   -0.4856   -0.5409 H   0  0  0  0  0  0  0  0  0  0  0  0
   15.4833    1.9939   -0.7943 C   0  0  0  0  0  0  0  0  0  0  0  0
   15.3781    1.2774    0.0157 H   0  0  0  0  0  0  0  0  0  0  0  0
   15.4113    3.3619   -0.5579 C   0  0  0  0  0  0  0  0  0  0  0  0
   15.2186    3.7314    0.4413 H   0  0  0  0  0  0  0  0  0  0  0  0
  1  2  1  0
  2  3  2  0
  3  4  1  0
  4  5  1  0
  4  6  2  0
  6  7  1  0
  7  8  2  0
  8  9  1  0
  8 10  1  0
 10 11  1  0
 10 12  2  0
 12 13  1  0
 12 14  1  0
 15 14  1  6
 15 16  1  0
 16 17  2  0
 17 18  1  0
 17 19  1  0
 19 20  1  0
 19 21  2  0
 21 22  1  0
 21 23  1  0
 23 24  1  0
 23 25  2  0
 25 26  1  0
 15 27  1  0
 27 28  2  0
 27 29  1  0
 29 30  1  0
 30 31  2  3
 31 32  1  0
 32 33  1  0
 32 34  1  0
 34 35  2  0
 34 36  1  0
 36 37  1  0
 36 38  1  0
 30 39  1  0
 39 40  1  0
 39 41  1  0
 39 42  1  0
 29 43  1  0
 43 44  1  0
 44 45  1  0
 44 46  1  0
 43 47  2  0
 47 48  1  0
 14 49  2  0
 49 50  1  0
  6 51  1  0
 51 52  1  0
 51 53  2  0
 53 54  1  0
 53  2  1  0
 49  7  1  0
 47 15  1  0
 25 16  1  0
M  CHG  1  47   1
M  END
>  <score>  (441) 
5.3187

$$$$

     RDKit          3D

 59 62  0  0  0  0  0  0  0  0999 V2000
   10.6002   -3.4259    3.3071 H   0  0  0  0  0  0  0  0  0  0  0  0
    9.8433   -3.3087    2.6936 O   0  0  0  0  0  0  0  0  0  0  0  0
    9.1380   -2.0745    2.9063 N   0  0  0  0  0  0  0  0  0  0  0  0
    8.6816   -1.8992    3.7961 H   0  0  0  0  0  0  0  0  0  0  0  0
    8.7811   -1.1609    1.9411 C   0  0  0  0  0  0  0  0  0  0  0  0
    8.0306   -0.2735    2.3283 O   0  0  0  0  0  0  0  0  0  0  0  0
    9.2660   -1.2075    0.4957 C   0  0  0  0  0  0  0  0  0  0  0  0
    9.3668   -2.2484    0.1740 H   0  0  0  0  0  0  0  0  0  0  0  0
    8.5010   -0.7584   -0.1415 H   0  0  0  0  0  0  0  0  0  0  0  0
   10.5934   -0.4372    0.3353 C   0  0  0  0  0  0  0  0  0  0  0  0
   10.4449    0.3531   -0.4074 H   0  0  0  0  0  0  0  0  0  0  0  0
   10.8801    0.0698    1.2603 H   0  0  0  0  0  0  0  0  0  0  0  0
   11.7514   -1.3227   -0.1225 C   0  0  0  0  0  0  0  0  0  0  0  0
   12.6431   -0.6938   -0.2014 H   0  0  0  0  0  0  0  0  0  0  0  0
   11.5322   -1.7101   -1.1214 H   0  0  0  0  0  0  0  0  0  0  0  0
   12.0523   -2.4872    0.8258 C   0  0  0  0  0  0  0  0  0  0  0  0
   11.2393   -3.2249    0.7928 H   0  0  0  0  0  0  0  0  0  0  0  0
   12.1088   -2.1108    1.8539 H   0  0  0  0  0  0  0  0  0  0  0  0
   13.3394   -3.0629    0.4399 N   0  0  0  0  0  0  0  0  0  0  0  0
   13.7306   -3.3643   -0.8520 C   0  0  0  0  0  0  0  0  0  0  0  0
   12.9431   -3.4770   -1.7923 O   0  0  0  0  0  0  0  0  0  0  0  0
   15.2642   -3.4656   -0.9285 C   0  0  1  0  0  0  0  0  0  0  0  0
   15.7119   -4.8987   -1.2320 C   0  0  0  0  0  0  0  0  0  0  0  0
   16.8872   -5.4328   -0.6704 C   0  0  0  0  0  0  0  0  0  0  0  0
   17.5297   -4.8032   -0.0629 H   0  0  0  0  0  0  0  0  0  0  0  0
   17.2241   -6.7828   -0.8427 C   0  0  0  0  0  0  0  0  0  0  0  0
   18.1149   -7.1848   -0.3669 H   0  0  0  0  0  0  0  0  0  0  0  0
   16.4005   -7.6202   -1.6011 C   0  0  0  0  0  0  0  0  0  0  0  0
   16.6483   -8.6717   -1.7186 H   0  0  0  0  0  0  0  0  0  0  0  0
   15.2513   -7.0983   -2.2023 C   0  0  0  0  0  0  0  0  0  0  0  0
   14.6054   -7.7430   -2.7915 H   0  0  0  0  0  0  0  0  0  0  0  0
   14.9143   -5.7503   -2.0228 C   0  0  0  0  0  0  0  0  0  0  0  0
   13.9998   -5.3796   -2.4765 H   0  0  0  0  0  0  0  0  0  0  0  0
   15.8006   -2.3937   -1.8806 C   0  0  0  0  0  0  0  0  0  0  0  0
   16.2564   -2.7114   -3.1717 C   0  0  0  0  0  0  0  0  0  0  0  0
   16.3131   -3.7472   -3.4927 H   0  0  0  0  0  0  0  0  0  0  0  0
   16.6126   -1.6983   -4.0714 C   0  0  0  0  0  0  0  0  0  0  0  0
   16.9465   -1.9345   -5.0756 H   0  0  0  0  0  0  0  0  0  0  0  0
   16.5052   -0.3572   -3.6995 C   0  0  0  0  0  0  0  0  0  0  0  0
   16.7617    0.4195   -4.4129 H   0  0  0  0  0  0  0  0  0  0  0  0
   16.0641    0.0008   -2.4199 C   0  0  0  0  0  0  0  0  0  0  0  0
   15.9209    1.4300   -2.0632 C   0  0  0  0  0  0  0  0  0  0  0  0
   16.0351    2.4283   -3.0503 C   0  0  0  0  0  0  0  0  0  0  0  0
   16.2287    2.1308   -4.0755 H   0  0  0  0  0  0  0  0  0  0  0  0
   15.9035    3.7441   -2.8026 N   0  0  0  0  0  0  0  0  0  0  0  0
   15.6464    4.1268   -1.5436 C   0  0  0  0  0  0  0  0  0  0  0  0
   15.5277    5.1860   -1.3322 H   0  0  0  0  0  0  0  0  0  0  0  0
   15.5205    3.2076   -0.4980 C   0  0  0  0  0  0  0  0  0  0  0  0
   15.3146    3.5661    0.5037 H   0  0  0  0  0  0  0  0  0  0  0  0
   15.6610    1.8419   -0.7516 C   0  0  0  0  0  0  0  0  0  0  0  0
   15.5775    1.1156    0.0542 H   0  0  0  0  0  0  0  0  0  0  0  0
   15.7328   -1.0297   -1.5197 C   0  0  0  0  0  0  0  0  0  0  0  0
   15.3825   -0.7671   -0.5271 H   0  0  0  0  0  0  0  0  0  0  0  0
   15.5491   -3.1283    0.4809 N   0  0  0  0  0  4  0  0  0  0  0  0
   16.4920   -3.0431    0.8512 H   0  0  0  0  0  0  0  0  0  0  0  0
   14.4888   -2.8840    1.1718 C   0  0  0  0  0  0  0  0  0  0  0  0
   14.5191   -2.4726    2.4722 N   0  0  0  0  0  0  0  0  0  0  0  0
   13.6402   -2.3401    2.9725 H   0  0  0  0  0  0  0  0  0  0  0  0
   15.4068   -2.4849    2.9721 H   0  0  0  0  0  0  0  0  0  0  0  0
  1  2  1  0
  2  3  1  0
  3  4  1  0
  3  5  1  0
  5  6  2  0
  5  7  1  0
  7  8  1  0
  7  9  1  0
  7 10  1  0
 10 11  1  0
 10 12  1  0
 10 13  1  0
 13 14  1  0
 13 15  1  0
 13 16  1  0
 16 17  1  0
 16 18  1  0
 16 19  1  0
 19 20  1  0
 20 21  2  0
 20 22  1  0
 22 23  1  6
 23 24  2  0
 24 25  1  0
 24 26  1  0
 26 27  1  0
 26 28  2  0
 28 29  1  0
 28 30  1  0
 30 31  1  0
 30 32  2  0
 32 33  1  0
 22 34  1  0
 34 35  2  0
 35 36  1  0
 35 37  1  0
 37 38  1  0
 37 39  2  0
 39 40  1  0
 39 41  1  0
 41 42  1  0
 42 43  2  0
 43 44  1  0
 43 45  1  0
 45 46  2  0
 46 47  1  0
 46 48  1  0
 48 49  1  0
 48 50  2  0
 50 51  1  0
 41 52  2  0
 52 53  1  0
 22 54  1  0
 54 55  1  0
 54 56  2  0
 56 57  1  0
 57 58  1  0
 57 59  1  0
 56 19  1  0
 32 23  1  0
 52 34  1  0
 50 42  1  0
M  CHG  1  54   1
M  END
>  <score>  (442) 
5.31464

$$$$

     RDKit          3D

 54 58  0  0  0  0  0  0  0  0999 V2000
   15.5208    5.3192   -1.4244 H   0  0  0  0  0  0  0  0  0  0  0  0
   15.5924    4.2542   -1.6145 C   0  0  0  0  0  0  0  0  0  0  0  0
   15.8412    3.8400   -2.8655 N   0  0  0  0  0  0  0  0  0  0  0  0
   15.9128    2.5177   -3.0964 C   0  0  0  0  0  0  0  0  0  0  0  0
   16.1072    2.1968   -4.1163 H   0  0  0  0  0  0  0  0  0  0  0  0
   15.7242    1.5533   -2.0904 C   0  0  0  0  0  0  0  0  0  0  0  0
   15.7883    0.1175   -2.3940 C   0  0  0  0  0  0  0  0  0  0  0  0
   16.3287   -0.3263   -3.6064 C   0  0  0  0  0  0  0  0  0  0  0  0
   16.7042    0.3916   -4.3278 H   0  0  0  0  0  0  0  0  0  0  0  0
   16.4124   -1.6896   -3.8860 C   0  0  0  0  0  0  0  0  0  0  0  0
   16.8345   -2.0106   -4.8293 H   0  0  0  0  0  0  0  0  0  0  0  0
   15.9415   -2.6250   -2.9623 C   0  0  0  0  0  0  0  0  0  0  0  0
   15.9910   -3.6815   -3.1997 H   0  0  0  0  0  0  0  0  0  0  0  0
   15.3882   -2.2112   -1.7417 C   0  0  0  0  0  0  0  0  0  0  0  0
   14.8280   -3.2087   -0.7395 C   0  0  2  0  0  0  0  0  0  0  0  0
   15.1888   -4.6606   -1.0390 C   0  0  0  0  0  0  0  0  0  0  0  0
   16.4097   -5.1898   -0.5861 C   0  0  0  0  0  0  0  0  0  0  0  0
   17.1099   -4.5559   -0.0483 H   0  0  0  0  0  0  0  0  0  0  0  0
   16.7364   -6.5328   -0.7990 C   0  0  0  0  0  0  0  0  0  0  0  0
   17.6781   -6.9225   -0.4234 H   0  0  0  0  0  0  0  0  0  0  0  0
   15.8489   -7.3669   -1.4854 C   0  0  0  0  0  0  0  0  0  0  0  0
   16.0968   -8.4115   -1.6465 H   0  0  0  0  0  0  0  0  0  0  0  0
   14.6369   -6.8541   -1.9589 C   0  0  0  0  0  0  0  0  0  0  0  0
   13.9445   -7.4927   -2.5001 H   0  0  0  0  0  0  0  0  0  0  0  0
   14.3107   -5.5088   -1.7404 C   0  0  0  0  0  0  0  0  0  0  0  0
   13.3638   -5.1256   -2.1084 H   0  0  0  0  0  0  0  0  0  0  0  0
   13.3128   -3.0025   -0.5859 C   0  0  0  0  0  0  0  0  0  0  0  0
   12.4718   -3.1682   -1.4692 O   0  0  0  0  0  0  0  0  0  0  0  0
   13.0430   -2.6681    0.7266 N   0  0  0  0  0  0  0  0  0  0  0  0
   11.7662   -2.5038    1.2714 C   0  0  0  0  0  0  0  0  0  0  0  0
   11.3923   -3.2175    2.4129 C   0  0  0  0  0  0  0  0  0  0  0  0
   12.1186   -3.8712    2.8865 H   0  0  0  0  0  0  0  0  0  0  0  0
   10.0901   -3.1033    2.9172 C   0  0  0  0  0  0  0  0  0  0  0  0
    9.8073   -3.6550    3.8058 H   0  0  0  0  0  0  0  0  0  0  0  0
    9.1901   -2.2515    2.3008 C   0  0  0  0  0  0  0  0  0  0  0  0
    7.9377   -2.0731    2.8168 N   0  0  0  0  0  0  0  0  0  0  0  0
    7.6215   -1.1242    2.6836 H   0  0  0  0  0  0  0  0  0  0  0  0
    7.8065   -2.4750    3.7440 H   0  0  0  0  0  0  0  0  0  0  0  0
    9.5639   -1.4919    1.2020 C   0  0  0  0  0  0  0  0  0  0  0  0
    8.8745   -0.7778    0.7707 H   0  0  0  0  0  0  0  0  0  0  0  0
   10.8525   -1.6336    0.6736 C   0  0  0  0  0  0  0  0  0  0  0  0
   11.1688   -1.0553   -0.1892 H   0  0  0  0  0  0  0  0  0  0  0  0
   14.2371   -2.6662    1.4159 C   0  0  0  0  0  0  0  0  0  0  0  0
   14.4207   -2.4570    2.7562 N   0  0  0  0  0  0  0  0  0  0  0  0
   13.6439   -2.0578    3.2799 H   0  0  0  0  0  0  0  0  0  0  0  0
   15.3711   -2.2515    3.0609 H   0  0  0  0  0  0  0  0  0  0  0  0
   15.2452   -2.8870    0.6440 N   0  0  0  0  0  4  0  0  0  0  0  0
   16.2004   -3.0074    0.9878 H   0  0  0  0  0  0  0  0  0  0  0  0
   15.3143   -0.8332   -1.4737 C   0  0  0  0  0  0  0  0  0  0  0  0
   14.8674   -0.4985   -0.5404 H   0  0  0  0  0  0  0  0  0  0  0  0
   15.4812    1.9952   -0.7886 C   0  0  0  0  0  0  0  0  0  0  0  0
   15.3752    1.2875    0.0286 H   0  0  0  0  0  0  0  0  0  0  0  0
   15.4138    3.3623   -0.5556 C   0  0  0  0  0  0  0  0  0  0  0  0
   15.2221    3.7278    0.4441 H   0  0  0  0  0  0  0  0  0  0  0  0
  1  2  1  0
  2  3  2  0
  3  4  1  0
  4  5  1  0
  4  6  2  0
  6  7  1  0
  7  8  2  0
  8  9  1  0
  8 10  1  0
 10 11  1  0
 10 12  2  0
 12 13  1  0
 12 14  1  0
 15 14  1  6
 15 16  1  0
 16 17  2  0
 17 18  1  0
 17 19  1  0
 19 20  1  0
 19 21  2  0
 21 22  1  0
 21 23  1  0
 23 24  1  0
 23 25  2  0
 25 26  1  0
 15 27  1  0
 27 28  2  0
 27 29  1  0
 29 30  1  0
 30 31  2  0
 31 32  1  0
 31 33  1  0
 33 34  1  0
 33 35  2  0
 35 36  1  0
 36 37  1  0
 36 38  1  0
 35 39  1  0
 39 40  1  0
 39 41  2  0
 41 42  1  0
 29 43  1  0
 43 44  1  0
 44 45  1  0
 44 46  1  0
 43 47  2  0
 47 48  1  0
 14 49  2  0
 49 50  1  0
  6 51  1  0
 51 52  1  0
 51 53  2  0
 53 54  1  0
 53  2  1  0
 49  7  1  0
 47 15  1  0
 25 16  1  0
 41 30  1  0
M  CHG  1  47   1
M  END
>  <score>  (443) 
5.31392

$$$$

     RDKit          3D

 54 57  0  0  0  0  0  0  0  0999 V2000
   15.5209    5.3196   -1.4009 H   0  0  0  0  0  0  0  0  0  0  0  0
   15.6104    4.2548   -1.6022 C   0  0  0  0  0  0  0  0  0  0  0  0
   15.8567    3.8479   -2.8560 N   0  0  0  0  0  0  0  0  0  0  0  0
   15.9644    2.5271   -3.0928 C   0  0  0  0  0  0  0  0  0  0  0  0
   16.1492    2.2057   -4.1118 H   0  0  0  0  0  0  0  0  0  0  0  0
   15.8311    1.5466   -2.0985 C   0  0  0  0  0  0  0  0  0  0  0  0
   15.9365    0.1096   -2.4364 C   0  0  0  0  0  0  0  0  0  0  0  0
   16.4071   -0.3321   -3.6846 C   0  0  0  0  0  0  0  0  0  0  0  0
   16.7157    0.3908   -4.4322 H   0  0  0  0  0  0  0  0  0  0  0  0
   16.4801   -1.7014   -3.9839 C   0  0  0  0  0  0  0  0  0  0  0  0
   16.8379   -2.0253   -4.9570 H   0  0  0  0  0  0  0  0  0  0  0  0
   16.0942   -2.6525   -3.0304 C   0  0  0  0  0  0  0  0  0  0  0  0
   16.1510   -3.7121   -3.2716 H   0  0  0  0  0  0  0  0  0  0  0  0
   15.6171   -2.2351   -1.7750 C   0  0  0  0  0  0  0  0  0  0  0  0
   15.0727   -3.1981   -0.7315 C   0  0  2  0  0  0  0  0  0  0  0  0
   15.3894   -4.6558   -1.0226 C   0  0  0  0  0  0  0  0  0  0  0  0
   16.5868   -5.2454   -0.5925 C   0  0  0  0  0  0  0  0  0  0  0  0
   17.3095   -4.6427   -0.0505 H   0  0  0  0  0  0  0  0  0  0  0  0
   16.8438   -6.6002   -0.8386 C   0  0  0  0  0  0  0  0  0  0  0  0
   17.7721   -7.0416   -0.4868 H   0  0  0  0  0  0  0  0  0  0  0  0
   15.9031   -7.3792   -1.5243 C   0  0  0  0  0  0  0  0  0  0  0  0
   16.0878   -8.4351   -1.6990 H   0  0  0  0  0  0  0  0  0  0  0  0
   14.7170   -6.7952   -1.9786 C   0  0  0  0  0  0  0  0  0  0  0  0
   13.9800   -7.3878   -2.5118 H   0  0  0  0  0  0  0  0  0  0  0  0
   14.4688   -5.4430   -1.7346 C   0  0  0  0  0  0  0  0  0  0  0  0
   13.5434   -5.0048   -2.0939 H   0  0  0  0  0  0  0  0  0  0  0  0
   13.5544   -2.9759   -0.5776 C   0  0  0  0  0  0  0  0  0  0  0  0
   12.6985   -3.2279   -1.4240 O   0  0  0  0  0  0  0  0  0  0  0  0
   13.2551   -2.5166    0.6986 N   0  0  0  0  0  0  0  0  0  0  0  0
   11.9440   -2.1331    1.2231 N   0  0  0  0  0  0  0  0  0  0  0  0
   11.5627   -1.2197    0.9797 H   0  0  0  0  0  0  0  0  0  0  0  0
   11.0372   -2.8937    1.9423 C   0  0  0  0  0  0  0  0  0  0  0  0
   11.1988   -4.0495    2.2979 O   0  0  0  0  0  0  0  0  0  0  0  0
    9.8627   -2.2308    2.1925 N   0  0  0  0  0  0  0  0  0  0  0  0
    9.9493   -1.2290    2.0481 H   0  0  0  0  0  0  0  0  0  0  0  0
    9.0175   -2.6522    3.2886 C   0  0  0  0  0  0  0  0  0  0  0  0
    8.7154   -3.7042    3.2028 H   0  0  0  0  0  0  0  0  0  0  0  0
    8.1142   -2.0341    3.3071 H   0  0  0  0  0  0  0  0  0  0  0  0
    9.8350   -2.4612    4.5479 C   0  0  0  0  0  0  0  0  0  0  0  0
    9.1942   -2.5411    5.4238 H   0  0  0  0  0  0  0  0  0  0  0  0
   10.6374   -3.2002    4.6139 H   0  0  0  0  0  0  0  0  0  0  0  0
   10.3117   -1.4847    4.5399 H   0  0  0  0  0  0  0  0  0  0  0  0
   14.4751   -2.4562    1.3579 C   0  0  0  0  0  0  0  0  0  0  0  0
   14.6297   -2.1127    2.6637 N   0  0  0  0  0  0  0  0  0  0  0  0
   13.8007   -2.1179    3.2513 H   0  0  0  0  0  0  0  0  0  0  0  0
   15.5394   -2.2794    3.0826 H   0  0  0  0  0  0  0  0  0  0  0  0
   15.4847   -2.8070    0.6306 N   0  0  0  0  0  4  0  0  0  0  0  0
   16.4317   -2.9245    0.9953 H   0  0  0  0  0  0  0  0  0  0  0  0
   15.5401   -0.8589   -1.5094 C   0  0  0  0  0  0  0  0  0  0  0  0
   15.1453   -0.5331   -0.5540 H   0  0  0  0  0  0  0  0  0  0  0  0
   15.5832    1.9812   -0.7884 C   0  0  0  0  0  0  0  0  0  0  0  0
   15.4870    1.2661    0.0253 H   0  0  0  0  0  0  0  0  0  0  0  0
   15.4698    3.3528   -0.5466 C   0  0  0  0  0  0  0  0  0  0  0  0
   15.2821    3.7395    0.4487 H   0  0  0  0  0  0  0  0  0  0  0  0
  1  2  1  0
  2  3  2  0
  3  4  1  0
  4  5  1  0
  4  6  2  0
  6  7  1  0
  7  8  2  0
  8  9  1  0
  8 10  1  0
 10 11  1  0
 10 12  2  0
 12 13  1  0
 12 14  1  0
 15 14  1  6
 15 16  1  0
 16 17  2  0
 17 18  1  0
 17 19  1  0
 19 20  1  0
 19 21  2  0
 21 22  1  0
 21 23  1  0
 23 24  1  0
 23 25  2  0
 25 26  1  0
 15 27  1  0
 27 28  2  0
 27 29  1  0
 29 30  1  0
 30 31  1  0
 30 32  1  0
 32 33  2  0
 32 34  1  0
 34 35  1  0
 34 36  1  0
 36 37  1  0
 36 38  1  0
 36 39  1  0
 39 40  1  0
 39 41  1  0
 39 42  1  0
 29 43  1  0
 43 44  1  0
 44 45  1  0
 44 46  1  0
 43 47  2  0
 47 48  1  0
 14 49  2  0
 49 50  1  0
  6 51  1  0
 51 52  1  0
 51 53  2  0
 53 54  1  0
 53  2  1  0
 49  7  1  0
 47 15  1  0
 25 16  1  0
M  CHG  1  47   1
M  END
>  <score>  (444) 
5.313

$$$$

     RDKit          3D

 54 57  0  0  0  0  0  0  0  0999 V2000
    7.6253   -3.1756    2.9358 H   0  0  0  0  0  0  0  0  0  0  0  0
    8.1808   -3.3038    3.7209 O   0  0  0  0  0  0  0  0  0  0  0  0
    9.5547   -3.1177    3.3946 C   0  0  0  0  0  0  0  0  0  0  0  0
   10.1671   -3.3404    4.2719 H   0  0  0  0  0  0  0  0  0  0  0  0
    9.7318   -2.0790    3.1031 H   0  0  0  0  0  0  0  0  0  0  0  0
    9.9142   -4.0584    2.2557 C   0  0  0  0  0  0  0  0  0  0  0  0
    9.3301   -3.8061    1.3672 H   0  0  0  0  0  0  0  0  0  0  0  0
    9.6666   -5.0833    2.5461 H   0  0  0  0  0  0  0  0  0  0  0  0
   11.4024   -3.9750    1.9325 C   0  0  0  0  0  0  0  0  0  0  0  0
   11.6649   -4.7665    1.2233 H   0  0  0  0  0  0  0  0  0  0  0  0
   11.9950   -4.1355    2.8383 H   0  0  0  0  0  0  0  0  0  0  0  0
   11.7316   -2.6743    1.3360 N   0  0  0  0  0  0  0  0  0  0  0  0
   11.5560   -1.9024    1.9939 H   0  0  0  0  0  0  0  0  0  0  0  0
   13.0393   -2.6036    0.7006 N   0  0  0  0  0  0  0  0  0  0  0  0
   13.3299   -3.0084   -0.6013 C   0  0  0  0  0  0  0  0  0  0  0  0
   12.5088   -3.2181   -1.4944 O   0  0  0  0  0  0  0  0  0  0  0  0
   14.8478   -3.2173   -0.7586 C   0  0  1  0  0  0  0  0  0  0  0  0
   15.2033   -4.6777   -1.0538 C   0  0  0  0  0  0  0  0  0  0  0  0
   16.4186   -5.2118   -0.5975 C   0  0  0  0  0  0  0  0  0  0  0  0
   17.1018   -4.5682   -0.0535 H   0  0  0  0  0  0  0  0  0  0  0  0
   16.7421   -6.5588   -0.7996 C   0  0  0  0  0  0  0  0  0  0  0  0
   17.6775   -6.9533   -0.4109 H   0  0  0  0  0  0  0  0  0  0  0  0
   15.8565   -7.3955   -1.4848 C   0  0  0  0  0  0  0  0  0  0  0  0
   16.0974   -8.4465   -1.6233 H   0  0  0  0  0  0  0  0  0  0  0  0
   14.6498   -6.8791   -1.9688 C   0  0  0  0  0  0  0  0  0  0  0  0
   13.9563   -7.5388   -2.4842 H   0  0  0  0  0  0  0  0  0  0  0  0
   14.3244   -5.5303   -1.7518 C   0  0  0  0  0  0  0  0  0  0  0  0
   13.3704   -5.1557   -2.1134 H   0  0  0  0  0  0  0  0  0  0  0  0
   15.3969   -2.2139   -1.7632 C   0  0  0  0  0  0  0  0  0  0  0  0
   15.9367   -2.6181   -2.9923 C   0  0  0  0  0  0  0  0  0  0  0  0
   16.0034   -3.6768   -3.2224 H   0  0  0  0  0  0  0  0  0  0  0  0
   16.4097   -1.6735   -3.9120 C   0  0  0  0  0  0  0  0  0  0  0  0
   16.8627   -1.9968   -4.8450 H   0  0  0  0  0  0  0  0  0  0  0  0
   16.3314   -0.3091   -3.6144 C   0  0  0  0  0  0  0  0  0  0  0  0
   16.7025    0.4353   -4.3120 H   0  0  0  0  0  0  0  0  0  0  0  0
   15.7825    0.1259   -2.4047 C   0  0  0  0  0  0  0  0  0  0  0  0
   15.7096    1.5619   -2.1007 C   0  0  0  0  0  0  0  0  0  0  0  0
   15.8945    2.5299   -3.1017 C   0  0  0  0  0  0  0  0  0  0  0  0
   16.0957    2.1919   -4.1143 H   0  0  0  0  0  0  0  0  0  0  0  0
   15.8370    3.8535   -2.8666 N   0  0  0  0  0  0  0  0  0  0  0  0
   15.5850    4.2612   -1.6140 C   0  0  0  0  0  0  0  0  0  0  0  0
   15.5343    5.3254   -1.4103 H   0  0  0  0  0  0  0  0  0  0  0  0
   15.3933    3.3654   -0.5607 C   0  0  0  0  0  0  0  0  0  0  0  0
   15.2040    3.7460    0.4347 H   0  0  0  0  0  0  0  0  0  0  0  0
   15.4686    1.9965   -0.7995 C   0  0  0  0  0  0  0  0  0  0  0  0
   15.3657    1.2620   -0.0057 H   0  0  0  0  0  0  0  0  0  0  0  0
   15.3115   -0.8336   -1.4955 C   0  0  0  0  0  0  0  0  0  0  0  0
   14.8699   -0.4931   -0.5634 H   0  0  0  0  0  0  0  0  0  0  0  0
   15.2747   -2.8616    0.6010 N   0  0  0  0  0  4  0  0  0  0  0  0
   16.2284   -3.0062    0.9431 H   0  0  0  0  0  0  0  0  0  0  0  0
   14.2629   -2.5785    1.3646 C   0  0  0  0  0  0  0  0  0  0  0  0
   14.4736   -2.3400    2.6907 N   0  0  0  0  0  0  0  0  0  0  0  0
   13.6875   -2.1114    3.2989 H   0  0  0  0  0  0  0  0  0  0  0  0
   15.4278   -2.3333    3.0502 H   0  0  0  0  0  0  0  0  0  0  0  0
  1  2  1  0
  2  3  1  0
  3  4  1  0
  3  5  1  0
  3  6  1  0
  6  7  1  0
  6  8  1  0
  6  9  1  0
  9 10  1  0
  9 11  1  0
  9 12  1  0
 12 13  1  0
 12 14  1  0
 14 15  1  0
 15 16  2  0
 15 17  1  0
 17 18  1  6
 18 19  2  0
 19 20  1  0
 19 21  1  0
 21 22  1  0
 21 23  2  0
 23 24  1  0
 23 25  1  0
 25 26  1  0
 25 27  2  0
 27 28  1  0
 17 29  1  0
 29 30  2  0
 30 31  1  0
 30 32  1  0
 32 33  1  0
 32 34  2  0
 34 35  1  0
 34 36  1  0
 36 37  1  0
 37 38  2  0
 38 39  1  0
 38 40  1  0
 40 41  2  0
 41 42  1  0
 41 43  1  0
 43 44  1  0
 43 45  2  0
 45 46  1  0
 36 47  2  0
 47 48  1  0
 17 49  1  0
 49 50  1  0
 49 51  2  0
 51 52  1  0
 52 53  1  0
 52 54  1  0
 51 14  1  0
 27 18  1  0
 47 29  1  0
 45 37  1  0
M  CHG  1  49   1
M  END
>  <score>  (445) 
5.31027

$$$$

     RDKit          3D

 51 54  0  0  0  0  0  0  0  0999 V2000
   13.4814   -5.8875    2.9322 H   0  0  0  0  0  0  0  0  0  0  0  0
   13.0473   -5.5743    2.1158 O   0  0  0  0  0  0  0  0  0  0  0  0
   12.0985   -4.7545    2.5869 C   0  0  0  0  0  0  0  0  0  0  0  0
   11.8891   -4.5999    3.7692 O   0  0  0  0  0  0  0  0  0  0  0  0
   11.2023   -4.0375    1.6012 C   0  0  0  0  0  0  0  0  0  0  0  0
   10.1876   -4.0095    2.0023 H   0  0  0  0  0  0  0  0  0  0  0  0
   11.1825   -4.6263    0.6876 H   0  0  0  0  0  0  0  0  0  0  0  0
   11.6798   -2.6205    1.3097 C   0  0  0  0  0  0  0  0  0  0  0  0
   11.6932   -2.0189    2.2258 H   0  0  0  0  0  0  0  0  0  0  0  0
   10.9824   -2.1272    0.6219 H   0  0  0  0  0  0  0  0  0  0  0  0
   13.0086   -2.7095    0.7168 N   0  0  0  0  0  0  0  0  0  0  0  0
   13.2891   -3.0448   -0.5918 C   0  0  0  0  0  0  0  0  0  0  0  0
   12.4212   -3.1019   -1.4598 O   0  0  0  0  0  0  0  0  0  0  0  0
   14.8039   -3.2518   -0.7818 C   0  0  1  0  0  0  0  0  0  0  0  0
   15.1672   -4.7185   -1.0703 C   0  0  0  0  0  0  0  0  0  0  0  0
   16.3869   -5.2407   -0.6069 C   0  0  0  0  0  0  0  0  0  0  0  0
   17.0689   -4.5913   -0.0674 H   0  0  0  0  0  0  0  0  0  0  0  0
   16.7284   -6.5838   -0.8004 C   0  0  0  0  0  0  0  0  0  0  0  0
   17.6741   -6.9560   -0.4184 H   0  0  0  0  0  0  0  0  0  0  0  0
   15.8543   -7.4426   -1.4706 C   0  0  0  0  0  0  0  0  0  0  0  0
   16.1230   -8.4873   -1.6114 H   0  0  0  0  0  0  0  0  0  0  0  0
   14.6428   -6.9438   -1.9602 C   0  0  0  0  0  0  0  0  0  0  0  0
   13.9722   -7.6163   -2.4883 H   0  0  0  0  0  0  0  0  0  0  0  0
   14.3016   -5.5929   -1.7672 C   0  0  0  0  0  0  0  0  0  0  0  0
   13.3530   -5.2387   -2.1612 H   0  0  0  0  0  0  0  0  0  0  0  0
   15.3781   -2.2451   -1.7847 C   0  0  0  0  0  0  0  0  0  0  0  0
   15.9451   -2.6454   -3.0079 C   0  0  0  0  0  0  0  0  0  0  0  0
   16.0067   -3.7003   -3.2634 H   0  0  0  0  0  0  0  0  0  0  0  0
   16.4314   -1.6907   -3.9113 C   0  0  0  0  0  0  0  0  0  0  0  0
   16.8668   -2.0086   -4.8542 H   0  0  0  0  0  0  0  0  0  0  0  0
   16.3477   -0.3232   -3.6140 C   0  0  0  0  0  0  0  0  0  0  0  0
   16.7311    0.3986   -4.3283 H   0  0  0  0  0  0  0  0  0  0  0  0
   15.7745    0.1193   -2.4104 C   0  0  0  0  0  0  0  0  0  0  0  0
   15.6835    1.5730   -2.0941 C   0  0  0  0  0  0  0  0  0  0  0  0
   15.8624    2.5552   -3.0864 C   0  0  0  0  0  0  0  0  0  0  0  0
   16.0395    2.2342   -4.1073 H   0  0  0  0  0  0  0  0  0  0  0  0
   15.8209    3.8820   -2.8463 N   0  0  0  0  0  0  0  0  0  0  0  0
   15.5853    4.3035   -1.5946 C   0  0  0  0  0  0  0  0  0  0  0  0
   15.5710    5.3721   -1.3883 H   0  0  0  0  0  0  0  0  0  0  0  0
   15.3689    3.4039   -0.5498 C   0  0  0  0  0  0  0  0  0  0  0  0
   15.1674    3.7875    0.4443 H   0  0  0  0  0  0  0  0  0  0  0  0
   15.4273    2.0287   -0.7955 C   0  0  0  0  0  0  0  0  0  0  0  0
   15.2900    1.3208    0.0125 H   0  0  0  0  0  0  0  0  0  0  0  0
   15.3016   -0.8601   -1.5146 C   0  0  0  0  0  0  0  0  0  0  0  0
   14.8658   -0.5349   -0.5766 H   0  0  0  0  0  0  0  0  0  0  0  0
   15.2114   -2.8980    0.5951 N   0  0  0  0  0  4  0  0  0  0  0  0
   16.1827   -2.9012    0.9045 H   0  0  0  0  0  0  0  0  0  0  0  0
   14.2135   -2.6486    1.3762 C   0  0  0  0  0  0  0  0  0  0  0  0
   14.3920   -2.3538    2.6963 N   0  0  0  0  0  0  0  0  0  0  0  0
   13.5844   -2.1369    3.2768 H   0  0  0  0  0  0  0  0  0  0  0  0
   15.3337   -2.3571    3.0886 H   0  0  0  0  0  0  0  0  0  0  0  0
  1  2  1  0
  2  3  1  0
  3  4  2  0
  3  5  1  0
  5  6  1  0
  5  7  1  0
  5  8  1  0
  8  9  1  0
  8 10  1  0
  8 11  1  0
 11 12  1  0
 12 13  2  0
 12 14  1  0
 14 15  1  6
 15 16  2  0
 16 17  1  0
 16 18  1  0
 18 19  1  0
 18 20  2  0
 20 21  1  0
 20 22  1  0
 22 23  1  0
 22 24  2  0
 24 25  1  0
 14 26  1  0
 26 27  2  0
 27 28  1  0
 27 29  1  0
 29 30  1  0
 29 31  2  0
 31 32  1  0
 31 33  1  0
 33 34  1  0
 34 35  2  0
 35 36  1  0
 35 37  1  0
 37 38  2  0
 38 39  1  0
 38 40  1  0
 40 41  1  0
 40 42  2  0
 42 43  1  0
 33 44  2  0
 44 45  1  0
 14 46  1  0
 46 47  1  0
 46 48  2  0
 48 49  1  0
 49 50  1  0
 49 51  1  0
 48 11  1  0
 24 15  1  0
 44 26  1  0
 42 34  1  0
M  CHG  1  46   1
M  END
>  <score>  (446) 
5.30822

$$$$

     RDKit          3D

 51 55  0  0  0  0  0  0  0  0999 V2000
   15.5295    5.3239   -1.4150 H   0  0  0  0  0  0  0  0  0  0  0  0
   15.5843    4.2585   -1.6148 C   0  0  0  0  0  0  0  0  0  0  0  0
   15.8418    3.8507   -2.8667 N   0  0  0  0  0  0  0  0  0  0  0  0
   15.9004    2.5274   -3.1030 C   0  0  0  0  0  0  0  0  0  0  0  0
   16.0995    2.2002   -4.1192 H   0  0  0  0  0  0  0  0  0  0  0  0
   15.7114    1.5568   -2.1042 C   0  0  0  0  0  0  0  0  0  0  0  0
   15.7818    0.1217   -2.4115 C   0  0  0  0  0  0  0  0  0  0  0  0
   16.3337   -0.3066   -3.6237 C   0  0  0  0  0  0  0  0  0  0  0  0
   16.7066    0.4309   -4.3287 H   0  0  0  0  0  0  0  0  0  0  0  0
   16.4168   -1.6688   -3.9204 C   0  0  0  0  0  0  0  0  0  0  0  0
   16.8603   -1.9880   -4.8582 H   0  0  0  0  0  0  0  0  0  0  0  0
   15.9506   -2.6148   -3.0003 C   0  0  0  0  0  0  0  0  0  0  0  0
   16.0141   -3.6719   -3.2332 H   0  0  0  0  0  0  0  0  0  0  0  0
   15.4128   -2.2189   -1.7684 C   0  0  0  0  0  0  0  0  0  0  0  0
   14.8741   -3.2386   -0.7764 C   0  0  2  0  0  0  0  0  0  0  0  0
   15.2477   -4.6843   -1.0674 C   0  0  0  0  0  0  0  0  0  0  0  0
   16.4555   -5.2192   -0.5994 C   0  0  0  0  0  0  0  0  0  0  0  0
   17.1375   -4.5789   -0.0470 H   0  0  0  0  0  0  0  0  0  0  0  0
   16.7620   -6.5687   -0.7986 C   0  0  0  0  0  0  0  0  0  0  0  0
   17.6923   -6.9654   -0.4043 H   0  0  0  0  0  0  0  0  0  0  0  0
   15.8649   -7.3982   -1.4814 C   0  0  0  0  0  0  0  0  0  0  0  0
   16.0998   -8.4479   -1.6284 H   0  0  0  0  0  0  0  0  0  0  0  0
   14.6618   -6.8753   -1.9654 C   0  0  0  0  0  0  0  0  0  0  0  0
   13.9561   -7.5198   -2.4813 H   0  0  0  0  0  0  0  0  0  0  0  0
   14.3559   -5.5269   -1.7581 C   0  0  0  0  0  0  0  0  0  0  0  0
   13.4020   -5.1437   -2.1098 H   0  0  0  0  0  0  0  0  0  0  0  0
   13.3543   -3.0975   -0.6682 C   0  0  0  0  0  0  0  0  0  0  0  0
   12.5654   -3.2522   -1.6032 O   0  0  0  0  0  0  0  0  0  0  0  0
   13.0041   -2.8171    0.6395 N   0  0  0  0  0  0  0  0  0  0  0  0
   11.6561   -2.8623    1.1591 N   0  0  0  0  0  0  0  0  0  0  0  0
   10.5540   -2.3426    0.3289 C   0  0  0  0  0  0  0  0  0  0  0  0
    9.7467   -3.0583    0.1555 H   0  0  0  0  0  0  0  0  0  0  0  0
   10.8641   -1.9152   -0.6307 H   0  0  0  0  0  0  0  0  0  0  0  0
   10.2220   -1.3203    1.4003 C   0  0  0  0  0  0  0  0  0  0  0  0
   10.3792   -0.2880    1.0838 H   0  0  0  0  0  0  0  0  0  0  0  0
    9.2334   -1.4144    1.8520 H   0  0  0  0  0  0  0  0  0  0  0  0
   11.3559   -1.9191    2.2283 C   0  0  0  0  0  0  0  0  0  0  0  0
   11.0351   -2.3978    3.1609 H   0  0  0  0  0  0  0  0  0  0  0  0
   12.1806   -1.2245    2.4239 H   0  0  0  0  0  0  0  0  0  0  0  0
   14.2073   -2.6876    1.3451 C   0  0  0  0  0  0  0  0  0  0  0  0
   14.4433   -2.3590    2.6534 N   0  0  0  0  0  0  0  0  0  0  0  0
   13.6631   -2.3262    3.3082 H   0  0  0  0  0  0  0  0  0  0  0  0
   15.4044   -2.3970    2.9952 H   0  0  0  0  0  0  0  0  0  0  0  0
   15.2473   -2.9016    0.6044 N   0  0  0  0  0  4  0  0  0  0  0  0
   16.2111   -2.9182    0.9434 H   0  0  0  0  0  0  0  0  0  0  0  0
   15.3152   -0.8408   -1.4993 C   0  0  0  0  0  0  0  0  0  0  0  0
   14.8701   -0.5065   -0.5662 H   0  0  0  0  0  0  0  0  0  0  0  0
   15.4751    1.9922   -0.8006 C   0  0  0  0  0  0  0  0  0  0  0  0
   15.3668    1.2713    0.0043 H   0  0  0  0  0  0  0  0  0  0  0  0
   15.3994    3.3611   -0.5603 C   0  0  0  0  0  0  0  0  0  0  0  0
   15.2116    3.7362    0.4386 H   0  0  0  0  0  0  0  0  0  0  0  0
  1  2  1  0
  2  3  2  0
  3  4  1  0
  4  5  1  0
  4  6  2  0
  6  7  1  0
  7  8  2  0
  8  9  1  0
  8 10  1  0
 10 11  1  0
 10 12  2  0
 12 13  1  0
 12 14  1  0
 15 14  1  6
 15 16  1  0
 16 17  2  0
 17 18  1  0
 17 19  1  0
 19 20  1  0
 19 21  2  0
 21 22  1  0
 21 23  1  0
 23 24  1  0
 23 25  2  0
 25 26  1  0
 15 27  1  0
 27 28  2  0
 27 29  1  0
 29 30  1  0
 30 31  1  0
 31 32  1  0
 31 33  1  0
 31 34  1  0
 34 35  1  0
 34 36  1  0
 34 37  1  0
 37 38  1  0
 37 39  1  0
 29 40  1  0
 40 41  1  0
 41 42  1  0
 41 43  1  0
 40 44  2  0
 44 45  1  0
 14 46  2  0
 46 47  1  0
  6 48  1  0
 48 49  1  0
 48 50  2  0
 50 51  1  0
 50  2  1  0
 46  7  1  0
 44 15  1  0
 25 16  1  0
 37 30  1  0
M  CHG  1  44   1
M  END
>  <score>  (447) 
5.30608

$$$$

     RDKit          3D

 53 57  0  0  0  0  0  0  0  0999 V2000
   15.5147    5.3183   -1.4241 H   0  0  0  0  0  0  0  0  0  0  0  0
   15.5980    4.2520   -1.6132 C   0  0  0  0  0  0  0  0  0  0  0  0
   15.8541    3.8344   -2.8627 N   0  0  0  0  0  0  0  0  0  0  0  0
   15.9449    2.5104   -3.0887 C   0  0  0  0  0  0  0  0  0  0  0  0
   16.1441    2.1676   -4.0996 H   0  0  0  0  0  0  0  0  0  0  0  0
   15.7736    1.5458   -2.0853 C   0  0  0  0  0  0  0  0  0  0  0  0
   15.8401    0.1109   -2.3976 C   0  0  0  0  0  0  0  0  0  0  0  0
   16.3460   -0.3383   -3.6241 C   0  0  0  0  0  0  0  0  0  0  0  0
   16.6975    0.3901   -4.3478 H   0  0  0  0  0  0  0  0  0  0  0  0
   16.4117   -1.7061   -3.9040 C   0  0  0  0  0  0  0  0  0  0  0  0
   16.8101   -2.0387   -4.8546 H   0  0  0  0  0  0  0  0  0  0  0  0
   15.9713   -2.6358   -2.9578 C   0  0  0  0  0  0  0  0  0  0  0  0
   16.0190   -3.6975   -3.1760 H   0  0  0  0  0  0  0  0  0  0  0  0
   15.4646   -2.2068   -1.7216 C   0  0  0  0  0  0  0  0  0  0  0  0
   14.9116   -3.1740   -0.6965 C   0  0  2  0  0  0  0  0  0  0  0  0
   15.2450   -4.6239   -1.0012 C   0  0  0  0  0  0  0  0  0  0  0  0
   16.4629   -5.1752   -0.5717 C   0  0  0  0  0  0  0  0  0  0  0  0
   17.1684   -4.5449   -0.0360 H   0  0  0  0  0  0  0  0  0  0  0  0
   16.7619   -6.5174   -0.8157 C   0  0  0  0  0  0  0  0  0  0  0  0
   17.7001   -6.9264   -0.4534 H   0  0  0  0  0  0  0  0  0  0  0  0
   15.8497   -7.3200   -1.5081 C   0  0  0  0  0  0  0  0  0  0  0  0
   16.0788   -8.3654   -1.6854 H   0  0  0  0  0  0  0  0  0  0  0  0
   14.6447   -6.7744   -1.9645 C   0  0  0  0  0  0  0  0  0  0  0  0
   13.9403   -7.3965   -2.5066 H   0  0  0  0  0  0  0  0  0  0  0  0
   14.3451   -5.4309   -1.7169 C   0  0  0  0  0  0  0  0  0  0  0  0
   13.4028   -5.0191   -2.0697 H   0  0  0  0  0  0  0  0  0  0  0  0
   13.4002   -2.9034   -0.5369 C   0  0  0  0  0  0  0  0  0  0  0  0
   12.5166   -3.1594   -1.3571 O   0  0  0  0  0  0  0  0  0  0  0  0
   13.1583   -2.4499    0.7413 N   0  0  0  0  0  0  0  0  0  0  0  0
   11.8916   -2.4018    1.3270 C   0  0  0  0  0  0  0  0  0  0  0  0
   10.8486   -1.6710    0.7476 C   0  0  0  0  0  0  0  0  0  0  0  0
   11.0630   -1.0360   -0.1064 H   0  0  0  0  0  0  0  0  0  0  0  0
    9.5455   -1.7609    1.2538 C   0  0  0  0  0  0  0  0  0  0  0  0
    8.7366   -1.1947    0.7908 H   0  0  0  0  0  0  0  0  0  0  0  0
    9.2839   -2.5963    2.3492 C   0  0  0  0  0  0  0  0  0  0  0  0
    7.9520   -2.7746    2.8334 C   0  0  0  0  0  0  0  0  0  0  0  0
    6.8568   -2.9389    3.1983 N   0  0  0  0  0  0  0  0  0  0  0  0
   10.3389   -3.2767    2.9634 C   0  0  0  0  0  0  0  0  0  0  0  0
   10.1335   -3.9001    3.8298 H   0  0  0  0  0  0  0  0  0  0  0  0
   11.6372   -3.1630    2.4651 C   0  0  0  0  0  0  0  0  0  0  0  0
   12.4569   -3.6984    2.9371 H   0  0  0  0  0  0  0  0  0  0  0  0
   14.3419   -2.5679    1.4280 C   0  0  0  0  0  0  0  0  0  0  0  0
   14.4887   -2.4422    2.7756 N   0  0  0  0  0  0  0  0  0  0  0  0
   13.6949   -2.0686    3.2935 H   0  0  0  0  0  0  0  0  0  0  0  0
   15.4264   -2.2269    3.1051 H   0  0  0  0  0  0  0  0  0  0  0  0
   15.3514   -2.8500    0.6766 N   0  0  0  0  0  4  0  0  0  0  0  0
   16.2574   -3.1341    1.0607 H   0  0  0  0  0  0  0  0  0  0  0  0
   15.3890   -0.8309   -1.4659 C   0  0  0  0  0  0  0  0  0  0  0  0
   14.9488   -0.4817   -0.5348 H   0  0  0  0  0  0  0  0  0  0  0  0
   15.5403    1.9882   -0.7806 C   0  0  0  0  0  0  0  0  0  0  0  0
   15.4428    1.2675    0.0279 H   0  0  0  0  0  0  0  0  0  0  0  0
   15.4491    3.3600   -0.5487 C   0  0  0  0  0  0  0  0  0  0  0  0
   15.2658    3.7412    0.4481 H   0  0  0  0  0  0  0  0  0  0  0  0
  1  2  1  0
  2  3  2  0
  3  4  1  0
  4  5  1  0
  4  6  2  0
  6  7  1  0
  7  8  2  0
  8  9  1  0
  8 10  1  0
 10 11  1  0
 10 12  2  0
 12 13  1  0
 12 14  1  0
 15 14  1  6
 15 16  1  0
 16 17  2  0
 17 18  1  0
 17 19  1  0
 19 20  1  0
 19 21  2  0
 21 22  1  0
 21 23  1  0
 23 24  1  0
 23 25  2  0
 25 26  1  0
 15 27  1  0
 27 28  2  0
 27 29  1  0
 29 30  1  0
 30 31  2  0
 31 32  1  0
 31 33  1  0
 33 34  1  0
 33 35  2  0
 35 36  1  0
 36 37  3  0
 35 38  1  0
 38 39  1  0
 38 40  2  0
 40 41  1  0
 29 42  1  0
 42 43  1  0
 43 44  1  0
 43 45  1  0
 42 46  2  0
 46 47  1  0
 14 48  2  0
 48 49  1  0
  6 50  1  0
 50 51  1  0
 50 52  2  0
 52 53  1  0
 52  2  1  0
 48  7  1  0
 46 15  1  0
 25 16  1  0
 40 30  1  0
M  CHG  1  46   1
M  END
>  <score>  (448) 
5.30466

$$$$

     RDKit          3D

 53 56  0  0  0  0  0  0  0  0999 V2000
   14.2253   -6.4809    2.9090 H   0  0  0  0  0  0  0  0  0  0  0  0
   14.0392   -6.4737    1.9403 O   0  0  0  0  0  0  0  0  0  0  0  0
   13.0448   -5.5200    1.5090 N   0  0  0  0  0  0  0  0  0  0  0  0
   12.9084   -5.4211    0.5078 H   0  0  0  0  0  0  0  0  0  0  0  0
   12.1250   -4.8285    2.2779 C   0  0  0  0  0  0  0  0  0  0  0  0
   12.1010   -4.9042    3.4964 O   0  0  0  0  0  0  0  0  0  0  0  0
   11.1210   -3.9624    1.5491 C   0  0  0  0  0  0  0  0  0  0  0  0
   10.9153   -4.4406    0.5907 H   0  0  0  0  0  0  0  0  0  0  0  0
   10.1917   -3.9207    2.1211 H   0  0  0  0  0  0  0  0  0  0  0  0
   11.6871   -2.5674    1.3270 C   0  0  0  0  0  0  0  0  0  0  0  0
   11.7313   -2.0111    2.2726 H   0  0  0  0  0  0  0  0  0  0  0  0
   11.0244   -2.0073    0.6592 H   0  0  0  0  0  0  0  0  0  0  0  0
   13.0091   -2.6903    0.7300 N   0  0  0  0  0  0  0  0  0  0  0  0
   13.2856   -3.0656   -0.5689 C   0  0  0  0  0  0  0  0  0  0  0  0
   12.4143   -3.2766   -1.4105 O   0  0  0  0  0  0  0  0  0  0  0  0
   14.8083   -3.2339   -0.7460 C   0  0  1  0  0  0  0  0  0  0  0  0
   15.1934   -4.6810   -1.0446 C   0  0  0  0  0  0  0  0  0  0  0  0
   16.4152   -5.2066   -0.5893 C   0  0  0  0  0  0  0  0  0  0  0  0
   17.1050   -4.5669   -0.0456 H   0  0  0  0  0  0  0  0  0  0  0  0
   16.7428   -6.5509   -0.7988 C   0  0  0  0  0  0  0  0  0  0  0  0
   17.6798   -6.9434   -0.4142 H   0  0  0  0  0  0  0  0  0  0  0  0
   15.8551   -7.3890   -1.4804 C   0  0  0  0  0  0  0  0  0  0  0  0
   16.1005   -8.4365   -1.6301 H   0  0  0  0  0  0  0  0  0  0  0  0
   14.6465   -6.8759   -1.9612 C   0  0  0  0  0  0  0  0  0  0  0  0
   13.9555   -7.5240   -2.4918 H   0  0  0  0  0  0  0  0  0  0  0  0
   14.3202   -5.5308   -1.7477 C   0  0  0  0  0  0  0  0  0  0  0  0
   13.3721   -5.1494   -2.1145 H   0  0  0  0  0  0  0  0  0  0  0  0
   15.3641   -2.2228   -1.7491 C   0  0  0  0  0  0  0  0  0  0  0  0
   15.9265   -2.6268   -2.9714 C   0  0  0  0  0  0  0  0  0  0  0  0
   15.9906   -3.6832   -3.2097 H   0  0  0  0  0  0  0  0  0  0  0  0
   16.4072   -1.6858   -3.8897 C   0  0  0  0  0  0  0  0  0  0  0  0
   16.8461   -2.0051   -4.8286 H   0  0  0  0  0  0  0  0  0  0  0  0
   16.3244   -0.3225   -3.6047 C   0  0  0  0  0  0  0  0  0  0  0  0
   16.7022    0.4085   -4.3131 H   0  0  0  0  0  0  0  0  0  0  0  0
   15.7754    0.1149   -2.3960 C   0  0  0  0  0  0  0  0  0  0  0  0
   15.7139    1.5529   -2.0959 C   0  0  0  0  0  0  0  0  0  0  0  0
   15.9032    2.5212   -3.0974 C   0  0  0  0  0  0  0  0  0  0  0  0
   16.1001    2.1936   -4.1137 H   0  0  0  0  0  0  0  0  0  0  0  0
   15.8386    3.8453   -2.8658 N   0  0  0  0  0  0  0  0  0  0  0  0
   15.5875    4.2587   -1.6142 C   0  0  0  0  0  0  0  0  0  0  0  0
   15.5293    5.3246   -1.4159 H   0  0  0  0  0  0  0  0  0  0  0  0
   15.4042    3.3634   -0.5581 C   0  0  0  0  0  0  0  0  0  0  0  0
   15.2108    3.7374    0.4397 H   0  0  0  0  0  0  0  0  0  0  0  0
   15.4758    1.9942   -0.7957 C   0  0  0  0  0  0  0  0  0  0  0  0
   15.3683    1.2750    0.0099 H   0  0  0  0  0  0  0  0  0  0  0  0
   15.2962   -0.8413   -1.4816 C   0  0  0  0  0  0  0  0  0  0  0  0
   14.8599   -0.4981   -0.5478 H   0  0  0  0  0  0  0  0  0  0  0  0
   15.2129   -2.8969    0.6335 N   0  0  0  0  0  4  0  0  0  0  0  0
   16.1740   -2.9655    0.9699 H   0  0  0  0  0  0  0  0  0  0  0  0
   14.2067   -2.6554    1.4035 C   0  0  0  0  0  0  0  0  0  0  0  0
   14.3853   -2.4114    2.7320 N   0  0  0  0  0  0  0  0  0  0  0  0
   13.5882   -2.1373    3.3039 H   0  0  0  0  0  0  0  0  0  0  0  0
   15.3365   -2.2956    3.0812 H   0  0  0  0  0  0  0  0  0  0  0  0
  1  2  1  0
  2  3  1  0
  3  4  1  0
  3  5  1  0
  5  6  2  0
  5  7  1  0
  7  8  1  0
  7  9  1  0
  7 10  1  0
 10 11  1  0
 10 12  1  0
 10 13  1  0
 13 14  1  0
 14 15  2  0
 14 16  1  0
 16 17  1  6
 17 18  2  0
 18 19  1  0
 18 20  1  0
 20 21  1  0
 20 22  2  0
 22 23  1  0
 22 24  1  0
 24 25  1  0
 24 26  2  0
 26 27  1  0
 16 28  1  0
 28 29  2  0
 29 30  1  0
 29 31  1  0
 31 32  1  0
 31 33  2  0
 33 34  1  0
 33 35  1  0
 35 36  1  0
 36 37  2  0
 37 38  1  0
 37 39  1  0
 39 40  2  0
 40 41  1  0
 40 42  1  0
 42 43  1  0
 42 44  2  0
 44 45  1  0
 35 46  2  0
 46 47  1  0
 16 48  1  0
 48 49  1  0
 48 50  2  0
 50 51  1  0
 51 52  1  0
 51 53  1  0
 50 13  1  0
 26 17  1  0
 46 28  1  0
 44 36  1  0
M  CHG  1  48   1
M  END
>  <score>  (449) 
5.30179

$$$$

     RDKit          3D

 55 59  0  0  0  0  0  0  0  0999 V2000
   15.5545    5.3536   -1.3932 H   0  0  0  0  0  0  0  0  0  0  0  0
   15.5867    4.2869   -1.6047 C   0  0  0  0  0  0  0  0  0  0  0  0
   15.8215    3.8697   -2.8592 N   0  0  0  0  0  0  0  0  0  0  0  0
   15.8780    2.5428   -3.0936 C   0  0  0  0  0  0  0  0  0  0  0  0
   16.0700    2.2007   -4.1050 H   0  0  0  0  0  0  0  0  0  0  0  0
   15.6958    1.5685   -2.0980 C   0  0  0  0  0  0  0  0  0  0  0  0
   15.7731    0.1213   -2.4059 C   0  0  0  0  0  0  0  0  0  0  0  0
   16.3313   -0.3179   -3.6100 C   0  0  0  0  0  0  0  0  0  0  0  0
   16.7107    0.4283   -4.3004 H   0  0  0  0  0  0  0  0  0  0  0  0
   16.4220   -1.6860   -3.9017 C   0  0  0  0  0  0  0  0  0  0  0  0
   16.8622   -2.0044   -4.8407 H   0  0  0  0  0  0  0  0  0  0  0  0
   15.9391   -2.6361   -2.9906 C   0  0  0  0  0  0  0  0  0  0  0  0
   15.9976   -3.6946   -3.2322 H   0  0  0  0  0  0  0  0  0  0  0  0
   15.3726   -2.2315   -1.7683 C   0  0  0  0  0  0  0  0  0  0  0  0
   14.8039   -3.2417   -0.7649 C   0  0  2  0  0  0  0  0  0  0  0  0
   15.1750   -4.6996   -1.0671 C   0  0  0  0  0  0  0  0  0  0  0  0
   16.3961   -5.2226   -0.6048 C   0  0  0  0  0  0  0  0  0  0  0  0
   17.0727   -4.5732   -0.0565 H   0  0  0  0  0  0  0  0  0  0  0  0
   16.7353   -6.5675   -0.8044 C   0  0  0  0  0  0  0  0  0  0  0  0
   17.6713   -6.9568   -0.4134 H   0  0  0  0  0  0  0  0  0  0  0  0
   15.8578   -7.4186   -1.4806 C   0  0  0  0  0  0  0  0  0  0  0  0
   16.1065   -8.4680   -1.6144 H   0  0  0  0  0  0  0  0  0  0  0  0
   14.6464   -6.9169   -1.9657 C   0  0  0  0  0  0  0  0  0  0  0  0
   13.9644   -7.5833   -2.4873 H   0  0  0  0  0  0  0  0  0  0  0  0
   14.3093   -5.5673   -1.7640 C   0  0  0  0  0  0  0  0  0  0  0  0
   13.3561   -5.1968   -2.1294 H   0  0  0  0  0  0  0  0  0  0  0  0
   13.2853   -3.0345   -0.5922 C   0  0  0  0  0  0  0  0  0  0  0  0
   12.4467   -3.1244   -1.4864 O   0  0  0  0  0  0  0  0  0  0  0  0
   12.9906   -2.6881    0.7160 N   0  0  0  0  0  0  0  0  0  0  0  0
   11.7079   -2.4912    1.2765 C   0  0  0  0  0  0  0  0  0  0  0  0
   10.7353   -1.6095    0.7393 C   0  0  0  0  0  0  0  0  0  0  0  0
   11.0156   -1.0231   -0.1320 H   0  0  0  0  0  0  0  0  0  0  0  0
    9.5030   -1.4519    1.2710 N   0  0  0  0  0  0  0  0  0  0  0  0
    9.1906   -2.1924    2.3581 C   0  0  0  0  0  0  0  0  0  0  0  0
    8.1893   -2.0702    2.7634 H   0  0  0  0  0  0  0  0  0  0  0  0
   10.0774   -3.1367    2.9352 C   0  0  0  0  0  0  0  0  0  0  0  0
    9.7801   -4.0258    3.9454 O   0  0  0  0  0  0  0  0  0  0  0  0
    8.5400   -3.8350    4.6145 C   0  0  0  0  0  0  0  0  0  0  0  0
    7.7162   -4.0262    3.9270 H   0  0  0  0  0  0  0  0  0  0  0  0
    8.5112   -2.8054    4.9722 H   0  0  0  0  0  0  0  0  0  0  0  0
    8.4388   -4.5274    5.4572 H   0  0  0  0  0  0  0  0  0  0  0  0
   11.3607   -3.2333    2.4031 C   0  0  0  0  0  0  0  0  0  0  0  0
   12.0589   -3.9295    2.8591 H   0  0  0  0  0  0  0  0  0  0  0  0
   14.2015   -2.6662    1.3906 C   0  0  0  0  0  0  0  0  0  0  0  0
   14.3977   -2.3713    2.7072 N   0  0  0  0  0  0  0  0  0  0  0  0
   13.6138   -2.0498    3.2737 H   0  0  0  0  0  0  0  0  0  0  0  0
   15.3492   -2.3485    3.0760 H   0  0  0  0  0  0  0  0  0  0  0  0
   15.2096   -2.9228    0.6213 N   0  0  0  0  0  4  0  0  0  0  0  0
   16.1797   -2.9392    0.9434 H   0  0  0  0  0  0  0  0  0  0  0  0
   15.3026   -0.8465   -1.4995 C   0  0  0  0  0  0  0  0  0  0  0  0
   14.8658   -0.5037   -0.5672 H   0  0  0  0  0  0  0  0  0  0  0  0
   15.4473    2.0118   -0.8004 C   0  0  0  0  0  0  0  0  0  0  0  0
   15.3347    1.2732   -0.0131 H   0  0  0  0  0  0  0  0  0  0  0  0
   15.3840    3.3866   -0.5562 C   0  0  0  0  0  0  0  0  0  0  0  0
   15.1796    3.7730    0.4352 H   0  0  0  0  0  0  0  0  0  0  0  0
  1  2  1  0
  2  3  2  0
  3  4  1  0
  4  5  1  0
  4  6  2  0
  6  7  1  0
  7  8  2  0
  8  9  1  0
  8 10  1  0
 10 11  1  0
 10 12  2  0
 12 13  1  0
 12 14  1  0
 15 14  1  6
 15 16  1  0
 16 17  2  0
 17 18  1  0
 17 19  1  0
 19 20  1  0
 19 21  2  0
 21 22  1  0
 21 23  1  0
 23 24  1  0
 23 25  2  0
 25 26  1  0
 15 27  1  0
 27 28  2  0
 27 29  1  0
 29 30  1  0
 30 31  2  0
 31 32  1  0
 31 33  1  0
 33 34  2  0
 34 35  1  0
 34 36  1  0
 36 37  1  0
 37 38  1  0
 38 39  1  0
 38 40  1  0
 38 41  1  0
 36 42  2  0
 42 43  1  0
 29 44  1  0
 44 45  1  0
 45 46  1  0
 45 47  1  0
 44 48  2  0
 48 49  1  0
 14 50  2  0
 50 51  1  0
  6 52  1  0
 52 53  1  0
 52 54  2  0
 54 55  1  0
 54  2  1  0
 50  7  1  0
 48 15  1  0
 25 16  1  0
 42 30  1  0
M  CHG  1  48   1
M  END
>  <score>  (450) 
5.29869

$$$$

     RDKit          3D

 64 68  0  0  0  0  0  0  0  0999 V2000
   15.5523    5.3225   -1.4195 H   0  0  0  0  0  0  0  0  0  0  0  0
   15.6331    4.2556   -1.6061 C   0  0  0  0  0  0  0  0  0  0  0  0
   15.8767    3.8332   -2.8560 N   0  0  0  0  0  0  0  0  0  0  0  0
   15.9665    2.5084   -3.0761 C   0  0  0  0  0  0  0  0  0  0  0  0
   16.1512    2.1715   -4.0912 H   0  0  0  0  0  0  0  0  0  0  0  0
   15.8154    1.5441   -2.0659 C   0  0  0  0  0  0  0  0  0  0  0  0
   15.8932    0.1022   -2.3722 C   0  0  0  0  0  0  0  0  0  0  0  0
   16.3762   -0.3600   -3.6061 C   0  0  0  0  0  0  0  0  0  0  0  0
   16.7163    0.3524   -4.3505 H   0  0  0  0  0  0  0  0  0  0  0  0
   16.4260   -1.7309   -3.8863 C   0  0  0  0  0  0  0  0  0  0  0  0
   16.7963   -2.0755   -4.8459 H   0  0  0  0  0  0  0  0  0  0  0  0
   15.9867   -2.6572   -2.9356 C   0  0  0  0  0  0  0  0  0  0  0  0
   16.0100   -3.7196   -3.1626 H   0  0  0  0  0  0  0  0  0  0  0  0
   15.4986   -2.2237   -1.6942 C   0  0  0  0  0  0  0  0  0  0  0  0
   14.9217   -3.1938   -0.6775 C   0  0  2  0  0  0  0  0  0  0  0  0
   15.2659   -4.6495   -0.9750 C   0  0  0  0  0  0  0  0  0  0  0  0
   16.4830   -5.2001   -0.5449 C   0  0  0  0  0  0  0  0  0  0  0  0
   17.1847   -4.5817    0.0077 H   0  0  0  0  0  0  0  0  0  0  0  0
   16.8012   -6.5366   -0.8127 C   0  0  0  0  0  0  0  0  0  0  0  0
   17.7446   -6.9451   -0.4630 H   0  0  0  0  0  0  0  0  0  0  0  0
   15.9047   -7.3418   -1.5232 C   0  0  0  0  0  0  0  0  0  0  0  0
   16.1466   -8.3813   -1.7243 H   0  0  0  0  0  0  0  0  0  0  0  0
   14.6970   -6.8034   -1.9764 C   0  0  0  0  0  0  0  0  0  0  0  0
   14.0000   -7.4226   -2.5339 H   0  0  0  0  0  0  0  0  0  0  0  0
   14.3830   -5.4651   -1.7090 C   0  0  0  0  0  0  0  0  0  0  0  0
   13.4434   -5.0609   -2.0727 H   0  0  0  0  0  0  0  0  0  0  0  0
   13.4080   -2.9514   -0.5863 C   0  0  0  0  0  0  0  0  0  0  0  0
   12.5790   -3.1556   -1.4722 O   0  0  0  0  0  0  0  0  0  0  0  0
   13.0978   -2.4661    0.6671 N   0  0  0  0  0  0  0  0  0  0  0  0
   11.8249   -1.9617    1.0638 O   0  0  0  0  0  0  0  0  0  0  0  0
   10.8235   -2.9727    0.9858 C   0  0  0  0  0  0  0  0  0  0  0  0
   11.1637   -3.8394    1.5596 H   0  0  0  0  0  0  0  0  0  0  0  0
   10.6871   -3.2728   -0.0590 H   0  0  0  0  0  0  0  0  0  0  0  0
    9.5122   -2.4532    1.5728 C   0  0  0  0  0  0  0  0  0  0  0  0
    9.7116   -2.0161    2.5557 H   0  0  0  0  0  0  0  0  0  0  0  0
    9.0965   -1.6734    0.9329 H   0  0  0  0  0  0  0  0  0  0  0  0
    8.5005   -3.5852    1.7273 C   0  0  0  0  0  0  0  0  0  0  0  0
    7.6410   -3.2299    2.3125 H   0  0  0  0  0  0  0  0  0  0  0  0
    8.1387   -3.8932    0.7385 H   0  0  0  0  0  0  0  0  0  0  0  0
    9.1303   -4.7308    2.3945 N   0  0  0  0  0  0  0  0  0  0  0  0
    8.3445   -5.9614    2.4798 C   0  0  0  0  0  0  0  0  0  0  0  0
    7.3246   -5.7394    2.8209 H   0  0  0  0  0  0  0  0  0  0  0  0
    8.3165   -6.4755    1.5120 H   0  0  0  0  0  0  0  0  0  0  0  0
    9.0880   -6.7908    3.5089 C   0  0  0  0  0  0  0  0  0  0  0  0
    9.8821   -7.3559    3.0104 H   0  0  0  0  0  0  0  0  0  0  0  0
    8.4177   -7.4929    4.0226 H   0  0  0  0  0  0  0  0  0  0  0  0
    9.7214   -5.7685    4.4514 C   0  0  0  0  0  0  0  0  0  0  0  0
    9.0814   -5.5937    5.3182 H   0  0  0  0  0  0  0  0  0  0  0  0
   10.6931   -6.1095    4.8091 H   0  0  0  0  0  0  0  0  0  0  0  0
    9.8908   -4.4981    3.6310 C   0  0  0  0  0  0  0  0  0  0  0  0
    9.5369   -3.6099    4.1641 H   0  0  0  0  0  0  0  0  0  0  0  0
   10.9460   -4.3525    3.3958 H   0  0  0  0  0  0  0  0  0  0  0  0
   14.2770   -2.4068    1.3917 C   0  0  0  0  0  0  0  0  0  0  0  0
   14.4238   -2.0042    2.6944 N   0  0  0  0  0  0  0  0  0  0  0  0
   15.3275   -2.1714    3.1401 H   0  0  0  0  0  0  0  0  0  0  0  0
   13.5876   -1.9805    3.2761 H   0  0  0  0  0  0  0  0  0  0  0  0
   15.2973   -2.8170    0.7028 N   0  0  0  0  0  4  0  0  0  0  0  0
   16.2585   -2.8473    1.0503 H   0  0  0  0  0  0  0  0  0  0  0  0
   15.4564   -0.8434   -1.4341 C   0  0  0  0  0  0  0  0  0  0  0  0
   15.0522   -0.4954   -0.4886 H   0  0  0  0  0  0  0  0  0  0  0  0
   15.5763    1.9961   -0.7630 C   0  0  0  0  0  0  0  0  0  0  0  0
   15.4746    1.2909    0.0583 H   0  0  0  0  0  0  0  0  0  0  0  0
   15.4802    3.3683   -0.5390 C   0  0  0  0  0  0  0  0  0  0  0  0
   15.2873    3.7543    0.4549 H   0  0  0  0  0  0  0  0  0  0  0  0
  1  2  1  0
  2  3  2  0
  3  4  1  0
  4  5  1  0
  4  6  2  0
  6  7  1  0
  7  8  2  0
  8  9  1  0
  8 10  1  0
 10 11  1  0
 10 12  2  0
 12 13  1  0
 12 14  1  0
 15 14  1  6
 15 16  1  0
 16 17  2  0
 17 18  1  0
 17 19  1  0
 19 20  1  0
 19 21  2  0
 21 22  1  0
 21 23  1  0
 23 24  1  0
 23 25  2  0
 25 26  1  0
 15 27  1  0
 27 28  2  0
 27 29  1  0
 29 30  1  0
 30 31  1  0
 31 32  1  0
 31 33  1  0
 31 34  1  0
 34 35  1  0
 34 36  1  0
 34 37  1  0
 37 38  1  0
 37 39  1  0
 37 40  1  0
 40 41  1  0
 41 42  1  0
 41 43  1  0
 41 44  1  0
 44 45  1  0
 44 46  1  0
 44 47  1  0
 47 48  1  0
 47 49  1  0
 47 50  1  0
 50 51  1  0
 50 52  1  0
 29 53  1  0
 53 54  1  0
 54 55  1  0
 54 56  1  0
 53 57  2  0
 57 58  1  0
 14 59  2  0
 59 60  1  0
  6 61  1  0
 61 62  1  0
 61 63  2  0
 63 64  1  0
 63  2  1  0
 59  7  1  0
 57 15  1  0
 25 16  1  0
 50 40  1  0
M  CHG  1  57   1
M  END
>  <score>  (451) 
5.29775

$$$$

     RDKit          3D

 52 56  0  0  0  0  0  0  0  0999 V2000
   15.5514    5.3493   -1.3949 H   0  0  0  0  0  0  0  0  0  0  0  0
   15.5864    4.2830   -1.6061 C   0  0  0  0  0  0  0  0  0  0  0  0
   15.8229    3.8674   -2.8608 N   0  0  0  0  0  0  0  0  0  0  0  0
   15.8801    2.5409   -3.0948 C   0  0  0  0  0  0  0  0  0  0  0  0
   16.0750    2.1972   -4.1055 H   0  0  0  0  0  0  0  0  0  0  0  0
   15.6974    1.5684   -2.0987 C   0  0  0  0  0  0  0  0  0  0  0  0
   15.7753    0.1237   -2.4049 C   0  0  0  0  0  0  0  0  0  0  0  0
   16.3310   -0.3157   -3.6097 C   0  0  0  0  0  0  0  0  0  0  0  0
   16.7080    0.4303   -4.2993 H   0  0  0  0  0  0  0  0  0  0  0  0
   16.4214   -1.6824   -3.9048 C   0  0  0  0  0  0  0  0  0  0  0  0
   16.8618   -2.0053   -4.8417 H   0  0  0  0  0  0  0  0  0  0  0  0
   15.9455   -2.6335   -2.9938 C   0  0  0  0  0  0  0  0  0  0  0  0
   15.9983   -3.6933   -3.2323 H   0  0  0  0  0  0  0  0  0  0  0  0
   15.3914   -2.2273   -1.7688 C   0  0  0  0  0  0  0  0  0  0  0  0
   14.8233   -3.2348   -0.7712 C   0  0  2  0  0  0  0  0  0  0  0  0
   15.1817   -4.6966   -1.0723 C   0  0  0  0  0  0  0  0  0  0  0  0
   16.3987   -5.2234   -0.6071 C   0  0  0  0  0  0  0  0  0  0  0  0
   17.0736   -4.5731   -0.0576 H   0  0  0  0  0  0  0  0  0  0  0  0
   16.7358   -6.5688   -0.8031 C   0  0  0  0  0  0  0  0  0  0  0  0
   17.6725   -6.9564   -0.4126 H   0  0  0  0  0  0  0  0  0  0  0  0
   15.8565   -7.4164   -1.4817 C   0  0  0  0  0  0  0  0  0  0  0  0
   16.1049   -8.4652   -1.6161 H   0  0  0  0  0  0  0  0  0  0  0  0
   14.6449   -6.9137   -1.9660 C   0  0  0  0  0  0  0  0  0  0  0  0
   13.9619   -7.5789   -2.4882 H   0  0  0  0  0  0  0  0  0  0  0  0
   14.3093   -5.5631   -1.7642 C   0  0  0  0  0  0  0  0  0  0  0  0
   13.3560   -5.1911   -2.1265 H   0  0  0  0  0  0  0  0  0  0  0  0
   13.3095   -2.9935   -0.6173 C   0  0  0  0  0  0  0  0  0  0  0  0
   12.4742   -3.0980   -1.5170 O   0  0  0  0  0  0  0  0  0  0  0  0
   13.0301   -2.6487    0.6876 N   0  0  0  0  0  0  0  0  0  0  0  0
   11.7944   -2.1913    1.1519 C   0  0  0  0  0  0  0  0  0  0  0  0
   11.1692   -1.0920    0.6847 C   0  0  0  0  0  0  0  0  0  0  0  0
   11.5616   -0.3998   -0.0487 H   0  0  0  0  0  0  0  0  0  0  0  0
    9.9110   -1.0193    1.4002 C   0  0  0  0  0  0  0  0  0  0  0  0
    9.1842   -0.2154    1.3026 H   0  0  0  0  0  0  0  0  0  0  0  0
    9.7897   -2.0239    2.2393 N   0  0  0  0  0  0  0  0  0  0  0  0
   10.9544   -2.7271    2.1175 N   0  0  0  0  0  0  0  0  0  0  0  0
   11.2067   -4.0010    2.7810 C   0  0  0  0  0  0  0  0  0  0  0  0
   12.2840   -4.1286    2.9408 H   0  0  0  0  0  0  0  0  0  0  0  0
   10.6943   -4.0390    3.7508 H   0  0  0  0  0  0  0  0  0  0  0  0
   10.8344   -4.8007    2.1320 H   0  0  0  0  0  0  0  0  0  0  0  0
   14.2315   -2.6188    1.3669 C   0  0  0  0  0  0  0  0  0  0  0  0
   14.4166   -2.3140    2.6858 N   0  0  0  0  0  0  0  0  0  0  0  0
   15.3542   -2.3380    3.0830 H   0  0  0  0  0  0  0  0  0  0  0  0
   13.6139   -2.0795    3.2653 H   0  0  0  0  0  0  0  0  0  0  0  0
   15.2406   -2.9153    0.6127 N   0  0  0  0  0  4  0  0  0  0  0  0
   16.2113   -2.9646    0.9373 H   0  0  0  0  0  0  0  0  0  0  0  0
   15.3115   -0.8434   -1.4981 C   0  0  0  0  0  0  0  0  0  0  0  0
   14.8695   -0.5010   -0.5675 H   0  0  0  0  0  0  0  0  0  0  0  0
   15.4508    2.0096   -0.8007 C   0  0  0  0  0  0  0  0  0  0  0  0
   15.3420    1.2698   -0.0146 H   0  0  0  0  0  0  0  0  0  0  0  0
   15.3856    3.3834   -0.5574 C   0  0  0  0  0  0  0  0  0  0  0  0
   15.1829    3.7682    0.4342 H   0  0  0  0  0  0  0  0  0  0  0  0
  1  2  1  0
  2  3  2  0
  3  4  1  0
  4  5  1  0
  4  6  2  0
  6  7  1  0
  7  8  2  0
  8  9  1  0
  8 10  1  0
 10 11  1  0
 10 12  2  0
 12 13  1  0
 12 14  1  0
 15 14  1  6
 15 16  1  0
 16 17  2  0
 17 18  1  0
 17 19  1  0
 19 20  1  0
 19 21  2  0
 21 22  1  0
 21 23  1  0
 23 24  1  0
 23 25  2  0
 25 26  1  0
 15 27  1  0
 27 28  2  0
 27 29  1  0
 29 30  1  0
 30 31  2  0
 31 32  1  0
 31 33  1  0
 33 34  1  0
 33 35  2  0
 35 36  1  0
 36 37  1  0
 37 38  1  0
 37 39  1  0
 37 40  1  0
 29 41  1  0
 41 42  1  0
 42 43  1  0
 42 44  1  0
 41 45  2  0
 45 46  1  0
 14 47  2  0
 47 48  1  0
  6 49  1  0
 49 50  1  0
 49 51  2  0
 51 52  1  0
 51  2  1  0
 47  7  1  0
 45 15  1  0
 25 16  1  0
 36 30  1  0
M  CHG  1  45   1
M  END
>  <score>  (452) 
5.2964

$$$$

     RDKit          3D

 54 58  0  0  0  0  0  0  0  0999 V2000
   15.5337    5.3343   -1.4104 H   0  0  0  0  0  0  0  0  0  0  0  0
   15.5951    4.2678   -1.6073 C   0  0  0  0  0  0  0  0  0  0  0  0
   15.8423    3.8550   -2.8595 N   0  0  0  0  0  0  0  0  0  0  0  0
   15.9122    2.5312   -3.0939 C   0  0  0  0  0  0  0  0  0  0  0  0
   16.1065    2.2015   -4.1098 H   0  0  0  0  0  0  0  0  0  0  0  0
   15.7355    1.5594   -2.0955 C   0  0  0  0  0  0  0  0  0  0  0  0
   15.8147    0.1209   -2.4101 C   0  0  0  0  0  0  0  0  0  0  0  0
   16.3464   -0.3198   -3.6302 C   0  0  0  0  0  0  0  0  0  0  0  0
   16.7056    0.4070   -4.3510 H   0  0  0  0  0  0  0  0  0  0  0  0
   16.4257   -1.6852   -3.9245 C   0  0  0  0  0  0  0  0  0  0  0  0
   16.8364   -2.0087   -4.8749 H   0  0  0  0  0  0  0  0  0  0  0  0
   15.9843   -2.6304   -2.9941 C   0  0  0  0  0  0  0  0  0  0  0  0
   16.0400   -3.6896   -3.2275 H   0  0  0  0  0  0  0  0  0  0  0  0
   15.4699   -2.2197   -1.7566 C   0  0  0  0  0  0  0  0  0  0  0  0
   14.9690   -3.2158   -0.7271 C   0  0  2  0  0  0  0  0  0  0  0  0
   15.2719   -4.6725   -1.0456 C   0  0  0  0  0  0  0  0  0  0  0  0
   16.4771   -5.2301   -0.6022 C   0  0  0  0  0  0  0  0  0  0  0  0
   17.1829   -4.6018   -0.0669 H   0  0  0  0  0  0  0  0  0  0  0  0
   16.7674   -6.5764   -0.8202 C   0  0  0  0  0  0  0  0  0  0  0  0
   17.7015   -6.9843   -0.4491 H   0  0  0  0  0  0  0  0  0  0  0  0
   15.8564   -7.3880   -1.5007 C   0  0  0  0  0  0  0  0  0  0  0  0
   16.0812   -8.4387   -1.6577 H   0  0  0  0  0  0  0  0  0  0  0  0
   14.6552   -6.8440   -1.9683 C   0  0  0  0  0  0  0  0  0  0  0  0
   13.9494   -7.4761   -2.4985 H   0  0  0  0  0  0  0  0  0  0  0  0
   14.3616   -5.4920   -1.7435 C   0  0  0  0  0  0  0  0  0  0  0  0
   13.4195   -5.0876   -2.1063 H   0  0  0  0  0  0  0  0  0  0  0  0
   13.4746   -2.9907   -0.5019 C   0  0  0  0  0  0  0  0  0  0  0  0
   12.5480   -3.1515   -1.2932 O   0  0  0  0  0  0  0  0  0  0  0  0
   13.3033   -2.6707    0.8091 N   0  0  0  0  0  0  0  0  0  0  0  0
   12.0724   -2.5364    1.3221 C   0  0  0  0  0  0  0  0  0  0  0  0
   11.2601   -1.8620    0.5308 N   0  0  0  0  0  0  0  0  0  0  0  0
    9.9888   -1.7953    0.8687 C   0  0  0  0  0  0  0  0  0  0  0  0
    9.3342   -1.2069    0.2352 H   0  0  0  0  0  0  0  0  0  0  0  0
    9.4855   -2.4617    1.9771 C   0  0  0  0  0  0  0  0  0  0  0  0
    8.0467   -2.2863    2.1974 C   0  0  0  0  0  0  0  0  0  0  0  0
    7.8746   -0.9728    2.4903 F   0  0  0  0  0  0  0  0  0  0  0  0
    7.5754   -3.0565    3.2127 F   0  0  0  0  0  0  0  0  0  0  0  0
    7.4025   -2.5887    1.0377 F   0  0  0  0  0  0  0  0  0  0  0  0
   10.3358   -3.1778    2.8164 C   0  0  0  0  0  0  0  0  0  0  0  0
    9.9888   -3.7206    3.6954 H   0  0  0  0  0  0  0  0  0  0  0  0
   11.6778   -3.1791    2.4816 C   0  0  0  0  0  0  0  0  0  0  0  0
   12.4200   -3.6754    3.0867 H   0  0  0  0  0  0  0  0  0  0  0  0
   14.4793   -2.6745    1.4660 C   0  0  0  0  0  0  0  0  0  0  0  0
   14.5712   -2.4590    2.8095 N   0  0  0  0  0  0  0  0  0  0  0  0
   15.4874   -2.1982    3.1663 H   0  0  0  0  0  0  0  0  0  0  0  0
   13.7522   -2.0691    3.2697 H   0  0  0  0  0  0  0  0  0  0  0  0
   15.4480   -2.8934    0.6429 N   0  0  0  0  0  4  0  0  0  0  0  0
   16.4198   -3.0023    0.9358 H   0  0  0  0  0  0  0  0  0  0  0  0
   15.3665   -0.8415   -1.4931 C   0  0  0  0  0  0  0  0  0  0  0  0
   14.9276   -0.5093   -0.5564 H   0  0  0  0  0  0  0  0  0  0  0  0
   15.4920    2.0001   -0.7921 C   0  0  0  0  0  0  0  0  0  0  0  0
   15.3798    1.2837    0.0162 H   0  0  0  0  0  0  0  0  0  0  0  0
   15.4168    3.3707   -0.5523 C   0  0  0  0  0  0  0  0  0  0  0  0
   15.2254    3.7477    0.4449 H   0  0  0  0  0  0  0  0  0  0  0  0
  1  2  1  0
  2  3  2  0
  3  4  1  0
  4  5  1  0
  4  6  2  0
  6  7  1  0
  7  8  2  0
  8  9  1  0
  8 10  1  0
 10 11  1  0
 10 12  2  0
 12 13  1  0
 12 14  1  0
 15 14  1  6
 15 16  1  0
 16 17  2  0
 17 18  1  0
 17 19  1  0
 19 20  1  0
 19 21  2  0
 21 22  1  0
 21 23  1  0
 23 24  1  0
 23 25  2  0
 25 26  1  0
 15 27  1  0
 27 28  2  0
 27 29  1  0
 29 30  1  0
 30 31  2  0
 31 32  1  0
 32 33  1  0
 32 34  2  0
 34 35  1  0
 35 36  1  0
 35 37  1  0
 35 38  1  0
 34 39  1  0
 39 40  1  0
 39 41  2  0
 41 42  1  0
 29 43  1  0
 43 44  1  0
 44 45  1  0
 44 46  1  0
 43 47  2  0
 47 48  1  0
 14 49  2  0
 49 50  1  0
  6 51  1  0
 51 52  1  0
 51 53  2  0
 53 54  1  0
 53  2  1  0
 49  7  1  0
 47 15  1  0
 25 16  1  0
 41 30  1  0
M  CHG  1  47   1
M  END
>  <score>  (453) 
5.29442

$$$$

     RDKit          3D

 54 58  0  0  0  0  0  0  0  0999 V2000
   15.5140    5.3007   -1.3739 H   0  0  0  0  0  0  0  0  0  0  0  0
   15.6196    4.2419   -1.5942 C   0  0  0  0  0  0  0  0  0  0  0  0
   15.8647    3.8678   -2.8582 N   0  0  0  0  0  0  0  0  0  0  0  0
   15.9990    2.5545   -3.1227 C   0  0  0  0  0  0  0  0  0  0  0  0
   16.1837    2.2634   -4.1529 H   0  0  0  0  0  0  0  0  0  0  0  0
   15.9065    1.5520   -2.1392 C   0  0  0  0  0  0  0  0  0  0  0  0
   16.0887    0.1255   -2.4834 C   0  0  0  0  0  0  0  0  0  0  0  0
   16.4720   -0.2550   -3.7776 C   0  0  0  0  0  0  0  0  0  0  0  0
   16.6479    0.5016   -4.5361 H   0  0  0  0  0  0  0  0  0  0  0  0
   16.6195   -1.6060   -4.1124 C   0  0  0  0  0  0  0  0  0  0  0  0
   16.9139   -1.8753   -5.1221 H   0  0  0  0  0  0  0  0  0  0  0  0
   16.3631   -2.6022   -3.1619 C   0  0  0  0  0  0  0  0  0  0  0  0
   16.4268   -3.6493   -3.4434 H   0  0  0  0  0  0  0  0  0  0  0  0
   15.9675   -2.2572   -1.8632 C   0  0  0  0  0  0  0  0  0  0  0  0
   15.4329   -3.2990   -0.8929 C   0  0  2  0  0  0  0  0  0  0  0  0
   15.7529   -4.7745   -1.1785 C   0  0  0  0  0  0  0  0  0  0  0  0
   16.9025   -5.4315   -0.6961 C   0  0  0  0  0  0  0  0  0  0  0  0
   17.6641   -4.8828   -0.1508 H   0  0  0  0  0  0  0  0  0  0  0  0
   17.0662   -6.8170   -0.8785 C   0  0  0  0  0  0  0  0  0  0  0  0
   17.9521   -7.3191   -0.4988 H   0  0  0  0  0  0  0  0  0  0  0  0
   16.0835   -7.5696   -1.5333 C   0  0  0  0  0  0  0  0  0  0  0  0
   16.1873   -8.6470   -1.6382 H   0  0  0  0  0  0  0  0  0  0  0  0
   14.9575   -6.9278   -2.0493 C   0  0  0  0  0  0  0  0  0  0  0  0
   14.1853   -7.4955   -2.5622 H   0  0  0  0  0  0  0  0  0  0  0  0
   14.8082   -5.5497   -1.8822 C   0  0  0  0  0  0  0  0  0  0  0  0
   13.9149   -5.0790   -2.2781 H   0  0  0  0  0  0  0  0  0  0  0  0
   13.9104   -3.1312   -0.8997 C   0  0  0  0  0  0  0  0  0  0  0  0
   13.1841   -3.1916   -1.8941 O   0  0  0  0  0  0  0  0  0  0  0  0
   13.4861   -2.8949    0.3829 N   0  0  0  0  0  0  0  0  0  0  0  0
   12.2022   -2.7684    0.7320 C   0  0  0  0  0  0  0  0  0  0  0  0
   11.0504   -2.5776    1.0086 C   0  0  0  0  0  0  0  0  0  0  0  0
    9.7748   -2.1762    1.4822 C   0  0  0  0  0  0  0  0  0  0  0  0
    9.0315   -3.0231    2.3040 C   0  0  0  0  0  0  0  0  0  0  0  0
    9.2931   -4.0757    2.3738 H   0  0  0  0  0  0  0  0  0  0  0  0
    7.9871   -2.4861    3.0430 C   0  0  0  0  0  0  0  0  0  0  0  0
    7.3944   -3.1170    3.6982 H   0  0  0  0  0  0  0  0  0  0  0  0
    7.7799   -1.1081    3.0110 C   0  0  0  0  0  0  0  0  0  0  0  0
    7.0612   -0.6762    3.6853 H   0  0  0  0  0  0  0  0  0  0  0  0
    8.3979   -0.3035    2.0610 C   0  0  0  0  0  0  0  0  0  0  0  0
    8.1451    0.7453    1.9722 H   0  0  0  0  0  0  0  0  0  0  0  0
    9.3940   -0.8522    1.2736 C   0  0  0  0  0  0  0  0  0  0  0  0
    9.9390   -0.2229    0.5749 H   0  0  0  0  0  0  0  0  0  0  0  0
   14.5946   -2.7255    1.1862 C   0  0  0  0  0  0  0  0  0  0  0  0
   14.6472   -2.3526    2.5071 N   0  0  0  0  0  0  0  0  0  0  0  0
   13.7895   -2.1861    3.0326 H   0  0  0  0  0  0  0  0  0  0  0  0
   15.5521   -2.3034    2.9719 H   0  0  0  0  0  0  0  0  0  0  0  0
   15.6808   -2.9411    0.5170 N   0  0  0  0  0  4  0  0  0  0  0  0
   16.6115   -2.8035    0.9019 H   0  0  0  0  0  0  0  0  0  0  0  0
   15.8510   -0.8886   -1.5401 C   0  0  0  0  0  0  0  0  0  0  0  0
   15.5207   -0.6047   -0.5462 H   0  0  0  0  0  0  0  0  0  0  0  0
   15.6358    1.9530   -0.8266 C   0  0  0  0  0  0  0  0  0  0  0  0
   15.5463    1.2239   -0.0250 H   0  0  0  0  0  0  0  0  0  0  0  0
   15.4898    3.3126   -0.5609 C   0  0  0  0  0  0  0  0  0  0  0  0
   15.2807    3.6572    0.4437 H   0  0  0  0  0  0  0  0  0  0  0  0
  1  2  1  0
  2  3  2  0
  3  4  1  0
  4  5  1  0
  4  6  2  0
  6  7  1  0
  7  8  2  0
  8  9  1  0
  8 10  1  0
 10 11  1  0
 10 12  2  0
 12 13  1  0
 12 14  1  0
 15 14  1  6
 15 16  1  0
 16 17  2  0
 17 18  1  0
 17 19  1  0
 19 20  1  0
 19 21  2  0
 21 22  1  0
 21 23  1  0
 23 24  1  0
 23 25  2  0
 25 26  1  0
 15 27  1  0
 27 28  2  0
 27 29  1  0
 29 30  1  0
 30 31  3  0
 31 32  1  0
 32 33  2  0
 33 34  1  0
 33 35  1  0
 35 36  1  0
 35 37  2  0
 37 38  1  0
 37 39  1  0
 39 40  1  0
 39 41  2  0
 41 42  1  0
 29 43  1  0
 43 44  1  0
 44 45  1  0
 44 46  1  0
 43 47  2  0
 47 48  1  0
 14 49  2  0
 49 50  1  0
  6 51  1  0
 51 52  1  0
 51 53  2  0
 53 54  1  0
 53  2  1  0
 49  7  1  0
 47 15  1  0
 25 16  1  0
 41 32  1  0
M  CHG  1  47   1
M  END
>  <score>  (454) 
5.28913

$$$$

     RDKit          3D

 58 62  0  0  0  0  0  0  0  0999 V2000
   15.5233    5.3198   -1.4200 H   0  0  0  0  0  0  0  0  0  0  0  0
   15.5981    4.2541   -1.6119 C   0  0  0  0  0  0  0  0  0  0  0  0
   15.8485    3.8383   -2.8629 N   0  0  0  0  0  0  0  0  0  0  0  0
   15.9105    2.5130   -3.0897 C   0  0  0  0  0  0  0  0  0  0  0  0
   16.1126    2.1800   -4.1032 H   0  0  0  0  0  0  0  0  0  0  0  0
   15.7183    1.5454   -2.0872 C   0  0  0  0  0  0  0  0  0  0  0  0
   15.7658    0.1043   -2.3947 C   0  0  0  0  0  0  0  0  0  0  0  0
   16.3187   -0.3375   -3.6024 C   0  0  0  0  0  0  0  0  0  0  0  0
   16.7103    0.3889   -4.3049 H   0  0  0  0  0  0  0  0  0  0  0  0
   16.3950   -1.6989   -3.9033 C   0  0  0  0  0  0  0  0  0  0  0  0
   16.8410   -2.0134   -4.8415 H   0  0  0  0  0  0  0  0  0  0  0  0
   15.9121   -2.6433   -2.9948 C   0  0  0  0  0  0  0  0  0  0  0  0
   15.9681   -3.7003   -3.2398 H   0  0  0  0  0  0  0  0  0  0  0  0
   15.3589   -2.2368   -1.7697 C   0  0  0  0  0  0  0  0  0  0  0  0
   14.8302   -3.2588   -0.7762 C   0  0  2  0  0  0  0  0  0  0  0  0
   15.2170   -4.6935   -1.0954 C   0  0  0  0  0  0  0  0  0  0  0  0
   16.4327   -5.2131   -0.6319 C   0  0  0  0  0  0  0  0  0  0  0  0
   17.1071   -4.5653   -0.0798 H   0  0  0  0  0  0  0  0  0  0  0  0
   16.7591   -6.5573   -0.8211 C   0  0  0  0  0  0  0  0  0  0  0  0
   17.6966   -6.9373   -0.4213 H   0  0  0  0  0  0  0  0  0  0  0  0
   15.8695   -7.4015   -1.4992 C   0  0  0  0  0  0  0  0  0  0  0  0
   16.1178   -8.4490   -1.6403 H   0  0  0  0  0  0  0  0  0  0  0  0
   14.6590   -6.8929   -1.9923 C   0  0  0  0  0  0  0  0  0  0  0  0
   13.9570   -7.5419   -2.5127 H   0  0  0  0  0  0  0  0  0  0  0  0
   14.3391   -5.5446   -1.7919 C   0  0  0  0  0  0  0  0  0  0  0  0
   13.3870   -5.1610   -2.1488 H   0  0  0  0  0  0  0  0  0  0  0  0
   13.3105   -3.1548   -0.5619 C   0  0  0  0  0  0  0  0  0  0  0  0
   12.4077   -3.0508   -1.3860 O   0  0  0  0  0  0  0  0  0  0  0  0
   13.0635   -3.1350    0.7647 N   0  0  0  0  0  0  0  0  0  0  0  0
   11.8152   -2.1436    1.1717 S   0  0  0  0  0  0  0  0  0  0  0  0
   12.2740   -1.1992    2.1862 O   0  0  0  0  0  0  0  0  0  0  0  0
   11.2612   -1.4635   -0.0060 O   0  0  0  0  0  0  0  0  0  0  0  0
   10.6830   -3.3381    1.7704 N   0  0  0  0  0  0  0  0  0  0  0  0
   11.0841   -4.3287    2.7957 C   0  0  0  0  0  0  0  0  0  0  0  0
   10.6394   -5.2952    2.5249 H   0  0  0  0  0  0  0  0  0  0  0  0
   12.1717   -4.4549    2.8115 H   0  0  0  0  0  0  0  0  0  0  0  0
   10.5648   -3.9754    4.2043 C   0  0  0  0  0  0  0  0  0  0  0  0
   10.7706   -4.8189    4.8684 H   0  0  0  0  0  0  0  0  0  0  0  0
   11.1015   -3.1150    4.6061 H   0  0  0  0  0  0  0  0  0  0  0  0
    9.1528   -3.6865    4.1776 O   0  0  0  0  0  0  0  0  0  0  0  0
    8.8700   -2.6074    3.2668 C   0  0  0  0  0  0  0  0  0  0  0  0
    7.8021   -2.3870    3.3021 H   0  0  0  0  0  0  0  0  0  0  0  0
    9.4337   -1.7128    3.5631 H   0  0  0  0  0  0  0  0  0  0  0  0
    9.2504   -2.9819    1.8247 C   0  0  0  0  0  0  0  0  0  0  0  0
    8.6509   -3.8549    1.5295 H   0  0  0  0  0  0  0  0  0  0  0  0
    9.0012   -2.1556    1.1430 H   0  0  0  0  0  0  0  0  0  0  0  0
   14.2250   -2.8622    1.3958 C   0  0  0  0  0  0  0  0  0  0  0  0
   14.2793   -2.4440    2.6940 N   0  0  0  0  0  0  0  0  0  0  0  0
   15.1867   -2.1911    3.0974 H   0  0  0  0  0  0  0  0  0  0  0  0
   13.4175   -2.1514    3.1573 H   0  0  0  0  0  0  0  0  0  0  0  0
   15.2380   -2.9459    0.6107 N   0  0  0  0  0  4  0  0  0  0  0  0
   16.1978   -2.7260    0.8842 H   0  0  0  0  0  0  0  0  0  0  0  0
   15.2770   -0.8577   -1.4938 C   0  0  0  0  0  0  0  0  0  0  0  0
   14.8287   -0.5247   -0.5622 H   0  0  0  0  0  0  0  0  0  0  0  0
   15.4922    1.9907   -0.7853 C   0  0  0  0  0  0  0  0  0  0  0  0
   15.3823    1.2741    0.0226 H   0  0  0  0  0  0  0  0  0  0  0  0
   15.4235    3.3609   -0.5519 C   0  0  0  0  0  0  0  0  0  0  0  0
   15.2288    3.7338    0.4457 H   0  0  0  0  0  0  0  0  0  0  0  0
  1  2  1  0
  2  3  2  0
  3  4  1  0
  4  5  1  0
  4  6  2  0
  6  7  1  0
  7  8  2  0
  8  9  1  0
  8 10  1  0
 10 11  1  0
 10 12  2  0
 12 13  1  0
 12 14  1  0
 15 14  1  6
 15 16  1  0
 16 17  2  0
 17 18  1  0
 17 19  1  0
 19 20  1  0
 19 21  2  0
 21 22  1  0
 21 23  1  0
 23 24  1  0
 23 25  2  0
 25 26  1  0
 15 27  1  0
 27 28  2  0
 27 29  1  0
 29 30  1  0
 30 31  2  0
 30 32  2  0
 30 33  1  0
 33 34  1  0
 34 35  1  0
 34 36  1  0
 34 37  1  0
 37 38  1  0
 37 39  1  0
 37 40  1  0
 40 41  1  0
 41 42  1  0
 41 43  1  0
 41 44  1  0
 44 45  1  0
 44 46  1  0
 29 47  1  0
 47 48  1  0
 48 49  1  0
 48 50  1  0
 47 51  2  0
 51 52  1  0
 14 53  2  0
 53 54  1  0
  6 55  1  0
 55 56  1  0
 55 57  2  0
 57 58  1  0
 57  2  1  0
 53  7  1  0
 51 15  1  0
 25 16  1  0
 44 33  1  0
M  CHG  1  51   1
M  END
>  <score>  (455) 
5.28823

$$$$

     RDKit          3D

 55 59  0  0  0  0  0  0  0  0999 V2000
   15.5445    5.3378   -1.4044 H   0  0  0  0  0  0  0  0  0  0  0  0
   15.5868    4.2725   -1.6089 C   0  0  0  0  0  0  0  0  0  0  0  0
   15.8326    3.8617   -2.8618 N   0  0  0  0  0  0  0  0  0  0  0  0
   15.8861    2.5372   -3.0964 C   0  0  0  0  0  0  0  0  0  0  0  0
   16.0776    2.2081   -4.1127 H   0  0  0  0  0  0  0  0  0  0  0  0
   15.7011    1.5656   -2.0972 C   0  0  0  0  0  0  0  0  0  0  0  0
   15.7819    0.1237   -2.4011 C   0  0  0  0  0  0  0  0  0  0  0  0
   16.3321   -0.3158   -3.6108 C   0  0  0  0  0  0  0  0  0  0  0  0
   16.7121    0.4173   -4.3155 H   0  0  0  0  0  0  0  0  0  0  0  0
   16.4148   -1.6807   -3.9054 C   0  0  0  0  0  0  0  0  0  0  0  0
   16.8622   -2.0032   -4.8405 H   0  0  0  0  0  0  0  0  0  0  0  0
   15.9385   -2.6256   -2.9891 C   0  0  0  0  0  0  0  0  0  0  0  0
   16.0004   -3.6839   -3.2265 H   0  0  0  0  0  0  0  0  0  0  0  0
   15.3880   -2.2228   -1.7628 C   0  0  0  0  0  0  0  0  0  0  0  0
   14.8199   -3.2317   -0.7681 C   0  0  2  0  0  0  0  0  0  0  0  0
   15.1801   -4.6908   -1.0615 C   0  0  0  0  0  0  0  0  0  0  0  0
   16.3985   -5.2171   -0.5988 C   0  0  0  0  0  0  0  0  0  0  0  0
   17.0840   -4.5710   -0.0591 H   0  0  0  0  0  0  0  0  0  0  0  0
   16.7335   -6.5601   -0.7993 C   0  0  0  0  0  0  0  0  0  0  0  0
   17.6737   -6.9465   -0.4153 H   0  0  0  0  0  0  0  0  0  0  0  0
   15.8535   -7.4039   -1.4804 C   0  0  0  0  0  0  0  0  0  0  0  0
   16.1044   -8.4519   -1.6207 H   0  0  0  0  0  0  0  0  0  0  0  0
   14.6434   -6.8988   -1.9660 C   0  0  0  0  0  0  0  0  0  0  0  0
   13.9586   -7.5611   -2.4883 H   0  0  0  0  0  0  0  0  0  0  0  0
   14.3081   -5.5514   -1.7586 C   0  0  0  0  0  0  0  0  0  0  0  0
   13.3559   -5.1809   -2.1277 H   0  0  0  0  0  0  0  0  0  0  0  0
   13.2970   -3.0151   -0.6187 C   0  0  0  0  0  0  0  0  0  0  0  0
   12.4557   -3.1250   -1.5105 O   0  0  0  0  0  0  0  0  0  0  0  0
   13.0173   -2.6851    0.7022 N   0  0  0  0  0  0  0  0  0  0  0  0
   11.7392   -2.4855    1.2797 C   0  0  0  0  0  0  0  0  0  0  0  0
   11.3276   -3.1822    2.4365 C   0  0  0  0  0  0  0  0  0  0  0  0
   12.0202   -3.8764    2.9172 H   0  0  0  0  0  0  0  0  0  0  0  0
   10.0784   -3.1077    2.9146 N   0  0  0  0  0  0  0  0  0  0  0  0
    9.1884   -2.3048    2.3149 C   0  0  0  0  0  0  0  0  0  0  0  0
    7.8675   -2.3193    2.7080 O   0  0  0  0  0  0  0  0  0  0  0  0
    7.5360   -3.3539    3.6552 C   0  0  0  0  0  0  0  0  0  0  0  0
    7.6612   -4.3347    3.1924 H   0  0  0  0  0  0  0  0  0  0  0  0
    8.2031   -3.2964    4.5202 H   0  0  0  0  0  0  0  0  0  0  0  0
    6.4980   -3.2462    4.0038 H   0  0  0  0  0  0  0  0  0  0  0  0
    9.5486   -1.4907    1.2401 C   0  0  0  0  0  0  0  0  0  0  0  0
    8.8103   -0.8093    0.8325 H   0  0  0  0  0  0  0  0  0  0  0  0
   10.8332   -1.5976    0.6912 C   0  0  0  0  0  0  0  0  0  0  0  0
   11.1328   -1.0199   -0.1821 H   0  0  0  0  0  0  0  0  0  0  0  0
   14.2257   -2.6535    1.3815 C   0  0  0  0  0  0  0  0  0  0  0  0
   14.4159   -2.3812    2.7110 N   0  0  0  0  0  0  0  0  0  0  0  0
   13.6371   -2.0463    3.2794 H   0  0  0  0  0  0  0  0  0  0  0  0
   15.3693   -2.3245    3.0652 H   0  0  0  0  0  0  0  0  0  0  0  0
   15.2354   -2.9074    0.6143 N   0  0  0  0  0  4  0  0  0  0  0  0
   16.2005   -2.9564    0.9463 H   0  0  0  0  0  0  0  0  0  0  0  0
   15.3115   -0.8406   -1.4916 C   0  0  0  0  0  0  0  0  0  0  0  0
   14.8623   -0.5049   -0.5617 H   0  0  0  0  0  0  0  0  0  0  0  0
   15.4520    2.0070   -0.7981 C   0  0  0  0  0  0  0  0  0  0  0  0
   15.3424    1.2827    0.0029 H   0  0  0  0  0  0  0  0  0  0  0  0
   15.3858    3.3772   -0.5571 C   0  0  0  0  0  0  0  0  0  0  0  0
   15.1934    3.7572    0.4393 H   0  0  0  0  0  0  0  0  0  0  0  0
  1  2  1  0
  2  3  2  0
  3  4  1  0
  4  5  1  0
  4  6  2  0
  6  7  1  0
  7  8  2  0
  8  9  1  0
  8 10  1  0
 10 11  1  0
 10 12  2  0
 12 13  1  0
 12 14  1  0
 15 14  1  6
 15 16  1  0
 16 17  2  0
 17 18  1  0
 17 19  1  0
 19 20  1  0
 19 21  2  0
 21 22  1  0
 21 23  1  0
 23 24  1  0
 23 25  2  0
 25 26  1  0
 15 27  1  0
 27 28  2  0
 27 29  1  0
 29 30  1  0
 30 31  2  0
 31 32  1  0
 31 33  1  0
 33 34  2  0
 34 35  1  0
 35 36  1  0
 36 37  1  0
 36 38  1  0
 36 39  1  0
 34 40  1  0
 40 41  1  0
 40 42  2  0
 42 43  1  0
 29 44  1  0
 44 45  1  0
 45 46  1  0
 45 47  1  0
 44 48  2  0
 48 49  1  0
 14 50  2  0
 50 51  1  0
  6 52  1  0
 52 53  1  0
 52 54  2  0
 54 55  1  0
 54  2  1  0
 50  7  1  0
 48 15  1  0
 25 16  1  0
 42 30  1  0
M  CHG  1  48   1
M  END
>  <score>  (456) 
5.28759

$$$$

     RDKit          3D

 53 57  0  0  0  0  0  0  0  0999 V2000
    8.1844   -5.0261    2.8086 H   0  0  0  0  0  0  0  0  0  0  0  0
    8.4138   -3.9794    2.6344 C   0  0  0  0  0  0  0  0  0  0  0  0
    9.5089   -3.6749    1.9301 N   0  0  0  0  0  0  0  0  0  0  0  0
    9.8302   -2.3857    1.7283 C   0  0  0  0  0  0  0  0  0  0  0  0
   11.1158   -2.1357    1.1677 C   0  0  0  0  0  0  0  0  0  0  0  0
   12.2491   -2.1253    0.7573 C   0  0  0  0  0  0  0  0  0  0  0  0
   13.5010   -2.3145    0.3192 N   0  0  0  0  0  0  0  0  0  0  0  0
   13.8101   -2.8855   -0.8936 C   0  0  0  0  0  0  0  0  0  0  0  0
   13.0207   -3.0604   -1.8226 O   0  0  0  0  0  0  0  0  0  0  0  0
   15.3097   -3.2237   -0.9349 C   0  0  1  0  0  0  0  0  0  0  0  0
   15.5811   -4.7005   -1.2200 C   0  0  0  0  0  0  0  0  0  0  0  0
   16.7544   -5.3210   -0.7565 C   0  0  0  0  0  0  0  0  0  0  0  0
   17.4997   -4.7329   -0.2282 H   0  0  0  0  0  0  0  0  0  0  0  0
   16.9565   -6.6952   -0.9323 C   0  0  0  0  0  0  0  0  0  0  0  0
   17.8585   -7.1606   -0.5451 H   0  0  0  0  0  0  0  0  0  0  0  0
   15.9897   -7.4683   -1.5826 C   0  0  0  0  0  0  0  0  0  0  0  0
   16.1304   -8.5385   -1.6940 H   0  0  0  0  0  0  0  0  0  0  0  0
   14.8308   -6.8637   -2.0786 C   0  0  0  0  0  0  0  0  0  0  0  0
   14.0744   -7.4580   -2.5832 H   0  0  0  0  0  0  0  0  0  0  0  0
   14.6338   -5.4885   -1.9046 C   0  0  0  0  0  0  0  0  0  0  0  0
   13.7224   -5.0348   -2.2827 H   0  0  0  0  0  0  0  0  0  0  0  0
   15.9195   -2.2319   -1.9075 C   0  0  0  0  0  0  0  0  0  0  0  0
   16.3336   -2.5994   -3.1946 C   0  0  0  0  0  0  0  0  0  0  0  0
   16.3543   -3.6501   -3.4692 H   0  0  0  0  0  0  0  0  0  0  0  0
   16.6698   -1.6142   -4.1326 C   0  0  0  0  0  0  0  0  0  0  0  0
   16.9682   -1.8941   -5.1357 H   0  0  0  0  0  0  0  0  0  0  0  0
   16.5694   -0.2579   -3.7998 C   0  0  0  0  0  0  0  0  0  0  0  0
   16.7757    0.4964   -4.5510 H   0  0  0  0  0  0  0  0  0  0  0  0
   16.1695    0.1346   -2.5169 C   0  0  0  0  0  0  0  0  0  0  0  0
   15.9952    1.5559   -2.1632 C   0  0  0  0  0  0  0  0  0  0  0  0
   16.0886    2.5722   -3.1308 C   0  0  0  0  0  0  0  0  0  0  0  0
   16.3098    2.2982   -4.1575 H   0  0  0  0  0  0  0  0  0  0  0  0
   15.8986    3.8770   -2.8571 N   0  0  0  0  0  0  0  0  0  0  0  0
   15.6038    4.2236   -1.5942 C   0  0  0  0  0  0  0  0  0  0  0  0
   15.4360    5.2713   -1.3605 H   0  0  0  0  0  0  0  0  0  0  0  0
   15.4945    3.2798   -0.5702 C   0  0  0  0  0  0  0  0  0  0  0  0
   15.2539    3.6000    0.4370 H   0  0  0  0  0  0  0  0  0  0  0  0
   15.6939    1.9306   -0.8499 C   0  0  0  0  0  0  0  0  0  0  0  0
   15.6114    1.1857   -0.0610 H   0  0  0  0  0  0  0  0  0  0  0  0
   15.8733   -0.8653   -1.5822 C   0  0  0  0  0  0  0  0  0  0  0  0
   15.5431   -0.5760   -0.5893 H   0  0  0  0  0  0  0  0  0  0  0  0
   15.6448   -2.8889    0.4565 N   0  0  0  0  0  4  0  0  0  0  0  0
   16.5654   -3.0668    0.8602 H   0  0  0  0  0  0  0  0  0  0  0  0
   14.6316   -2.4228    1.1092 C   0  0  0  0  0  0  0  0  0  0  0  0
   14.7628   -2.1233    2.4356 N   0  0  0  0  0  0  0  0  0  0  0  0
   13.9296   -1.9587    2.9908 H   0  0  0  0  0  0  0  0  0  0  0  0
   15.6048   -2.4528    2.9036 H   0  0  0  0  0  0  0  0  0  0  0  0
    9.0327   -1.3434    2.1997 C   0  0  0  0  0  0  0  0  0  0  0  0
    9.3169   -0.3089    2.0529 H   0  0  0  0  0  0  0  0  0  0  0  0
    7.9071   -1.6506    2.9503 C   0  0  0  0  0  0  0  0  0  0  0  0
    7.3289   -0.8530    3.4038 H   0  0  0  0  0  0  0  0  0  0  0  0
    7.5814   -2.9927    3.1595 C   0  0  0  0  0  0  0  0  0  0  0  0
    6.7180   -3.2984    3.7450 H   0  0  0  0  0  0  0  0  0  0  0  0
  1  2  1  0
  2  3  2  0
  3  4  1  0
  4  5  1  0
  5  6  3  0
  6  7  1  0
  7  8  1  0
  8  9  2  0
  8 10  1  0
 10 11  1  6
 11 12  2  0
 12 13  1  0
 12 14  1  0
 14 15  1  0
 14 16  2  0
 16 17  1  0
 16 18  1  0
 18 19  1  0
 18 20  2  0
 20 21  1  0
 10 22  1  0
 22 23  2  0
 23 24  1  0
 23 25  1  0
 25 26  1  0
 25 27  2  0
 27 28  1  0
 27 29  1  0
 29 30  1  0
 30 31  2  0
 31 32  1  0
 31 33  1  0
 33 34  2  0
 34 35  1  0
 34 36  1  0
 36 37  1  0
 36 38  2  0
 38 39  1  0
 29 40  2  0
 40 41  1  0
 10 42  1  0
 42 43  1  0
 42 44  2  0
 44 45  1  0
 45 46  1  0
 45 47  1  0
  4 48  2  0
 48 49  1  0
 48 50  1  0
 50 51  1  0
 50 52  2  0
 52 53  1  0
 52  2  1  0
 44  7  1  0
 20 11  1  0
 40 22  1  0
 38 30  1  0
M  CHG  1  42   1
M  END
>  <score>  (457) 
5.28634

$$$$

     RDKit          3D

 48 52  0  0  0  0  0  0  0  0999 V2000
    8.6656   -1.9132    1.1582 H   0  0  0  0  0  0  0  0  0  0  0  0
    9.6663   -2.2377    1.4329 C   0  0  0  0  0  0  0  0  0  0  0  0
    9.9576   -2.6883    2.6278 N   0  0  0  0  0  0  0  0  0  0  0  0
   11.3175   -2.9392    2.5478 C   0  0  0  0  0  0  0  0  0  0  0  0
   11.9465   -3.3455    3.3314 H   0  0  0  0  0  0  0  0  0  0  0  0
   11.7658   -2.6369    1.2892 C   0  0  0  0  0  0  0  0  0  0  0  0
   13.0420   -2.7427    0.7366 N   0  0  0  0  0  0  0  0  0  0  0  0
   13.3006   -3.0240   -0.5847 C   0  0  0  0  0  0  0  0  0  0  0  0
   12.4248   -3.1600   -1.4461 O   0  0  0  0  0  0  0  0  0  0  0  0
   14.8229   -3.2226   -0.7520 C   0  0  1  0  0  0  0  0  0  0  0  0
   15.1911   -4.6733   -1.0535 C   0  0  0  0  0  0  0  0  0  0  0  0
   16.4096   -5.2015   -0.5989 C   0  0  0  0  0  0  0  0  0  0  0  0
   17.0905   -4.5560   -0.0524 H   0  0  0  0  0  0  0  0  0  0  0  0
   16.7344   -6.5457   -0.8000 C   0  0  0  0  0  0  0  0  0  0  0  0
   17.6720   -6.9342   -0.4131 H   0  0  0  0  0  0  0  0  0  0  0  0
   15.8472   -7.3822   -1.4836 C   0  0  0  0  0  0  0  0  0  0  0  0
   16.0971   -8.4297   -1.6276 H   0  0  0  0  0  0  0  0  0  0  0  0
   14.6399   -6.8676   -1.9686 C   0  0  0  0  0  0  0  0  0  0  0  0
   13.9516   -7.5273   -2.4887 H   0  0  0  0  0  0  0  0  0  0  0  0
   14.3103   -5.5224   -1.7515 C   0  0  0  0  0  0  0  0  0  0  0  0
   13.3552   -5.1483   -2.1098 H   0  0  0  0  0  0  0  0  0  0  0  0
   15.3809   -2.2126   -1.7476 C   0  0  0  0  0  0  0  0  0  0  0  0
   15.9260   -2.6145   -2.9766 C   0  0  0  0  0  0  0  0  0  0  0  0
   15.9921   -3.6719   -3.2075 H   0  0  0  0  0  0  0  0  0  0  0  0
   16.4048   -1.6750   -3.8990 C   0  0  0  0  0  0  0  0  0  0  0  0
   16.8561   -2.0013   -4.8323 H   0  0  0  0  0  0  0  0  0  0  0  0
   16.3310   -0.3112   -3.6065 C   0  0  0  0  0  0  0  0  0  0  0  0
   16.7015    0.4261   -4.3132 H   0  0  0  0  0  0  0  0  0  0  0  0
   15.7804    0.1238   -2.3972 C   0  0  0  0  0  0  0  0  0  0  0  0
   15.7135    1.5589   -2.0997 C   0  0  0  0  0  0  0  0  0  0  0  0
   15.8996    2.5259   -3.1024 C   0  0  0  0  0  0  0  0  0  0  0  0
   16.1008    2.1922   -4.1165 H   0  0  0  0  0  0  0  0  0  0  0  0
   15.8414    3.8493   -2.8676 N   0  0  0  0  0  0  0  0  0  0  0  0
   15.5833    4.2572   -1.6158 C   0  0  0  0  0  0  0  0  0  0  0  0
   15.5301    5.3218   -1.4148 H   0  0  0  0  0  0  0  0  0  0  0  0
   15.3972    3.3623   -0.5609 C   0  0  0  0  0  0  0  0  0  0  0  0
   15.2090    3.7401    0.4359 H   0  0  0  0  0  0  0  0  0  0  0  0
   15.4774    1.9944   -0.7986 C   0  0  0  0  0  0  0  0  0  0  0  0
   15.3714    1.2667   -0.0000 H   0  0  0  0  0  0  0  0  0  0  0  0
   15.3018   -0.8318   -1.4840 C   0  0  0  0  0  0  0  0  0  0  0  0
   14.8626   -0.4826   -0.5547 H   0  0  0  0  0  0  0  0  0  0  0  0
   15.2479   -2.9038    0.6256 N   0  0  0  0  0  4  0  0  0  0  0  0
   16.2125   -3.0022    0.9521 H   0  0  0  0  0  0  0  0  0  0  0  0
   14.2416   -2.6969    1.4115 C   0  0  0  0  0  0  0  0  0  0  0  0
   14.4192   -2.4547    2.7453 N   0  0  0  0  0  0  0  0  0  0  0  0
   15.3732   -2.2526    3.0513 H   0  0  0  0  0  0  0  0  0  0  0  0
   13.6508   -2.0106    3.2469 H   0  0  0  0  0  0  0  0  0  0  0  0
   10.7173   -2.2180    0.5548 O   0  0  0  0  0  0  0  0  0  0  0  0
  1  2  1  0
  2  3  2  0
  3  4  1  0
  4  5  1  0
  4  6  2  0
  6  7  1  0
  7  8  1  0
  8  9  2  0
  8 10  1  0
 10 11  1  6
 11 12  2  0
 12 13  1  0
 12 14  1  0
 14 15  1  0
 14 16  2  0
 16 17  1  0
 16 18  1  0
 18 19  1  0
 18 20  2  0
 20 21  1  0
 10 22  1  0
 22 23  2  0
 23 24  1  0
 23 25  1  0
 25 26  1  0
 25 27  2  0
 27 28  1  0
 27 29  1  0
 29 30  1  0
 30 31  2  0
 31 32  1  0
 31 33  1  0
 33 34  2  0
 34 35  1  0
 34 36  1  0
 36 37  1  0
 36 38  2  0
 38 39  1  0
 29 40  2  0
 40 41  1  0
 10 42  1  0
 42 43  1  0
 42 44  2  0
 44 45  1  0
 45 46  1  0
 45 47  1  0
  6 48  1  0
 48  2  1  0
 44  7  1  0
 20 11  1  0
 40 22  1  0
 38 30  1  0
M  CHG  1  42   1
M  END
>  <score>  (458) 
5.28248

$$$$

     RDKit          3D

 55 60  0  0  0  0  0  0  0  0999 V2000
   15.5380    5.3344   -1.4033 H   0  0  0  0  0  0  0  0  0  0  0  0
   15.6031    4.2691   -1.6054 C   0  0  0  0  0  0  0  0  0  0  0  0
   15.8490    3.8615   -2.8596 N   0  0  0  0  0  0  0  0  0  0  0  0
   15.9329    2.5386   -3.0974 C   0  0  0  0  0  0  0  0  0  0  0  0
   16.1223    2.2128   -4.1159 H   0  0  0  0  0  0  0  0  0  0  0  0
   15.7722    1.5630   -2.0998 C   0  0  0  0  0  0  0  0  0  0  0  0
   15.8620    0.1244   -2.4157 C   0  0  0  0  0  0  0  0  0  0  0  0
   16.3661   -0.3198   -3.6471 C   0  0  0  0  0  0  0  0  0  0  0  0
   16.7106    0.4024   -4.3810 H   0  0  0  0  0  0  0  0  0  0  0  0
   16.4430   -1.6887   -3.9342 C   0  0  0  0  0  0  0  0  0  0  0  0
   16.8342   -2.0190   -4.8913 H   0  0  0  0  0  0  0  0  0  0  0  0
   16.0129   -2.6305   -2.9918 C   0  0  0  0  0  0  0  0  0  0  0  0
   16.0619   -3.6909   -3.2227 H   0  0  0  0  0  0  0  0  0  0  0  0
   15.5062   -2.2139   -1.7516 C   0  0  0  0  0  0  0  0  0  0  0  0
   14.9621   -3.1953   -0.7281 C   0  0  2  0  0  0  0  0  0  0  0  0
   15.2827   -4.6518   -1.0288 C   0  0  0  0  0  0  0  0  0  0  0  0
   16.4915   -5.2151   -0.5913 C   0  0  0  0  0  0  0  0  0  0  0  0
   17.2014   -4.5966   -0.0492 H   0  0  0  0  0  0  0  0  0  0  0  0
   16.7812   -6.5629   -0.8264 C   0  0  0  0  0  0  0  0  0  0  0  0
   17.7170   -6.9830   -0.4666 H   0  0  0  0  0  0  0  0  0  0  0  0
   15.8618   -7.3646   -1.5130 C   0  0  0  0  0  0  0  0  0  0  0  0
   16.0761   -8.4156   -1.6838 H   0  0  0  0  0  0  0  0  0  0  0  0
   14.6594   -6.8136   -1.9706 C   0  0  0  0  0  0  0  0  0  0  0  0
   13.9431   -7.4322   -2.5052 H   0  0  0  0  0  0  0  0  0  0  0  0
   14.3744   -5.4642   -1.7309 C   0  0  0  0  0  0  0  0  0  0  0  0
   13.4346   -5.0505   -2.0839 H   0  0  0  0  0  0  0  0  0  0  0  0
   13.4561   -2.9337   -0.5733 C   0  0  0  0  0  0  0  0  0  0  0  0
   12.5892   -3.1544   -1.4182 O   0  0  0  0  0  0  0  0  0  0  0  0
   13.2125   -2.4864    0.7014 N   0  0  0  0  0  0  0  0  0  0  0  0
   11.9341   -2.4495    1.2265 C   0  0  0  0  0  0  0  0  0  0  0  0
   10.8118   -2.2426    0.4708 O   0  0  0  0  0  0  0  0  0  0  0  0
    9.7541   -2.5272    1.2967 C   0  0  0  0  0  0  0  0  0  0  0  0
    8.3946   -2.6448    0.9952 C   0  0  0  0  0  0  0  0  0  0  0  0
    8.0582   -2.4663   -0.0261 H   0  0  0  0  0  0  0  0  0  0  0  0
    7.5043   -3.0226    2.0144 C   0  0  0  0  0  0  0  0  0  0  0  0
    6.4733   -3.2085    1.7543 H   0  0  0  0  0  0  0  0  0  0  0  0
    7.9377   -3.2117    3.3367 C   0  0  0  0  0  0  0  0  0  0  0  0
    7.2125   -3.4842    4.1031 H   0  0  0  0  0  0  0  0  0  0  0  0
    9.3087   -3.1132    3.6206 C   0  0  0  0  0  0  0  0  0  0  0  0
    9.7131   -3.3095    4.6071 H   0  0  0  0  0  0  0  0  0  0  0  0
   10.1945   -2.8052    2.5842 C   0  0  0  0  0  0  0  0  0  0  0  0
   11.6222   -2.7801    2.5074 C   0  0  0  0  0  0  0  0  0  0  0  0
   12.3342   -3.1121    3.2475 H   0  0  0  0  0  0  0  0  0  0  0  0
   14.3924   -2.5624    1.4073 C   0  0  0  0  0  0  0  0  0  0  0  0
   14.5520   -2.3785    2.7529 N   0  0  0  0  0  0  0  0  0  0  0  0
   13.7883   -1.9530    3.2764 H   0  0  0  0  0  0  0  0  0  0  0  0
   15.5048   -2.2660    3.0933 H   0  0  0  0  0  0  0  0  0  0  0  0
   15.3930   -2.8695    0.6484 N   0  0  0  0  0  4  0  0  0  0  0  0
   16.3326   -3.0623    1.0005 H   0  0  0  0  0  0  0  0  0  0  0  0
   15.4308   -0.8353   -1.4888 C   0  0  0  0  0  0  0  0  0  0  0  0
   15.0095   -0.4960   -0.5478 H   0  0  0  0  0  0  0  0  0  0  0  0
   15.5240    1.9992   -0.7952 C   0  0  0  0  0  0  0  0  0  0  0  0
   15.4143    1.2818    0.0127 H   0  0  0  0  0  0  0  0  0  0  0  0
   15.4352    3.3681   -0.5533 C   0  0  0  0  0  0  0  0  0  0  0  0
   15.2397    3.7436    0.4431 H   0  0  0  0  0  0  0  0  0  0  0  0
  1  2  1  0
  2  3  2  0
  3  4  1  0
  4  5  1  0
  4  6  2  0
  6  7  1  0
  7  8  2  0
  8  9  1  0
  8 10  1  0
 10 11  1  0
 10 12  2  0
 12 13  1  0
 12 14  1  0
 15 14  1  6
 15 16  1  0
 16 17  2  0
 17 18  1  0
 17 19  1  0
 19 20  1  0
 19 21  2  0
 21 22  1  0
 21 23  1  0
 23 24  1  0
 23 25  2  0
 25 26  1  0
 15 27  1  0
 27 28  2  0
 27 29  1  0
 29 30  1  0
 30 31  1  0
 31 32  1  0
 32 33  2  0
 33 34  1  0
 33 35  1  0
 35 36  1  0
 35 37  2  0
 37 38  1  0
 37 39  1  0
 39 40  1  0
 39 41  2  0
 41 42  1  0
 42 43  1  0
 29 44  1  0
 44 45  1  0
 45 46  1  0
 45 47  1  0
 44 48  2  0
 48 49  1  0
 14 50  2  0
 50 51  1  0
  6 52  1  0
 52 53  1  0
 52 54  2  0
 54 55  1  0
 54  2  1  0
 50  7  1  0
 48 15  1  0
 25 16  1  0
 42 30  2  0
 41 32  1  0
M  CHG  1  48   1
M  END
>  <score>  (459) 
5.28221

$$$$

     RDKit          3D

 59 62  0  0  0  0  0  0  0  0999 V2000
   15.5202    5.3129   -1.4255 H   0  0  0  0  0  0  0  0  0  0  0  0
   15.5866    4.2479   -1.6181 C   0  0  0  0  0  0  0  0  0  0  0  0
   15.8471    3.8374   -2.8677 N   0  0  0  0  0  0  0  0  0  0  0  0
   15.9115    2.5155   -3.1009 C   0  0  0  0  0  0  0  0  0  0  0  0
   16.1081    2.1972   -4.1209 H   0  0  0  0  0  0  0  0  0  0  0  0
   15.7198    1.5490   -2.0963 C   0  0  0  0  0  0  0  0  0  0  0  0
   15.7801    0.1152   -2.3957 C   0  0  0  0  0  0  0  0  0  0  0  0
   16.3252   -0.3196   -3.6086 C   0  0  0  0  0  0  0  0  0  0  0  0
   16.7021    0.4037   -4.3258 H   0  0  0  0  0  0  0  0  0  0  0  0
   16.4028   -1.6804   -3.8945 C   0  0  0  0  0  0  0  0  0  0  0  0
   16.8438   -2.0006   -4.8320 H   0  0  0  0  0  0  0  0  0  0  0  0
   15.9270   -2.6186   -2.9735 C   0  0  0  0  0  0  0  0  0  0  0  0
   15.9929   -3.6736   -3.2109 H   0  0  0  0  0  0  0  0  0  0  0  0
   15.3761   -2.2174   -1.7471 C   0  0  0  0  0  0  0  0  0  0  0  0
   14.8240   -3.2288   -0.7485 C   0  0  2  0  0  0  0  0  0  0  0  0
   15.2088   -4.6744   -1.0419 C   0  0  0  0  0  0  0  0  0  0  0  0
   16.4300   -5.2044   -0.5875 C   0  0  0  0  0  0  0  0  0  0  0  0
   17.1259   -4.5684   -0.0476 H   0  0  0  0  0  0  0  0  0  0  0  0
   16.7493   -6.5492   -0.7976 C   0  0  0  0  0  0  0  0  0  0  0  0
   17.6872   -6.9415   -0.4151 H   0  0  0  0  0  0  0  0  0  0  0  0
   15.8576   -7.3811   -1.4818 C   0  0  0  0  0  0  0  0  0  0  0  0
   16.1015   -8.4277   -1.6371 H   0  0  0  0  0  0  0  0  0  0  0  0
   14.6506   -6.8613   -1.9608 C   0  0  0  0  0  0  0  0  0  0  0  0
   13.9538   -7.5028   -2.4908 H   0  0  0  0  0  0  0  0  0  0  0  0
   14.3300   -5.5177   -1.7436 C   0  0  0  0  0  0  0  0  0  0  0  0
   13.3800   -5.1354   -2.1072 H   0  0  0  0  0  0  0  0  0  0  0  0
   13.3010   -3.0518   -0.5849 C   0  0  0  0  0  0  0  0  0  0  0  0
   12.4369   -3.2704   -1.4335 O   0  0  0  0  0  0  0  0  0  0  0  0
   13.0233   -2.6630    0.7087 N   0  0  0  0  0  0  0  0  0  0  0  0
   11.6932   -2.5755    1.3084 C   0  0  0  0  0  0  0  0  0  0  0  0
   11.7405   -2.0701    2.2801 H   0  0  0  0  0  0  0  0  0  0  0  0
   11.0350   -1.9815    0.6659 H   0  0  0  0  0  0  0  0  0  0  0  0
   11.1044   -3.9685    1.4964 C   0  0  0  0  0  0  0  0  0  0  0  0
   10.0897   -3.8971    1.8986 H   0  0  0  0  0  0  0  0  0  0  0  0
   11.0435   -4.4938    0.5380 H   0  0  0  0  0  0  0  0  0  0  0  0
   11.9799   -4.7593    2.4545 C   0  0  0  0  0  0  0  0  0  0  0  0
   12.0699   -4.2371    3.4175 H   0  0  0  0  0  0  0  0  0  0  0  0
   12.9835   -4.8537    2.0228 H   0  0  0  0  0  0  0  0  0  0  0  0
   11.3666   -6.0819    2.6382 N   0  0  0  0  0  0  0  0  0  0  0  0
   10.3286   -6.1367    3.6779 C   0  0  0  0  0  0  0  0  0  0  0  0
    9.8845   -7.1367    3.7227 H   0  0  0  0  0  0  0  0  0  0  0  0
   10.7636   -5.8878    4.6537 H   0  0  0  0  0  0  0  0  0  0  0  0
    9.5367   -5.4158    3.4467 H   0  0  0  0  0  0  0  0  0  0  0  0
   12.3120   -7.2076    2.5556 C   0  0  0  0  0  0  0  0  0  0  0  0
   13.1218   -7.1142    3.2818 H   0  0  0  0  0  0  0  0  0  0  0  0
   12.7336   -7.2090    1.5442 H   0  0  0  0  0  0  0  0  0  0  0  0
   11.8187   -8.1653    2.7526 H   0  0  0  0  0  0  0  0  0  0  0  0
   14.2214   -2.6478    1.3944 C   0  0  0  0  0  0  0  0  0  0  0  0
   14.3968   -2.4244    2.7287 N   0  0  0  0  0  0  0  0  0  0  0  0
   13.6062   -2.0993    3.2822 H   0  0  0  0  0  0  0  0  0  0  0  0
   15.3485   -2.2852    3.0726 H   0  0  0  0  0  0  0  0  0  0  0  0
   15.2297   -2.8950    0.6280 N   0  0  0  0  0  4  0  0  0  0  0  0
   16.1871   -3.0022    0.9688 H   0  0  0  0  0  0  0  0  0  0  0  0
   15.3019   -0.8385   -1.4781 C   0  0  0  0  0  0  0  0  0  0  0  0
   14.8594   -0.4994   -0.5447 H   0  0  0  0  0  0  0  0  0  0  0  0
   15.4843    1.9886   -0.7935 C   0  0  0  0  0  0  0  0  0  0  0  0
   15.3790    1.2803    0.0230 H   0  0  0  0  0  0  0  0  0  0  0  0
   15.4084    3.3552   -0.5592 C   0  0  0  0  0  0  0  0  0  0  0  0
   15.2224    3.7247    0.4415 H   0  0  0  0  0  0  0  0  0  0  0  0
  1  2  1  0
  2  3  2  0
  3  4  1  0
  4  5  1  0
  4  6  2  0
  6  7  1  0
  7  8  2  0
  8  9  1  0
  8 10  1  0
 10 11  1  0
 10 12  2  0
 12 13  1  0
 12 14  1  0
 15 14  1  6
 15 16  1  0
 16 17  2  0
 17 18  1  0
 17 19  1  0
 19 20  1  0
 19 21  2  0
 21 22  1  0
 21 23  1  0
 23 24  1  0
 23 25  2  0
 25 26  1  0
 15 27  1  0
 27 28  2  0
 27 29  1  0
 29 30  1  0
 30 31  1  0
 30 32  1  0
 30 33  1  0
 33 34  1  0
 33 35  1  0
 33 36  1  0
 36 37  1  0
 36 38  1  0
 36 39  1  0
 39 40  1  0
 40 41  1  0
 40 42  1  0
 40 43  1  0
 39 44  1  0
 44 45  1  0
 44 46  1  0
 44 47  1  0
 29 48  1  0
 48 49  1  0
 49 50  1  0
 49 51  1  0
 48 52  2  0
 52 53  1  0
 14 54  2  0
 54 55  1  0
  6 56  1  0
 56 57  1  0
 56 58  2  0
 58 59  1  0
 58  2  1  0
 54  7  1  0
 52 15  1  0
 25 16  1  0
M  CHG  1  52   1
M  END
>  <score>  (460) 
5.282

$$$$

     RDKit          3D

 50 53  0  0  0  0  0  0  0  0999 V2000
    8.3348   -1.9495    3.2241 H   0  0  0  0  0  0  0  0  0  0  0  0
    9.3328   -2.0152    2.7883 C   0  0  0  0  0  0  0  0  0  0  0  0
   10.0774   -2.5982    3.3268 H   0  0  0  0  0  0  0  0  0  0  0  0
    9.7200   -1.3456    1.6466 C   0  0  0  0  0  0  0  0  0  0  0  0
    8.9908   -0.7551    1.0938 H   0  0  0  0  0  0  0  0  0  0  0  0
   11.1565   -1.3896    1.1362 C   0  0  0  0  0  0  0  0  0  0  0  0
   11.1653   -1.0586    0.0914 H   0  0  0  0  0  0  0  0  0  0  0  0
   11.7914   -0.7009    1.6949 H   0  0  0  0  0  0  0  0  0  0  0  0
   11.7572   -2.6892    1.2353 O   0  0  0  0  0  0  0  0  0  0  0  0
   13.0728   -2.6983    0.6747 N   0  0  0  0  0  0  0  0  0  0  0  0
   13.3730   -3.0674   -0.6212 C   0  0  0  0  0  0  0  0  0  0  0  0
   12.5435   -3.2478   -1.5110 O   0  0  0  0  0  0  0  0  0  0  0  0
   14.8900   -3.2399   -0.7628 C   0  0  1  0  0  0  0  0  0  0  0  0
   15.2519   -4.6880   -1.0633 C   0  0  0  0  0  0  0  0  0  0  0  0
   16.4633   -5.2282   -0.6048 C   0  0  0  0  0  0  0  0  0  0  0  0
   17.1584   -4.5957   -0.0604 H   0  0  0  0  0  0  0  0  0  0  0  0
   16.7673   -6.5777   -0.8072 C   0  0  0  0  0  0  0  0  0  0  0  0
   17.6960   -6.9789   -0.4132 H   0  0  0  0  0  0  0  0  0  0  0  0
   15.8687   -7.4050   -1.4888 C   0  0  0  0  0  0  0  0  0  0  0  0
   16.0983   -8.4570   -1.6341 H   0  0  0  0  0  0  0  0  0  0  0  0
   14.6660   -6.8761   -1.9684 C   0  0  0  0  0  0  0  0  0  0  0  0
   13.9582   -7.5152   -2.4871 H   0  0  0  0  0  0  0  0  0  0  0  0
   14.3611   -5.5269   -1.7585 C   0  0  0  0  0  0  0  0  0  0  0  0
   13.4121   -5.1386   -2.1181 H   0  0  0  0  0  0  0  0  0  0  0  0
   15.4250   -2.2234   -1.7611 C   0  0  0  0  0  0  0  0  0  0  0  0
   15.9615   -2.6190   -2.9941 C   0  0  0  0  0  0  0  0  0  0  0  0
   16.0212   -3.6738   -3.2379 H   0  0  0  0  0  0  0  0  0  0  0  0
   16.4194   -1.6725   -3.9159 C   0  0  0  0  0  0  0  0  0  0  0  0
   16.8478   -1.9873   -4.8612 H   0  0  0  0  0  0  0  0  0  0  0  0
   16.3333   -0.3114   -3.6218 C   0  0  0  0  0  0  0  0  0  0  0  0
   16.7000    0.4221   -4.3337 H   0  0  0  0  0  0  0  0  0  0  0  0
   15.7905    0.1169   -2.4054 C   0  0  0  0  0  0  0  0  0  0  0  0
   15.7183    1.5513   -2.0989 C   0  0  0  0  0  0  0  0  0  0  0  0
   15.9060    2.5198   -3.1011 C   0  0  0  0  0  0  0  0  0  0  0  0
   16.1053    2.1957   -4.1187 H   0  0  0  0  0  0  0  0  0  0  0  0
   15.8409    3.8423   -2.8667 N   0  0  0  0  0  0  0  0  0  0  0  0
   15.5869    4.2529   -1.6154 C   0  0  0  0  0  0  0  0  0  0  0  0
   15.5240    5.3185   -1.4203 H   0  0  0  0  0  0  0  0  0  0  0  0
   15.4068    3.3575   -0.5589 C   0  0  0  0  0  0  0  0  0  0  0  0
   15.2190    3.7301    0.4401 H   0  0  0  0  0  0  0  0  0  0  0  0
   15.4807    1.9890   -0.7957 C   0  0  0  0  0  0  0  0  0  0  0  0
   15.3761    1.2740    0.0154 H   0  0  0  0  0  0  0  0  0  0  0  0
   15.3309   -0.8454   -1.4894 C   0  0  0  0  0  0  0  0  0  0  0  0
   14.8872   -0.5130   -0.5547 H   0  0  0  0  0  0  0  0  0  0  0  0
   15.2891   -2.9050    0.6157 N   0  0  0  0  0  4  0  0  0  0  0  0
   16.2503   -2.9888    0.9586 H   0  0  0  0  0  0  0  0  0  0  0  0
   14.2741   -2.6434    1.3723 C   0  0  0  0  0  0  0  0  0  0  0  0
   14.4614   -2.3580    2.6962 N   0  0  0  0  0  0  0  0  0  0  0  0
   15.4141   -2.3241    3.0666 H   0  0  0  0  0  0  0  0  0  0  0  0
   13.6635   -2.1467    3.2939 H   0  0  0  0  0  0  0  0  0  0  0  0
  1  2  1  0
  2  3  1  0
  2  4  2  0
  4  5  1  0
  4  6  1  0
  6  7  1  0
  6  8  1  0
  6  9  1  0
  9 10  1  0
 10 11  1  0
 11 12  2  0
 11 13  1  0
 13 14  1  6
 14 15  2  0
 15 16  1  0
 15 17  1  0
 17 18  1  0
 17 19  2  0
 19 20  1  0
 19 21  1  0
 21 22  1  0
 21 23  2  0
 23 24  1  0
 13 25  1  0
 25 26  2  0
 26 27  1  0
 26 28  1  0
 28 29  1  0
 28 30  2  0
 30 31  1  0
 30 32  1  0
 32 33  1  0
 33 34  2  0
 34 35  1  0
 34 36  1  0
 36 37  2  0
 37 38  1  0
 37 39  1  0
 39 40  1  0
 39 41  2  0
 41 42  1  0
 32 43  2  0
 43 44  1  0
 13 45  1  0
 45 46  1  0
 45 47  2  0
 47 48  1  0
 48 49  1  0
 48 50  1  0
 47 10  1  0
 23 14  1  0
 43 25  1  0
 41 33  1  0
M  CHG  1  45   1
M  END
>  <score>  (461) 
5.28014

$$$$

     RDKit          3D

 49 52  0  0  0  0  0  0  0  0999 V2000
    8.9828   -4.0581   -0.5201 H   0  0  0  0  0  0  0  0  0  0  0  0
    9.2793   -3.4247    0.1507 O   0  0  0  0  0  0  0  0  0  0  0  0
   10.3528   -4.0265    0.6986 C   0  0  0  0  0  0  0  0  0  0  0  0
   10.7215   -5.1426    0.3785 O   0  0  0  0  0  0  0  0  0  0  0  0
   11.0928   -3.2772    1.7878 C   0  0  0  0  0  0  0  0  0  0  0  0
   11.7804   -3.9510    2.3013 H   0  0  0  0  0  0  0  0  0  0  0  0
   10.3708   -2.9075    2.5157 H   0  0  0  0  0  0  0  0  0  0  0  0
   11.8185   -2.1892    1.2186 O   0  0  0  0  0  0  0  0  0  0  0  0
   13.0486   -2.6530    0.6837 N   0  0  0  0  0  0  0  0  0  0  0  0
   13.3042   -3.0152   -0.6237 C   0  0  0  0  0  0  0  0  0  0  0  0
   12.4407   -3.0883   -1.4978 O   0  0  0  0  0  0  0  0  0  0  0  0
   14.8177   -3.2551   -0.7900 C   0  0  1  0  0  0  0  0  0  0  0  0
   15.1719   -4.7217   -1.0753 C   0  0  0  0  0  0  0  0  0  0  0  0
   16.3906   -5.2430   -0.6091 C   0  0  0  0  0  0  0  0  0  0  0  0
   17.0684   -4.5907   -0.0671 H   0  0  0  0  0  0  0  0  0  0  0  0
   16.7289   -6.5854   -0.8007 C   0  0  0  0  0  0  0  0  0  0  0  0
   17.6739   -6.9557   -0.4179 H   0  0  0  0  0  0  0  0  0  0  0  0
   15.8541   -7.4428   -1.4715 C   0  0  0  0  0  0  0  0  0  0  0  0
   16.1227   -8.4874   -1.6113 H   0  0  0  0  0  0  0  0  0  0  0  0
   14.6426   -6.9436   -1.9606 C   0  0  0  0  0  0  0  0  0  0  0  0
   13.9718   -7.6153   -2.4879 H   0  0  0  0  0  0  0  0  0  0  0  0
   14.3015   -5.5939   -1.7675 C   0  0  0  0  0  0  0  0  0  0  0  0
   13.3523   -5.2380   -2.1596 H   0  0  0  0  0  0  0  0  0  0  0  0
   15.3859   -2.2463   -1.7870 C   0  0  0  0  0  0  0  0  0  0  0  0
   15.9465   -2.6451   -3.0108 C   0  0  0  0  0  0  0  0  0  0  0  0
   16.0065   -3.7000   -3.2633 H   0  0  0  0  0  0  0  0  0  0  0  0
   16.4313   -1.6901   -3.9116 C   0  0  0  0  0  0  0  0  0  0  0  0
   16.8658   -2.0092   -4.8532 H   0  0  0  0  0  0  0  0  0  0  0  0
   16.3490   -0.3228   -3.6124 C   0  0  0  0  0  0  0  0  0  0  0  0
   16.7292    0.4008   -4.3268 H   0  0  0  0  0  0  0  0  0  0  0  0
   15.7730    0.1189   -2.4103 C   0  0  0  0  0  0  0  0  0  0  0  0
   15.6841    1.5726   -2.0940 C   0  0  0  0  0  0  0  0  0  0  0  0
   15.8622    2.5546   -3.0867 C   0  0  0  0  0  0  0  0  0  0  0  0
   16.0411    2.2313   -4.1070 H   0  0  0  0  0  0  0  0  0  0  0  0
   15.8208    3.8816   -2.8459 N   0  0  0  0  0  0  0  0  0  0  0  0
   15.5845    4.3035   -1.5944 C   0  0  0  0  0  0  0  0  0  0  0  0
   15.5708    5.3720   -1.3881 H   0  0  0  0  0  0  0  0  0  0  0  0
   15.3696    3.4034   -0.5505 C   0  0  0  0  0  0  0  0  0  0  0  0
   15.1674    3.7869    0.4428 H   0  0  0  0  0  0  0  0  0  0  0  0
   15.4302    2.0284   -0.7954 C   0  0  0  0  0  0  0  0  0  0  0  0
   15.2915    1.3185    0.0104 H   0  0  0  0  0  0  0  0  0  0  0  0
   15.3006   -0.8608   -1.5155 C   0  0  0  0  0  0  0  0  0  0  0  0
   14.8677   -0.5315   -0.5769 H   0  0  0  0  0  0  0  0  0  0  0  0
   15.2433   -2.9127    0.5876 N   0  0  0  0  0  4  0  0  0  0  0  0
   16.2185   -2.9157    0.8917 H   0  0  0  0  0  0  0  0  0  0  0  0
   14.2481   -2.6203    1.3596 C   0  0  0  0  0  0  0  0  0  0  0  0
   14.4090   -2.3301    2.6938 N   0  0  0  0  0  0  0  0  0  0  0  0
   15.3394   -2.3505    3.1118 H   0  0  0  0  0  0  0  0  0  0  0  0
   13.5919   -2.1201    3.2672 H   0  0  0  0  0  0  0  0  0  0  0  0
  1  2  1  0
  2  3  1  0
  3  4  2  0
  3  5  1  0
  5  6  1  0
  5  7  1  0
  5  8  1  0
  8  9  1  0
  9 10  1  0
 10 11  2  0
 10 12  1  0
 12 13  1  6
 13 14  2  0
 14 15  1  0
 14 16  1  0
 16 17  1  0
 16 18  2  0
 18 19  1  0
 18 20  1  0
 20 21  1  0
 20 22  2  0
 22 23  1  0
 12 24  1  0
 24 25  2  0
 25 26  1  0
 25 27  1  0
 27 28  1  0
 27 29  2  0
 29 30  1  0
 29 31  1  0
 31 32  1  0
 32 33  2  0
 33 34  1  0
 33 35  1  0
 35 36  2  0
 36 37  1  0
 36 38  1  0
 38 39  1  0
 38 40  2  0
 40 41  1  0
 31 42  2  0
 42 43  1  0
 12 44  1  0
 44 45  1  0
 44 46  2  0
 46 47  1  0
 47 48  1  0
 47 49  1  0
 46  9  1  0
 22 13  1  0
 42 24  1  0
 40 32  1  0
M  CHG  1  44   1
M  END
>  <score>  (462) 
5.27851

$$$$

     RDKit          3D

 51 54  0  0  0  0  0  0  0  0999 V2000
   15.5499    5.3461   -1.3976 H   0  0  0  0  0  0  0  0  0  0  0  0
   15.5874    4.2808   -1.6063 C   0  0  0  0  0  0  0  0  0  0  0  0
   15.8253    3.8683   -2.8606 N   0  0  0  0  0  0  0  0  0  0  0  0
   15.8804    2.5432   -3.0965 C   0  0  0  0  0  0  0  0  0  0  0  0
   16.0748    2.2015   -4.1084 H   0  0  0  0  0  0  0  0  0  0  0  0
   15.6980    1.5718   -2.0998 C   0  0  0  0  0  0  0  0  0  0  0  0
   15.7830    0.1295   -2.4119 C   0  0  0  0  0  0  0  0  0  0  0  0
   16.3348   -0.3110   -3.6201 C   0  0  0  0  0  0  0  0  0  0  0  0
   16.7110    0.4364   -4.3092 H   0  0  0  0  0  0  0  0  0  0  0  0
   16.4267   -1.6776   -3.9194 C   0  0  0  0  0  0  0  0  0  0  0  0
   16.8674   -1.9977   -4.8576 H   0  0  0  0  0  0  0  0  0  0  0  0
   15.9600   -2.6286   -3.0058 C   0  0  0  0  0  0  0  0  0  0  0  0
   16.0080   -3.6896   -3.2386 H   0  0  0  0  0  0  0  0  0  0  0  0
   15.4177   -2.2172   -1.7824 C   0  0  0  0  0  0  0  0  0  0  0  0
   14.8632   -3.2112   -0.7796 C   0  0  2  0  0  0  0  0  0  0  0  0
   15.1969   -4.6851   -1.0702 C   0  0  0  0  0  0  0  0  0  0  0  0
   16.4067   -5.2217   -0.6058 C   0  0  0  0  0  0  0  0  0  0  0  0
   17.0879   -4.5776   -0.0591 H   0  0  0  0  0  0  0  0  0  0  0  0
   16.7381   -6.5695   -0.7999 C   0  0  0  0  0  0  0  0  0  0  0  0
   17.6750   -6.9614   -0.4116 H   0  0  0  0  0  0  0  0  0  0  0  0
   15.8569   -7.4147   -1.4802 C   0  0  0  0  0  0  0  0  0  0  0  0
   16.1022   -8.4654   -1.6172 H   0  0  0  0  0  0  0  0  0  0  0  0
   14.6465   -6.9065   -1.9629 C   0  0  0  0  0  0  0  0  0  0  0  0
   13.9587   -7.5713   -2.4821 H   0  0  0  0  0  0  0  0  0  0  0  0
   14.3175   -5.5521   -1.7596 C   0  0  0  0  0  0  0  0  0  0  0  0
   13.3621   -5.1849   -2.1217 H   0  0  0  0  0  0  0  0  0  0  0  0
   13.3559   -2.9661   -0.6337 C   0  0  0  0  0  0  0  0  0  0  0  0
   12.5043   -3.1382   -1.5064 O   0  0  0  0  0  0  0  0  0  0  0  0
   13.0551   -2.6283    0.6826 N   0  0  0  0  0  0  0  0  0  0  0  0
   11.6948   -2.6905    1.3227 C   0  0  0  0  0  0  0  0  0  0  0  0
   11.7063   -2.1060    2.2522 H   0  0  0  0  0  0  0  0  0  0  0  0
   10.9499   -2.2377    0.6568 H   0  0  0  0  0  0  0  0  0  0  0  0
   11.0209   -4.3520    1.7711 S   0  0  0  0  0  0  0  0  0  0  0  0
    9.7299   -4.2385    2.4690 O   0  0  0  0  0  0  0  0  0  0  0  0
   10.8836   -5.2095    0.5813 O   0  0  0  0  0  0  0  0  0  0  0  0
   12.2604   -5.0547    2.8591 C   0  0  0  0  0  0  0  0  0  0  0  0
   12.4046   -4.4050    3.7235 H   0  0  0  0  0  0  0  0  0  0  0  0
   13.1935   -5.1383    2.3016 H   0  0  0  0  0  0  0  0  0  0  0  0
   11.9288   -6.0425    3.1764 H   0  0  0  0  0  0  0  0  0  0  0  0
   14.2820   -2.5808    1.3470 C   0  0  0  0  0  0  0  0  0  0  0  0
   14.4384   -2.3523    2.6839 N   0  0  0  0  0  0  0  0  0  0  0  0
   13.6291   -2.1012    3.2477 H   0  0  0  0  0  0  0  0  0  0  0  0
   15.3762   -2.3292    3.0801 H   0  0  0  0  0  0  0  0  0  0  0  0
   15.2947   -2.8513    0.5884 N   0  0  0  0  0  4  0  0  0  0  0  0
   16.2539   -2.9742    0.9289 H   0  0  0  0  0  0  0  0  0  0  0  0
   15.3261   -0.8381   -1.5075 C   0  0  0  0  0  0  0  0  0  0  0  0
   14.8737   -0.5087   -0.5763 H   0  0  0  0  0  0  0  0  0  0  0  0
   15.4485    2.0105   -0.8000 C   0  0  0  0  0  0  0  0  0  0  0  0
   15.3410    1.2707   -0.0125 H   0  0  0  0  0  0  0  0  0  0  0  0
   15.3847    3.3832   -0.5570 C   0  0  0  0  0  0  0  0  0  0  0  0
   15.1853    3.7678    0.4348 H   0  0  0  0  0  0  0  0  0  0  0  0
  1  2  1  0
  2  3  2  0
  3  4  1  0
  4  5  1  0
  4  6  2  0
  6  7  1  0
  7  8  2  0
  8  9  1  0
  8 10  1  0
 10 11  1  0
 10 12  2  0
 12 13  1  0
 12 14  1  0
 15 14  1  6
 15 16  1  0
 16 17  2  0
 17 18  1  0
 17 19  1  0
 19 20  1  0
 19 21  2  0
 21 22  1  0
 21 23  1  0
 23 24  1  0
 23 25  2  0
 25 26  1  0
 15 27  1  0
 27 28  2  0
 27 29  1  0
 29 30  1  0
 30 31  1  0
 30 32  1  0
 30 33  1  0
 33 34  2  0
 33 35  2  0
 33 36  1  0
 36 37  1  0
 36 38  1  0
 36 39  1  0
 29 40  1  0
 40 41  1  0
 41 42  1  0
 41 43  1  0
 40 44  2  0
 44 45  1  0
 14 46  2  0
 46 47  1  0
  6 48  1  0
 48 49  1  0
 48 50  2  0
 50 51  1  0
 50  2  1  0
 46  7  1  0
 44 15  1  0
 25 16  1  0
M  CHG  1  44   1
M  END
>  <score>  (463) 
5.27298

$$$$

     RDKit          3D

 55 59  0  0  0  0  0  0  0  0999 V2000
   15.5058    5.2983   -1.4302 H   0  0  0  0  0  0  0  0  0  0  0  0
   15.5883    4.2342   -1.6248 C   0  0  0  0  0  0  0  0  0  0  0  0
   15.8500    3.8267   -2.8761 N   0  0  0  0  0  0  0  0  0  0  0  0
   15.9261    2.5041   -3.1050 C   0  0  0  0  0  0  0  0  0  0  0  0
   16.1364    2.1691   -4.1171 H   0  0  0  0  0  0  0  0  0  0  0  0
   15.7328    1.5434   -2.0984 C   0  0  0  0  0  0  0  0  0  0  0  0
   15.7733    0.1141   -2.3906 C   0  0  0  0  0  0  0  0  0  0  0  0
   16.3130   -0.3216   -3.5991 C   0  0  0  0  0  0  0  0  0  0  0  0
   16.6856    0.4148   -4.3058 H   0  0  0  0  0  0  0  0  0  0  0  0
   16.3900   -1.6833   -3.8799 C   0  0  0  0  0  0  0  0  0  0  0  0
   16.8367   -2.0044   -4.8153 H   0  0  0  0  0  0  0  0  0  0  0  0
   15.9082   -2.6164   -2.9516 C   0  0  0  0  0  0  0  0  0  0  0  0
   15.9776   -3.6751   -3.1758 H   0  0  0  0  0  0  0  0  0  0  0  0
   15.3484   -2.2084   -1.7286 C   0  0  0  0  0  0  0  0  0  0  0  0
   14.8036   -3.2142   -0.7142 C   0  0  2  0  0  0  0  0  0  0  0  0
   15.2040   -4.6507   -1.0212 C   0  0  0  0  0  0  0  0  0  0  0  0
   16.4286   -5.1785   -0.5772 C   0  0  0  0  0  0  0  0  0  0  0  0
   17.1214   -4.5426   -0.0315 H   0  0  0  0  0  0  0  0  0  0  0  0
   16.7471   -6.5234   -0.7982 C   0  0  0  0  0  0  0  0  0  0  0  0
   17.6818   -6.9258   -0.4175 H   0  0  0  0  0  0  0  0  0  0  0  0
   15.8526   -7.3488   -1.4880 C   0  0  0  0  0  0  0  0  0  0  0  0
   16.0893   -8.3967   -1.6465 H   0  0  0  0  0  0  0  0  0  0  0  0
   14.6466   -6.8257   -1.9634 C   0  0  0  0  0  0  0  0  0  0  0  0
   13.9475   -7.4622   -2.4972 H   0  0  0  0  0  0  0  0  0  0  0  0
   14.3268   -5.4853   -1.7304 C   0  0  0  0  0  0  0  0  0  0  0  0
   13.3779   -5.0914   -2.0815 H   0  0  0  0  0  0  0  0  0  0  0  0
   13.2750   -3.0662   -0.5276 C   0  0  0  0  0  0  0  0  0  0  0  0
   12.3939   -3.3451   -1.3395 O   0  0  0  0  0  0  0  0  0  0  0  0
   13.0051   -2.6655    0.7627 N   0  0  0  0  0  0  0  0  0  0  0  0
   11.6796   -2.6008    1.3814 C   0  0  0  0  0  0  0  0  0  0  0  0
   11.6644   -1.8178    2.1515 H   0  0  0  0  0  0  0  0  0  0  0  0
   10.9178   -2.3433    0.6417 H   0  0  0  0  0  0  0  0  0  0  0  0
   11.2989   -3.9228    1.9875 C   0  0  0  0  0  0  0  0  0  0  0  0
   11.5630   -5.1298    1.3203 C   0  0  0  0  0  0  0  0  0  0  0  0
   12.0333   -5.1142    0.3408 H   0  0  0  0  0  0  0  0  0  0  0  0
   11.2617   -6.3444    1.9357 C   0  0  0  0  0  0  0  0  0  0  0  0
   11.4369   -7.2714    1.3972 H   0  0  0  0  0  0  0  0  0  0  0  0
   10.7227   -6.3665    3.2253 C   0  0  0  0  0  0  0  0  0  0  0  0
   10.4952   -7.3170    3.6928 H   0  0  0  0  0  0  0  0  0  0  0  0
   10.4622   -5.1679    3.8956 C   0  0  0  0  0  0  0  0  0  0  0  0
   10.0853   -5.1703    4.9147 H   0  0  0  0  0  0  0  0  0  0  0  0
   10.6973   -3.9517    3.2542 C   0  0  0  0  0  0  0  0  0  0  0  0
   10.1896   -2.4816    4.0355 Cl  0  0  0  0  0  0  0  0  0  0  0  0
   14.2124   -2.6208    1.4300 C   0  0  0  0  0  0  0  0  0  0  0  0
   14.3997   -2.3859    2.7579 N   0  0  0  0  0  0  0  0  0  0  0  0
   15.3520   -2.2437    3.0949 H   0  0  0  0  0  0  0  0  0  0  0  0
   13.6054   -2.1147    3.3346 H   0  0  0  0  0  0  0  0  0  0  0  0
   15.2187   -2.8720    0.6597 N   0  0  0  0  0  4  0  0  0  0  0  0
   16.1675   -3.0140    1.0106 H   0  0  0  0  0  0  0  0  0  0  0  0
   15.2844   -0.8284   -1.4693 C   0  0  0  0  0  0  0  0  0  0  0  0
   14.8544   -0.4737   -0.5365 H   0  0  0  0  0  0  0  0  0  0  0  0
   15.5089    1.9747   -0.7968 C   0  0  0  0  0  0  0  0  0  0  0  0
   15.4146    1.2453    0.0036 H   0  0  0  0  0  0  0  0  0  0  0  0
   15.4249    3.3404   -0.5631 C   0  0  0  0  0  0  0  0  0  0  0  0
   15.2359    3.7103    0.4363 H   0  0  0  0  0  0  0  0  0  0  0  0
  1  2  1  0
  2  3  2  0
  3  4  1  0
  4  5  1  0
  4  6  2  0
  6  7  1  0
  7  8  2  0
  8  9  1  0
  8 10  1  0
 10 11  1  0
 10 12  2  0
 12 13  1  0
 12 14  1  0
 15 14  1  6
 15 16  1  0
 16 17  2  0
 17 18  1  0
 17 19  1  0
 19 20  1  0
 19 21  2  0
 21 22  1  0
 21 23  1  0
 23 24  1  0
 23 25  2  0
 25 26  1  0
 15 27  1  0
 27 28  2  0
 27 29  1  0
 29 30  1  0
 30 31  1  0
 30 32  1  0
 30 33  1  0
 33 34  2  0
 34 35  1  0
 34 36  1  0
 36 37  1  0
 36 38  2  0
 38 39  1  0
 38 40  1  0
 40 41  1  0
 40 42  2  0
 42 43  1  0
 29 44  1  0
 44 45  1  0
 45 46  1  0
 45 47  1  0
 44 48  2  0
 48 49  1  0
 14 50  2  0
 50 51  1  0
  6 52  1  0
 52 53  1  0
 52 54  2  0
 54 55  1  0
 54  2  1  0
 50  7  1  0
 48 15  1  0
 25 16  1  0
 42 33  1  0
M  CHG  1  48   1
M  END
>  <score>  (464) 
5.27118

$$$$

     RDKit          3D

 53 57  0  0  0  0  0  0  0  0999 V2000
   15.5395    5.3351   -1.4092 H   0  0  0  0  0  0  0  0  0  0  0  0
   15.5840    4.2683   -1.6103 C   0  0  0  0  0  0  0  0  0  0  0  0
   15.8352    3.8538   -2.8614 N   0  0  0  0  0  0  0  0  0  0  0  0
   15.8925    2.5292   -3.0966 C   0  0  0  0  0  0  0  0  0  0  0  0
   16.0869    2.2027   -4.1135 H   0  0  0  0  0  0  0  0  0  0  0  0
   15.7065    1.5585   -2.0966 C   0  0  0  0  0  0  0  0  0  0  0  0
   15.7775    0.1183   -2.3966 C   0  0  0  0  0  0  0  0  0  0  0  0
   16.3333   -0.3189   -3.6029 C   0  0  0  0  0  0  0  0  0  0  0  0
   16.7042    0.4113   -4.3153 H   0  0  0  0  0  0  0  0  0  0  0  0
   16.4137   -1.6827   -3.8924 C   0  0  0  0  0  0  0  0  0  0  0  0
   16.8506   -2.0046   -4.8317 H   0  0  0  0  0  0  0  0  0  0  0  0
   15.9343   -2.6265   -2.9763 C   0  0  0  0  0  0  0  0  0  0  0  0
   15.9948   -3.6838   -3.2146 H   0  0  0  0  0  0  0  0  0  0  0  0
   15.3812   -2.2229   -1.7515 C   0  0  0  0  0  0  0  0  0  0  0  0
   14.8140   -3.2300   -0.7545 C   0  0  2  0  0  0  0  0  0  0  0  0
   15.1837   -4.6862   -1.0508 C   0  0  0  0  0  0  0  0  0  0  0  0
   16.4042   -5.2120   -0.5950 C   0  0  0  0  0  0  0  0  0  0  0  0
   17.0891   -4.5663   -0.0528 H   0  0  0  0  0  0  0  0  0  0  0  0
   16.7345   -6.5554   -0.8012 C   0  0  0  0  0  0  0  0  0  0  0  0
   17.6744   -6.9407   -0.4178 H   0  0  0  0  0  0  0  0  0  0  0  0
   15.8508   -7.3972   -1.4809 C   0  0  0  0  0  0  0  0  0  0  0  0
   16.1050   -8.4435   -1.6272 H   0  0  0  0  0  0  0  0  0  0  0  0
   14.6418   -6.8869   -1.9633 C   0  0  0  0  0  0  0  0  0  0  0  0
   13.9592   -7.5448   -2.4922 H   0  0  0  0  0  0  0  0  0  0  0  0
   14.3088   -5.5407   -1.7508 C   0  0  0  0  0  0  0  0  0  0  0  0
   13.3577   -5.1689   -2.1220 H   0  0  0  0  0  0  0  0  0  0  0  0
   13.2919   -3.0163   -0.6088 C   0  0  0  0  0  0  0  0  0  0  0  0
   12.4532   -3.1618   -1.4977 O   0  0  0  0  0  0  0  0  0  0  0  0
   12.9858   -2.6582    0.7011 N   0  0  0  0  0  0  0  0  0  0  0  0
   11.7000   -2.4982    1.2850 C   0  0  0  0  0  0  0  0  0  0  0  0
   10.7058   -1.6181    0.7641 C   0  0  0  0  0  0  0  0  0  0  0  0
   10.9544   -1.0331   -0.1154 H   0  0  0  0  0  0  0  0  0  0  0  0
    9.4736   -1.4847    1.2743 N   0  0  0  0  0  0  0  0  0  0  0  0
    9.2254   -2.2501    2.3079 C   0  0  0  0  0  0  0  0  0  0  0  0
    7.9434   -2.1382    2.6606 N   0  0  0  0  0  0  0  0  0  0  0  0
    7.7593   -2.3787    3.6225 H   0  0  0  0  0  0  0  0  0  0  0  0
    7.6450   -1.2456    2.3063 H   0  0  0  0  0  0  0  0  0  0  0  0
   10.1091   -3.0848    2.9537 C   0  0  0  0  0  0  0  0  0  0  0  0
    9.7515   -3.6234    3.8167 H   0  0  0  0  0  0  0  0  0  0  0  0
   11.3924   -3.2307    2.4367 C   0  0  0  0  0  0  0  0  0  0  0  0
   12.1157   -3.9154    2.8865 H   0  0  0  0  0  0  0  0  0  0  0  0
   14.1965   -2.6539    1.3900 C   0  0  0  0  0  0  0  0  0  0  0  0
   14.4056   -2.4075    2.7248 N   0  0  0  0  0  0  0  0  0  0  0  0
   13.6389   -2.0438    3.2887 H   0  0  0  0  0  0  0  0  0  0  0  0
   15.3665   -2.3112    3.0563 H   0  0  0  0  0  0  0  0  0  0  0  0
   15.2100   -2.9006    0.6284 N   0  0  0  0  0  4  0  0  0  0  0  0
   16.1698   -2.9731    0.9735 H   0  0  0  0  0  0  0  0  0  0  0  0
   15.3022   -0.8417   -1.4849 C   0  0  0  0  0  0  0  0  0  0  0  0
   14.8647   -0.5007   -0.5513 H   0  0  0  0  0  0  0  0  0  0  0  0
   15.4652    2.0009   -0.7967 C   0  0  0  0  0  0  0  0  0  0  0  0
   15.3487    1.2807    0.0066 H   0  0  0  0  0  0  0  0  0  0  0  0
   15.3928    3.3717   -0.5570 C   0  0  0  0  0  0  0  0  0  0  0  0
   15.1995    3.7504    0.4394 H   0  0  0  0  0  0  0  0  0  0  0  0
  1  2  1  0
  2  3  2  0
  3  4  1  0
  4  5  1  0
  4  6  2  0
  6  7  1  0
  7  8  2  0
  8  9  1  0
  8 10  1  0
 10 11  1  0
 10 12  2  0
 12 13  1  0
 12 14  1  0
 15 14  1  6
 15 16  1  0
 16 17  2  0
 17 18  1  0
 17 19  1  0
 19 20  1  0
 19 21  2  0
 21 22  1  0
 21 23  1  0
 23 24  1  0
 23 25  2  0
 25 26  1  0
 15 27  1  0
 27 28  2  0
 27 29  1  0
 29 30  1  0
 30 31  2  0
 31 32  1  0
 31 33  1  0
 33 34  2  0
 34 35  1  0
 35 36  1  0
 35 37  1  0
 34 38  1  0
 38 39  1  0
 38 40  2  0
 40 41  1  0
 29 42  1  0
 42 43  1  0
 43 44  1  0
 43 45  1  0
 42 46  2  0
 46 47  1  0
 14 48  2  0
 48 49  1  0
  6 50  1  0
 50 51  1  0
 50 52  2  0
 52 53  1  0
 52  2  1  0
 48  7  1  0
 46 15  1  0
 25 16  1  0
 40 30  1  0
M  CHG  1  46   1
M  END
>  <score>  (465) 
5.26927

$$$$

     RDKit          3D

 53 57  0  0  0  0  0  0  0  0999 V2000
   15.5276    5.3195   -1.4168 H   0  0  0  0  0  0  0  0  0  0  0  0
   15.5836    4.2536   -1.6160 C   0  0  0  0  0  0  0  0  0  0  0  0
   15.8390    3.8427   -2.8684 N   0  0  0  0  0  0  0  0  0  0  0  0
   15.9016    2.5197   -3.1018 C   0  0  0  0  0  0  0  0  0  0  0  0
   16.1044    2.1896   -4.1163 H   0  0  0  0  0  0  0  0  0  0  0  0
   15.7135    1.5514   -2.1008 C   0  0  0  0  0  0  0  0  0  0  0  0
   15.7887    0.1172   -2.3999 C   0  0  0  0  0  0  0  0  0  0  0  0
   16.3330   -0.3125   -3.6131 C   0  0  0  0  0  0  0  0  0  0  0  0
   16.6924    0.4297   -4.3181 H   0  0  0  0  0  0  0  0  0  0  0  0
   16.4222   -1.6740   -3.9057 C   0  0  0  0  0  0  0  0  0  0  0  0
   16.8476   -1.9907   -4.8510 H   0  0  0  0  0  0  0  0  0  0  0  0
   15.9697   -2.6211   -2.9826 C   0  0  0  0  0  0  0  0  0  0  0  0
   16.0221   -3.6784   -3.2197 H   0  0  0  0  0  0  0  0  0  0  0  0
   15.4426   -2.2221   -1.7482 C   0  0  0  0  0  0  0  0  0  0  0  0
   14.9021   -3.2347   -0.7508 C   0  0  2  0  0  0  0  0  0  0  0  0
   15.2422   -4.6889   -1.0553 C   0  0  0  0  0  0  0  0  0  0  0  0
   16.4515   -5.2321   -0.6026 C   0  0  0  0  0  0  0  0  0  0  0  0
   17.1406   -4.5926   -0.0568 H   0  0  0  0  0  0  0  0  0  0  0  0
   16.7587   -6.5783   -0.8097 C   0  0  0  0  0  0  0  0  0  0  0  0
   17.6877   -6.9765   -0.4149 H   0  0  0  0  0  0  0  0  0  0  0  0
   15.8604   -7.4051   -1.4915 C   0  0  0  0  0  0  0  0  0  0  0  0
   16.0934   -8.4558   -1.6344 H   0  0  0  0  0  0  0  0  0  0  0  0
   14.6559   -6.8752   -1.9667 C   0  0  0  0  0  0  0  0  0  0  0  0
   13.9539   -7.5210   -2.4859 H   0  0  0  0  0  0  0  0  0  0  0  0
   14.3453   -5.5261   -1.7506 C   0  0  0  0  0  0  0  0  0  0  0  0
   13.3917   -5.1394   -2.1022 H   0  0  0  0  0  0  0  0  0  0  0  0
   13.3949   -3.0059   -0.6250 C   0  0  0  0  0  0  0  0  0  0  0  0
   12.5748   -3.1560   -1.5336 O   0  0  0  0  0  0  0  0  0  0  0  0
   13.0920   -2.5698    0.6626 N   0  0  0  0  0  0  0  0  0  0  0  0
   11.8017   -2.0972    1.1596 N   0  0  0  0  0  0  0  0  0  0  0  0
   11.7590   -1.2331    1.6976 H   0  0  0  0  0  0  0  0  0  0  0  0
   10.5421   -2.6074    0.8906 C   0  0  0  0  0  0  0  0  0  0  0  0
   10.3602   -3.5322    0.1096 O   0  0  0  0  0  0  0  0  0  0  0  0
    9.3275   -1.8712    1.4463 C   0  0  0  0  0  0  0  0  0  0  0  0
    8.9426   -1.1255    0.7512 H   0  0  0  0  0  0  0  0  0  0  0  0
    9.1153   -1.5741    2.9301 C   0  0  0  0  0  0  0  0  0  0  0  0
    8.6029   -0.6327    3.1795 H   0  0  0  0  0  0  0  0  0  0  0  0
    9.9083   -1.8641    3.6310 H   0  0  0  0  0  0  0  0  0  0  0  0
    8.3256   -2.6928    2.2501 C   0  0  0  0  0  0  0  0  0  0  0  0
    7.2677   -2.5448    2.0387 H   0  0  0  0  0  0  0  0  0  0  0  0
    8.5960   -3.7300    2.4827 H   0  0  0  0  0  0  0  0  0  0  0  0
   14.3046   -2.5479    1.3575 C   0  0  0  0  0  0  0  0  0  0  0  0
   14.5036   -2.2120    2.6721 N   0  0  0  0  0  0  0  0  0  0  0  0
   13.6979   -2.1478    3.2861 H   0  0  0  0  0  0  0  0  0  0  0  0
   15.4296   -2.3720    3.0739 H   0  0  0  0  0  0  0  0  0  0  0  0
   15.3111   -2.9047    0.6262 N   0  0  0  0  0  4  0  0  0  0  0  0
   16.2625   -3.0288    0.9761 H   0  0  0  0  0  0  0  0  0  0  0  0
   15.3360   -0.8439   -1.4812 C   0  0  0  0  0  0  0  0  0  0  0  0
   14.8845   -0.5079   -0.5501 H   0  0  0  0  0  0  0  0  0  0  0  0
   15.4774    1.9874   -0.7996 C   0  0  0  0  0  0  0  0  0  0  0  0
   15.3736    1.2614    0.0026 H   0  0  0  0  0  0  0  0  0  0  0  0
   15.4021    3.3572   -0.5601 C   0  0  0  0  0  0  0  0  0  0  0  0
   15.2132    3.7352    0.4368 H   0  0  0  0  0  0  0  0  0  0  0  0
  1  2  1  0
  2  3  2  0
  3  4  1  0
  4  5  1  0
  4  6  2  0
  6  7  1  0
  7  8  2  0
  8  9  1  0
  8 10  1  0
 10 11  1  0
 10 12  2  0
 12 13  1  0
 12 14  1  0
 15 14  1  6
 15 16  1  0
 16 17  2  0
 17 18  1  0
 17 19  1  0
 19 20  1  0
 19 21  2  0
 21 22  1  0
 21 23  1  0
 23 24  1  0
 23 25  2  0
 25 26  1  0
 15 27  1  0
 27 28  2  0
 27 29  1  0
 29 30  1  0
 30 31  1  0
 30 32  1  0
 32 33  2  0
 32 34  1  0
 34 35  1  0
 34 36  1  0
 36 37  1  0
 36 38  1  0
 36 39  1  0
 39 40  1  0
 39 41  1  0
 29 42  1  0
 42 43  1  0
 43 44  1  0
 43 45  1  0
 42 46  2  0
 46 47  1  0
 14 48  2  0
 48 49  1  0
  6 50  1  0
 50 51  1  0
 50 52  2  0
 52 53  1  0
 52  2  1  0
 48  7  1  0
 46 15  1  0
 25 16  1  0
 39 34  1  0
M  CHG  1  46   1
M  END
>  <score>  (466) 
5.2614

$$$$

     RDKit          3D

 48 51  0  0  0  0  0  0  0  0999 V2000
   15.5197    5.3223   -1.4207 H   0  0  0  0  0  0  0  0  0  0  0  0
   15.5860    4.2565   -1.6162 C   0  0  0  0  0  0  0  0  0  0  0  0
   15.8385    3.8493   -2.8692 N   0  0  0  0  0  0  0  0  0  0  0  0
   15.9170    2.5288   -3.1054 C   0  0  0  0  0  0  0  0  0  0  0  0
   16.1094    2.2116   -4.1261 H   0  0  0  0  0  0  0  0  0  0  0  0
   15.7369    1.5592   -2.1053 C   0  0  0  0  0  0  0  0  0  0  0  0
   15.8240    0.1311   -2.4198 C   0  0  0  0  0  0  0  0  0  0  0  0
   16.3549   -0.2976   -3.6417 C   0  0  0  0  0  0  0  0  0  0  0  0
   16.7081    0.4255   -4.3708 H   0  0  0  0  0  0  0  0  0  0  0  0
   16.4477   -1.6596   -3.9304 C   0  0  0  0  0  0  0  0  0  0  0  0
   16.8487   -1.9780   -4.8848 H   0  0  0  0  0  0  0  0  0  0  0  0
   16.0017   -2.6055   -3.0013 C   0  0  0  0  0  0  0  0  0  0  0  0
   16.0525   -3.6626   -3.2410 H   0  0  0  0  0  0  0  0  0  0  0  0
   15.4645   -2.2027   -1.7705 C   0  0  0  0  0  0  0  0  0  0  0  0
   14.9096   -3.1961   -0.7628 C   0  0  2  0  0  0  0  0  0  0  0  0
   15.2479   -4.6540   -1.0483 C   0  0  0  0  0  0  0  0  0  0  0  0
   16.4544   -5.2042   -0.5895 C   0  0  0  0  0  0  0  0  0  0  0  0
   17.1653   -4.5776   -0.0561 H   0  0  0  0  0  0  0  0  0  0  0  0
   16.7519   -6.5540   -0.7976 C   0  0  0  0  0  0  0  0  0  0  0  0
   17.6856   -6.9575   -0.4207 H   0  0  0  0  0  0  0  0  0  0  0  0
   15.8462   -7.3728   -1.4788 C   0  0  0  0  0  0  0  0  0  0  0  0
   16.0826   -8.4197   -1.6424 H   0  0  0  0  0  0  0  0  0  0  0  0
   14.6435   -6.8421   -1.9498 C   0  0  0  0  0  0  0  0  0  0  0  0
   13.9430   -7.4753   -2.4869 H   0  0  0  0  0  0  0  0  0  0  0  0
   14.3459   -5.4901   -1.7403 C   0  0  0  0  0  0  0  0  0  0  0  0
   13.4016   -5.1002   -2.1070 H   0  0  0  0  0  0  0  0  0  0  0  0
   13.3923   -2.9865   -0.6386 C   0  0  0  0  0  0  0  0  0  0  0  0
   12.5770   -3.1211   -1.5547 O   0  0  0  0  0  0  0  0  0  0  0  0
   13.0620   -2.7313    0.6881 N   0  0  0  0  0  0  0  0  0  0  0  0
   11.7213   -2.4292    1.2017 O   0  0  0  0  0  0  0  0  0  0  0  0
   10.8088   -3.7005    1.8770 S   0  0  0  0  0  0  0  0  0  0  0  0
   10.1869   -4.6121    0.9109 O   0  0  0  0  0  0  0  0  0  0  0  0
   11.4064   -4.3592    3.0383 O   0  0  0  0  0  0  0  0  0  0  0  0
    9.5633   -2.9141    2.6026 N   0  0  0  0  0  0  0  0  0  0  0  0
    9.0057   -3.6635    2.9809 H   0  0  0  0  0  0  0  0  0  0  0  0
   10.0138   -2.4122    3.3493 H   0  0  0  0  0  0  0  0  0  0  0  0
   14.2872   -2.5539    1.3534 C   0  0  0  0  0  0  0  0  0  0  0  0
   14.5169   -2.1760    2.6569 N   0  0  0  0  0  0  0  0  0  0  0  0
   13.7310   -2.1036    3.2959 H   0  0  0  0  0  0  0  0  0  0  0  0
   15.4532   -2.3210    3.0367 H   0  0  0  0  0  0  0  0  0  0  0  0
   15.3113   -2.8450    0.6181 N   0  0  0  0  0  4  0  0  0  0  0  0
   16.2550   -2.9899    0.9927 H   0  0  0  0  0  0  0  0  0  0  0  0
   15.3767   -0.8275   -1.4997 C   0  0  0  0  0  0  0  0  0  0  0  0
   14.9321   -0.4978   -0.5648 H   0  0  0  0  0  0  0  0  0  0  0  0
   15.4874    1.9916   -0.8004 C   0  0  0  0  0  0  0  0  0  0  0  0
   15.3766    1.2848    0.0177 H   0  0  0  0  0  0  0  0  0  0  0  0
   15.4113    3.3585   -0.5599 C   0  0  0  0  0  0  0  0  0  0  0  0
   15.2208    3.7228    0.4427 H   0  0  0  0  0  0  0  0  0  0  0  0
  1  2  1  0
  2  3  2  0
  3  4  1  0
  4  5  1  0
  4  6  2  0
  6  7  1  0
  7  8  2  0
  8  9  1  0
  8 10  1  0
 10 11  1  0
 10 12  2  0
 12 13  1  0
 12 14  1  0
 15 14  1  6
 15 16  1  0
 16 17  2  0
 17 18  1  0
 17 19  1  0
 19 20  1  0
 19 21  2  0
 21 22  1  0
 21 23  1  0
 23 24  1  0
 23 25  2  0
 25 26  1  0
 15 27  1  0
 27 28  2  0
 27 29  1  0
 29 30  1  0
 30 31  1  0
 31 32  2  0
 31 33  2  0
 31 34  1  0
 34 35  1  0
 34 36  1  0
 29 37  1  0
 37 38  1  0
 38 39  1  0
 38 40  1  0
 37 41  2  0
 41 42  1  0
 14 43  2  0
 43 44  1  0
  6 45  1  0
 45 46  1  0
 45 47  2  0
 47 48  1  0
 47  2  1  0
 43  7  1  0
 41 15  1  0
 25 16  1  0
M  CHG  1  41   1
M  END
>  <score>  (467) 
5.258

$$$$

     RDKit          3D

 52 56  0  0  0  0  0  0  0  0999 V2000
   15.5226    5.3145   -1.4254 H   0  0  0  0  0  0  0  0  0  0  0  0
   15.5971    4.2473   -1.6121 C   0  0  0  0  0  0  0  0  0  0  0  0
   15.8462    3.8249   -2.8611 N   0  0  0  0  0  0  0  0  0  0  0  0
   15.9259    2.4997   -3.0812 C   0  0  0  0  0  0  0  0  0  0  0  0
   16.1235    2.1599   -4.0931 H   0  0  0  0  0  0  0  0  0  0  0  0
   15.7523    1.5371   -2.0724 C   0  0  0  0  0  0  0  0  0  0  0  0
   15.8170    0.0964   -2.3752 C   0  0  0  0  0  0  0  0  0  0  0  0
   16.3363   -0.3512   -3.5964 C   0  0  0  0  0  0  0  0  0  0  0  0
   16.6929    0.3751   -4.3208 H   0  0  0  0  0  0  0  0  0  0  0  0
   16.4087   -1.7187   -3.8801 C   0  0  0  0  0  0  0  0  0  0  0  0
   16.8212   -2.0499   -4.8276 H   0  0  0  0  0  0  0  0  0  0  0  0
   15.9471   -2.6529   -2.9462 C   0  0  0  0  0  0  0  0  0  0  0  0
   16.0008   -3.7134   -3.1730 H   0  0  0  0  0  0  0  0  0  0  0  0
   15.4097   -2.2372   -1.7200 C   0  0  0  0  0  0  0  0  0  0  0  0
   14.8400   -3.2404   -0.7274 C   0  0  2  0  0  0  0  0  0  0  0  0
   15.2287   -4.6772   -1.0128 C   0  0  0  0  0  0  0  0  0  0  0  0
   16.4476   -5.1958   -0.5607 C   0  0  0  0  0  0  0  0  0  0  0  0
   17.1344   -4.5554   -0.0133 H   0  0  0  0  0  0  0  0  0  0  0  0
   16.7761   -6.5353   -0.7922 C   0  0  0  0  0  0  0  0  0  0  0  0
   17.7184   -6.9294   -0.4257 H   0  0  0  0  0  0  0  0  0  0  0  0
   15.8869   -7.3644   -1.4877 C   0  0  0  0  0  0  0  0  0  0  0  0
   16.1356   -8.4061   -1.6612 H   0  0  0  0  0  0  0  0  0  0  0  0
   14.6794   -6.8514   -1.9674 C   0  0  0  0  0  0  0  0  0  0  0  0
   13.9860   -7.4855   -2.5143 H   0  0  0  0  0  0  0  0  0  0  0  0
   14.3569   -5.5132   -1.7349 C   0  0  0  0  0  0  0  0  0  0  0  0
   13.4132   -5.1254   -2.1036 H   0  0  0  0  0  0  0  0  0  0  0  0
   13.3155   -3.0975   -0.6681 C   0  0  0  0  0  0  0  0  0  0  0  0
   12.5342   -3.3032   -1.6026 O   0  0  0  0  0  0  0  0  0  0  0  0
   12.9282   -2.6521    0.5880 N   0  0  0  0  0  0  0  0  0  0  0  0
   11.6181   -2.1634    0.9063 C   0  0  0  0  0  0  0  0  0  0  0  0
   10.5723   -2.9986    1.3249 C   0  0  0  0  0  0  0  0  0  0  0  0
   10.7558   -4.0639    1.4161 H   0  0  0  0  0  0  0  0  0  0  0  0
    9.3627   -2.5363    1.6141 N   0  0  0  0  0  0  0  0  0  0  0  0
    9.2061   -1.2777    1.3448 C   0  0  0  0  0  0  0  0  0  0  0  0
    8.2931   -0.6832    2.0401 N   0  0  0  0  0  0  0  0  0  0  0  0
    8.7054    0.2385    2.1040 H   0  0  0  0  0  0  0  0  0  0  0  0
    8.2501   -1.2073    2.9029 H   0  0  0  0  0  0  0  0  0  0  0  0
   10.0528   -0.3704    0.9464 N   0  0  0  0  0  0  0  0  0  0  0  0
   11.2821   -0.8162    0.7475 C   0  0  0  0  0  0  0  0  0  0  0  0
   12.0513   -0.1088    0.4465 H   0  0  0  0  0  0  0  0  0  0  0  0
   14.1144   -2.5153    1.3248 C   0  0  0  0  0  0  0  0  0  0  0  0
   14.3011   -2.1110    2.6207 N   0  0  0  0  0  0  0  0  0  0  0  0
   15.2238   -2.2957    3.0242 H   0  0  0  0  0  0  0  0  0  0  0  0
   13.4915   -2.0987    3.2366 H   0  0  0  0  0  0  0  0  0  0  0  0
   15.1668   -2.8673    0.6596 N   0  0  0  0  0  4  0  0  0  0  0  0
   16.1124   -2.9002    1.0474 H   0  0  0  0  0  0  0  0  0  0  0  0
   15.3483   -0.8558   -1.4543 C   0  0  0  0  0  0  0  0  0  0  0  0
   14.9209   -0.5092   -0.5190 H   0  0  0  0  0  0  0  0  0  0  0  0
   15.5169    1.9874   -0.7722 C   0  0  0  0  0  0  0  0  0  0  0  0
   15.4151    1.2731    0.0399 H   0  0  0  0  0  0  0  0  0  0  0  0
   15.4338    3.3596   -0.5458 C   0  0  0  0  0  0  0  0  0  0  0  0
   15.2456    3.7437    0.4494 H   0  0  0  0  0  0  0  0  0  0  0  0
  1  2  1  0
  2  3  2  0
  3  4  1  0
  4  5  1  0
  4  6  2  0
  6  7  1  0
  7  8  2  0
  8  9  1  0
  8 10  1  0
 10 11  1  0
 10 12  2  0
 12 13  1  0
 12 14  1  0
 15 14  1  6
 15 16  1  0
 16 17  2  0
 17 18  1  0
 17 19  1  0
 19 20  1  0
 19 21  2  0
 21 22  1  0
 21 23  1  0
 23 24  1  0
 23 25  2  0
 25 26  1  0
 15 27  1  0
 27 28  2  0
 27 29  1  0
 29 30  1  0
 30 31  2  0
 31 32  1  0
 31 33  1  0
 33 34  2  0
 34 35  1  0
 35 36  1  0
 35 37  1  0
 34 38  1  0
 38 39  2  0
 39 40  1  0
 29 41  1  0
 41 42  1  0
 42 43  1  0
 42 44  1  0
 41 45  2  0
 45 46  1  0
 14 47  2  0
 47 48  1  0
  6 49  1  0
 49 50  1  0
 49 51  2  0
 51 52  1  0
 51  2  1  0
 47  7  1  0
 45 15  1  0
 25 16  1  0
 39 30  1  0
M  CHG  1  45   1
M  END
>  <score>  (468) 
5.25733

$$$$

     RDKit          3D

 54 58  0  0  0  0  0  0  0  0999 V2000
   15.5566    5.3555   -1.3927 H   0  0  0  0  0  0  0  0  0  0  0  0
   15.5861    4.2888   -1.6038 C   0  0  0  0  0  0  0  0  0  0  0  0
   15.8208    3.8700   -2.8579 N   0  0  0  0  0  0  0  0  0  0  0  0
   15.8762    2.5430   -3.0923 C   0  0  0  0  0  0  0  0  0  0  0  0
   16.0674    2.2034   -4.1042 H   0  0  0  0  0  0  0  0  0  0  0  0
   15.6929    1.5675   -2.0973 C   0  0  0  0  0  0  0  0  0  0  0  0
   15.7707    0.1201   -2.4071 C   0  0  0  0  0  0  0  0  0  0  0  0
   16.3312   -0.3171   -3.6110 C   0  0  0  0  0  0  0  0  0  0  0  0
   16.7128    0.4251   -4.3032 H   0  0  0  0  0  0  0  0  0  0  0  0
   16.4221   -1.6850   -3.9069 C   0  0  0  0  0  0  0  0  0  0  0  0
   16.8629   -2.0044   -4.8444 H   0  0  0  0  0  0  0  0  0  0  0  0
   15.9426   -2.6378   -3.0002 C   0  0  0  0  0  0  0  0  0  0  0  0
   16.0008   -3.6959   -3.2406 H   0  0  0  0  0  0  0  0  0  0  0  0
   15.3870   -2.2360   -1.7758 C   0  0  0  0  0  0  0  0  0  0  0  0
   14.8431   -3.2549   -0.7736 C   0  0  2  0  0  0  0  0  0  0  0  0
   15.1932   -4.7118   -1.0771 C   0  0  0  0  0  0  0  0  0  0  0  0
   16.4060   -5.2343   -0.6079 C   0  0  0  0  0  0  0  0  0  0  0  0
   17.0748   -4.5792   -0.0585 H   0  0  0  0  0  0  0  0  0  0  0  0
   16.7391   -6.5772   -0.8047 C   0  0  0  0  0  0  0  0  0  0  0  0
   17.6750   -6.9610   -0.4118 H   0  0  0  0  0  0  0  0  0  0  0  0
   15.8582   -7.4263   -1.4802 C   0  0  0  0  0  0  0  0  0  0  0  0
   16.1088   -8.4741   -1.6145 H   0  0  0  0  0  0  0  0  0  0  0  0
   14.6463   -6.9241   -1.9664 C   0  0  0  0  0  0  0  0  0  0  0  0
   13.9638   -7.5897   -2.4880 H   0  0  0  0  0  0  0  0  0  0  0  0
   14.3151   -5.5738   -1.7680 C   0  0  0  0  0  0  0  0  0  0  0  0
   13.3611   -5.2021   -2.1325 H   0  0  0  0  0  0  0  0  0  0  0  0
   13.3304   -3.0563   -0.6106 C   0  0  0  0  0  0  0  0  0  0  0  0
   12.5024   -3.1208   -1.5207 O   0  0  0  0  0  0  0  0  0  0  0  0
   13.0520   -2.6794    0.6950 N   0  0  0  0  0  0  0  0  0  0  0  0
   11.8006   -2.1344    1.1523 N   0  0  0  0  0  0  0  0  0  0  0  0
   11.4325   -0.8405    0.5465 C   0  0  0  0  0  0  0  0  0  0  0  0
   11.3052   -0.0751    1.3155 H   0  0  0  0  0  0  0  0  0  0  0  0
   12.2007   -0.4773   -0.1499 H   0  0  0  0  0  0  0  0  0  0  0  0
   10.1187   -1.1141   -0.1793 C   0  0  0  0  0  0  0  0  0  0  0  0
    9.4574   -0.2384   -0.1822 H   0  0  0  0  0  0  0  0  0  0  0  0
   10.3436   -1.3875   -1.2174 H   0  0  0  0  0  0  0  0  0  0  0  0
    9.4948   -2.3046    0.5560 C   0  0  0  0  0  0  0  0  0  0  0  0
    8.8996   -2.9309   -0.1206 H   0  0  0  0  0  0  0  0  0  0  0  0
    8.8500   -1.9535    1.3702 H   0  0  0  0  0  0  0  0  0  0  0  0
   10.6771   -3.0857    1.1290 C   0  0  0  0  0  0  0  0  0  0  0  0
   10.4660   -3.4709    2.1336 H   0  0  0  0  0  0  0  0  0  0  0  0
   10.9117   -3.9425    0.4826 H   0  0  0  0  0  0  0  0  0  0  0  0
   14.2621   -2.6246    1.3697 C   0  0  0  0  0  0  0  0  0  0  0  0
   14.4339   -2.3007    2.6886 N   0  0  0  0  0  0  0  0  0  0  0  0
   15.3684   -2.3426    3.1036 H   0  0  0  0  0  0  0  0  0  0  0  0
   13.6191   -2.1359    3.2770 H   0  0  0  0  0  0  0  0  0  0  0  0
   15.2649   -2.9207    0.6067 N   0  0  0  0  0  4  0  0  0  0  0  0
   16.2370   -2.9510    0.9272 H   0  0  0  0  0  0  0  0  0  0  0  0
   15.3042   -0.8509   -1.5024 C   0  0  0  0  0  0  0  0  0  0  0  0
   14.8700   -0.5114   -0.5681 H   0  0  0  0  0  0  0  0  0  0  0  0
   15.4450    2.0124   -0.7995 C   0  0  0  0  0  0  0  0  0  0  0  0
   15.3308    1.2781   -0.0096 H   0  0  0  0  0  0  0  0  0  0  0  0
   15.3821    3.3882   -0.5552 C   0  0  0  0  0  0  0  0  0  0  0  0
   15.1784    3.7753    0.4364 H   0  0  0  0  0  0  0  0  0  0  0  0
  1  2  1  0
  2  3  2  0
  3  4  1  0
  4  5  1  0
  4  6  2  0
  6  7  1  0
  7  8  2  0
  8  9  1  0
  8 10  1  0
 10 11  1  0
 10 12  2  0
 12 13  1  0
 12 14  1  0
 15 14  1  6
 15 16  1  0
 16 17  2  0
 17 18  1  0
 17 19  1  0
 19 20  1  0
 19 21  2  0
 21 22  1  0
 21 23  1  0
 23 24  1  0
 23 25  2  0
 25 26  1  0
 15 27  1  0
 27 28  2  0
 27 29  1  0
 29 30  1  0
 30 31  1  0
 31 32  1  0
 31 33  1  0
 31 34  1  0
 34 35  1  0
 34 36  1  0
 34 37  1  0
 37 38  1  0
 37 39  1  0
 37 40  1  0
 40 41  1  0
 40 42  1  0
 29 43  1  0
 43 44  1  0
 44 45  1  0
 44 46  1  0
 43 47  2  0
 47 48  1  0
 14 49  2  0
 49 50  1  0
  6 51  1  0
 51 52  1  0
 51 53  2  0
 53 54  1  0
 53  2  1  0
 49  7  1  0
 47 15  1  0
 25 16  1  0
 40 30  1  0
M  CHG  1  47   1
M  END
>  <score>  (469) 
5.25607

$$$$

     RDKit          3D

 52 56  0  0  0  0  0  0  0  0999 V2000
   15.5692    5.3721   -1.3870 H   0  0  0  0  0  0  0  0  0  0  0  0
   15.5829    4.3032   -1.5955 C   0  0  0  0  0  0  0  0  0  0  0  0
   15.8196    3.8811   -2.8476 N   0  0  0  0  0  0  0  0  0  0  0  0
   15.8635    2.5529   -3.0880 C   0  0  0  0  0  0  0  0  0  0  0  0
   16.0476    2.2211   -4.1050 H   0  0  0  0  0  0  0  0  0  0  0  0
   15.6867    1.5714   -2.0962 C   0  0  0  0  0  0  0  0  0  0  0  0
   15.7701    0.1184   -2.4109 C   0  0  0  0  0  0  0  0  0  0  0  0
   16.3493   -0.3218   -3.6098 C   0  0  0  0  0  0  0  0  0  0  0  0
   16.7232    0.4104   -4.3195 H   0  0  0  0  0  0  0  0  0  0  0  0
   16.4319   -1.6903   -3.9068 C   0  0  0  0  0  0  0  0  0  0  0  0
   16.8642   -2.0076   -4.8517 H   0  0  0  0  0  0  0  0  0  0  0  0
   15.9435   -2.6452   -3.0024 C   0  0  0  0  0  0  0  0  0  0  0  0
   16.0031   -3.7011   -3.2556 H   0  0  0  0  0  0  0  0  0  0  0  0
   15.3767   -2.2437   -1.7795 C   0  0  0  0  0  0  0  0  0  0  0  0
   14.8036   -3.2466   -0.7775 C   0  0  2  0  0  0  0  0  0  0  0  0
   15.1675   -4.7119   -1.0696 C   0  0  0  0  0  0  0  0  0  0  0  0
   16.3897   -5.2347   -0.6113 C   0  0  0  0  0  0  0  0  0  0  0  0
   17.0650   -4.5849   -0.0627 H   0  0  0  0  0  0  0  0  0  0  0  0
   16.7283   -6.5802   -0.8035 C   0  0  0  0  0  0  0  0  0  0  0  0
   17.6712   -6.9557   -0.4169 H   0  0  0  0  0  0  0  0  0  0  0  0
   15.8531   -7.4388   -1.4731 C   0  0  0  0  0  0  0  0  0  0  0  0
   16.1204   -8.4850   -1.6115 H   0  0  0  0  0  0  0  0  0  0  0  0
   14.6428   -6.9364   -1.9620 C   0  0  0  0  0  0  0  0  0  0  0  0
   13.9727   -7.6108   -2.4879 H   0  0  0  0  0  0  0  0  0  0  0  0
   14.3019   -5.5852   -1.7656 C   0  0  0  0  0  0  0  0  0  0  0  0
   13.3520   -5.2300   -2.1545 H   0  0  0  0  0  0  0  0  0  0  0  0
   13.2916   -3.0095   -0.5986 C   0  0  0  0  0  0  0  0  0  0  0  0
   12.4397   -3.1007   -1.4795 O   0  0  0  0  0  0  0  0  0  0  0  0
   13.0029   -2.7001    0.7170 N   0  0  0  0  0  0  0  0  0  0  0  0
   11.7274   -2.4650    1.2652 C   0  0  0  0  0  0  0  0  0  0  0  0
   11.3025   -3.2470    2.3470 C   0  0  0  0  0  0  0  0  0  0  0  0
   11.9691   -4.0057    2.7481 H   0  0  0  0  0  0  0  0  0  0  0  0
   10.0255   -3.0759    2.8970 C   0  0  0  0  0  0  0  0  0  0  0  0
    9.6996   -3.6977    3.7244 H   0  0  0  0  0  0  0  0  0  0  0  0
    9.1612   -2.1063    2.3813 C   0  0  0  0  0  0  0  0  0  0  0  0
    8.1741   -1.9695    2.8170 H   0  0  0  0  0  0  0  0  0  0  0  0
    9.5871   -1.3078    1.3133 C   0  0  0  0  0  0  0  0  0  0  0  0
    8.9433   -0.5357    0.9080 H   0  0  0  0  0  0  0  0  0  0  0  0
   10.8580   -1.4780    0.7502 C   0  0  0  0  0  0  0  0  0  0  0  0
   11.2320   -0.6705   -0.2734 F   0  0  0  0  0  0  0  0  0  0  0  0
   14.2089   -2.6600    1.3818 C   0  0  0  0  0  0  0  0  0  0  0  0
   14.3989   -2.3520    2.6990 N   0  0  0  0  0  0  0  0  0  0  0  0
   13.5989   -2.0599    3.2575 H   0  0  0  0  0  0  0  0  0  0  0  0
   15.3390   -2.3690    3.0969 H   0  0  0  0  0  0  0  0  0  0  0  0
   15.2085   -2.9101    0.6019 N   0  0  0  0  0  4  0  0  0  0  0  0
   16.1799   -2.9113    0.9061 H   0  0  0  0  0  0  0  0  0  0  0  0
   15.2940   -0.8585   -1.5154 C   0  0  0  0  0  0  0  0  0  0  0  0
   14.8693   -0.5246   -0.5759 H   0  0  0  0  0  0  0  0  0  0  0  0
   15.4385    2.0253   -0.7977 C   0  0  0  0  0  0  0  0  0  0  0  0
   15.2996    1.3064    0.0005 H   0  0  0  0  0  0  0  0  0  0  0  0
   15.3729    3.4010   -0.5521 C   0  0  0  0  0  0  0  0  0  0  0  0
   15.1678    3.7853    0.4400 H   0  0  0  0  0  0  0  0  0  0  0  0
  1  2  1  0
  2  3  2  0
  3  4  1  0
  4  5  1  0
  4  6  2  0
  6  7  1  0
  7  8  2  0
  8  9  1  0
  8 10  1  0
 10 11  1  0
 10 12  2  0
 12 13  1  0
 12 14  1  0
 15 14  1  6
 15 16  1  0
 16 17  2  0
 17 18  1  0
 17 19  1  0
 19 20  1  0
 19 21  2  0
 21 22  1  0
 21 23  1  0
 23 24  1  0
 23 25  2  0
 25 26  1  0
 15 27  1  0
 27 28  2  0
 27 29  1  0
 29 30  1  0
 30 31  2  0
 31 32  1  0
 31 33  1  0
 33 34  1  0
 33 35  2  0
 35 36  1  0
 35 37  1  0
 37 38  1  0
 37 39  2  0
 39 40  1  0
 29 41  1  0
 41 42  1  0
 42 43  1  0
 42 44  1  0
 41 45  2  0
 45 46  1  0
 14 47  2  0
 47 48  1  0
  6 49  1  0
 49 50  1  0
 49 51  2  0
 51 52  1  0
 51  2  1  0
 47  7  1  0
 45 15  1  0
 25 16  1  0
 39 30  1  0
M  CHG  1  45   1
M  END
>  <score>  (470) 
5.25572

$$$$

     RDKit          3D

 52 56  0  0  0  0  0  0  0  0999 V2000
   15.5267    5.3204   -1.4187 H   0  0  0  0  0  0  0  0  0  0  0  0
   15.5858    4.2545   -1.6171 C   0  0  0  0  0  0  0  0  0  0  0  0
   15.8430    3.8441   -2.8687 N   0  0  0  0  0  0  0  0  0  0  0  0
   15.9051    2.5212   -3.0999 C   0  0  0  0  0  0  0  0  0  0  0  0
   16.1010    2.1989   -4.1174 H   0  0  0  0  0  0  0  0  0  0  0  0
   15.7125    1.5535   -2.0986 C   0  0  0  0  0  0  0  0  0  0  0  0
   15.7815    0.1200   -2.3963 C   0  0  0  0  0  0  0  0  0  0  0  0
   16.3254   -0.3155   -3.6083 C   0  0  0  0  0  0  0  0  0  0  0  0
   16.7030    0.4130   -4.3183 H   0  0  0  0  0  0  0  0  0  0  0  0
   16.4110   -1.6771   -3.8967 C   0  0  0  0  0  0  0  0  0  0  0  0
   16.8499   -2.0004   -4.8339 H   0  0  0  0  0  0  0  0  0  0  0  0
   15.9405   -2.6178   -2.9773 C   0  0  0  0  0  0  0  0  0  0  0  0
   15.9955   -3.6761   -3.2082 H   0  0  0  0  0  0  0  0  0  0  0  0
   15.3987   -2.2127   -1.7521 C   0  0  0  0  0  0  0  0  0  0  0  0
   14.8517   -3.2234   -0.7593 C   0  0  2  0  0  0  0  0  0  0  0  0
   15.2031   -4.6768   -1.0590 C   0  0  0  0  0  0  0  0  0  0  0  0
   16.4163   -5.2066   -0.5956 C   0  0  0  0  0  0  0  0  0  0  0  0
   17.1009   -4.5610   -0.0525 H   0  0  0  0  0  0  0  0  0  0  0  0
   16.7399   -6.5483   -0.8012 C   0  0  0  0  0  0  0  0  0  0  0  0
   17.6777   -6.9342   -0.4131 H   0  0  0  0  0  0  0  0  0  0  0  0
   15.8486   -7.3824   -1.4822 C   0  0  0  0  0  0  0  0  0  0  0  0
   16.0992   -8.4273   -1.6346 H   0  0  0  0  0  0  0  0  0  0  0  0
   14.6392   -6.8689   -1.9643 C   0  0  0  0  0  0  0  0  0  0  0  0
   13.9481   -7.5191   -2.4931 H   0  0  0  0  0  0  0  0  0  0  0  0
   14.3159   -5.5221   -1.7533 C   0  0  0  0  0  0  0  0  0  0  0  0
   13.3609   -5.1440   -2.1092 H   0  0  0  0  0  0  0  0  0  0  0  0
   13.3371   -3.0048   -0.6171 C   0  0  0  0  0  0  0  0  0  0  0  0
   12.4826   -3.1606   -1.4914 O   0  0  0  0  0  0  0  0  0  0  0  0
   13.0879   -2.6386    0.6860 N   0  0  0  0  0  0  0  0  0  0  0  0
   11.8356   -2.4738    1.2442 C   0  0  0  0  0  0  0  0  0  0  0  0
   11.5088   -3.1979    2.3742 C   0  0  0  0  0  0  0  0  0  0  0  0
   12.2549   -3.8502    2.7972 H   0  0  0  0  0  0  0  0  0  0  0  0
   10.2323   -3.1313    2.9101 C   0  0  0  0  0  0  0  0  0  0  0  0
    9.9826   -3.7330    3.7791 H   0  0  0  0  0  0  0  0  0  0  0  0
    9.2705   -2.3316    2.2968 C   0  0  0  0  0  0  0  0  0  0  0  0
    7.5005   -2.5343    2.9395 Br  0  0  0  0  0  0  0  0  0  0  0  0
    9.6213   -1.5035    1.2101 C   0  0  0  0  0  0  0  0  0  0  0  0
    8.9265   -0.8058    0.7466 H   0  0  0  0  0  0  0  0  0  0  0  0
   10.9113   -1.6128    0.6762 C   0  0  0  0  0  0  0  0  0  0  0  0
   11.2345   -1.0488   -0.1868 H   0  0  0  0  0  0  0  0  0  0  0  0
   14.2754   -2.6532    1.3864 C   0  0  0  0  0  0  0  0  0  0  0  0
   14.4287   -2.4343    2.7324 N   0  0  0  0  0  0  0  0  0  0  0  0
   13.6344   -2.0615    3.2523 H   0  0  0  0  0  0  0  0  0  0  0  0
   15.3739   -2.2701    3.0838 H   0  0  0  0  0  0  0  0  0  0  0  0
   15.2823   -2.9043    0.6201 N   0  0  0  0  0  4  0  0  0  0  0  0
   16.2423   -3.0189    0.9595 H   0  0  0  0  0  0  0  0  0  0  0  0
   15.3133   -0.8352   -1.4787 C   0  0  0  0  0  0  0  0  0  0  0  0
   14.8592   -0.5002   -0.5486 H   0  0  0  0  0  0  0  0  0  0  0  0
   15.4740    1.9912   -0.7968 C   0  0  0  0  0  0  0  0  0  0  0  0
   15.3688    1.2757    0.0137 H   0  0  0  0  0  0  0  0  0  0  0  0
   15.4020    3.3600   -0.5582 C   0  0  0  0  0  0  0  0  0  0  0  0
   15.2134    3.7348    0.4421 H   0  0  0  0  0  0  0  0  0  0  0  0
  1  2  1  0
  2  3  2  0
  3  4  1  0
  4  5  1  0
  4  6  2  0
  6  7  1  0
  7  8  2  0
  8  9  1  0
  8 10  1  0
 10 11  1  0
 10 12  2  0
 12 13  1  0
 12 14  1  0
 15 14  1  6
 15 16  1  0
 16 17  2  0
 17 18  1  0
 17 19  1  0
 19 20  1  0
 19 21  2  0
 21 22  1  0
 21 23  1  0
 23 24  1  0
 23 25  2  0
 25 26  1  0
 15 27  1  0
 27 28  2  0
 27 29  1  0
 29 30  1  0
 30 31  2  0
 31 32  1  0
 31 33  1  0
 33 34  1  0
 33 35  2  0
 35 36  1  0
 35 37  1  0
 37 38  1  0
 37 39  2  0
 39 40  1  0
 29 41  1  0
 41 42  1  0
 42 43  1  0
 42 44  1  0
 41 45  2  0
 45 46  1  0
 14 47  2  0
 47 48  1  0
  6 49  1  0
 49 50  1  0
 49 51  2  0
 51 52  1  0
 51  2  1  0
 47  7  1  0
 45 15  1  0
 25 16  1  0
 39 30  1  0
M  CHG  1  45   1
M  END
>  <score>  (471) 
5.25054

$$$$

     RDKit          3D

 58 63  0  0  0  0  0  0  0  0999 V2000
   15.5233    5.3321   -1.4066 H   0  0  0  0  0  0  0  0  0  0  0  0
   15.5939    4.2672   -1.6088 C   0  0  0  0  0  0  0  0  0  0  0  0
   15.8396    3.8626   -2.8638 N   0  0  0  0  0  0  0  0  0  0  0  0
   15.9315    2.5406   -3.1010 C   0  0  0  0  0  0  0  0  0  0  0  0
   16.1250    2.2121   -4.1170 H   0  0  0  0  0  0  0  0  0  0  0  0
   15.7782    1.5626   -2.1065 C   0  0  0  0  0  0  0  0  0  0  0  0
   15.8865    0.1287   -2.4380 C   0  0  0  0  0  0  0  0  0  0  0  0
   16.3859   -0.2990   -3.6774 C   0  0  0  0  0  0  0  0  0  0  0  0
   16.7097    0.4368   -4.4052 H   0  0  0  0  0  0  0  0  0  0  0  0
   16.4786   -1.6631   -3.9834 C   0  0  0  0  0  0  0  0  0  0  0  0
   16.8588   -1.9743   -4.9509 H   0  0  0  0  0  0  0  0  0  0  0  0
   16.0746   -2.6223   -3.0496 C   0  0  0  0  0  0  0  0  0  0  0  0
   16.1284   -3.6806   -3.2896 H   0  0  0  0  0  0  0  0  0  0  0  0
   15.5728   -2.2191   -1.8061 C   0  0  0  0  0  0  0  0  0  0  0  0
   15.0043   -3.2027   -0.8104 C   0  0  2  0  0  0  0  0  0  0  0  0
   15.3279   -4.6643   -1.0748 C   0  0  0  0  0  0  0  0  0  0  0  0
   16.5272   -5.2320   -0.6123 C   0  0  0  0  0  0  0  0  0  0  0  0
   17.2410   -4.6139   -0.0741 H   0  0  0  0  0  0  0  0  0  0  0  0
   16.8005   -6.5889   -0.8164 C   0  0  0  0  0  0  0  0  0  0  0  0
   17.7271   -7.0154   -0.4391 H   0  0  0  0  0  0  0  0  0  0  0  0
   15.8783   -7.3938   -1.4949 C   0  0  0  0  0  0  0  0  0  0  0  0
   16.0828   -8.4480   -1.6527 H   0  0  0  0  0  0  0  0  0  0  0  0
   14.6835   -6.8387   -1.9672 C   0  0  0  0  0  0  0  0  0  0  0  0
   13.9579   -7.4558   -2.4885 H   0  0  0  0  0  0  0  0  0  0  0  0
   14.4146   -5.4836   -1.7598 C   0  0  0  0  0  0  0  0  0  0  0  0
   13.4792   -5.0686   -2.1226 H   0  0  0  0  0  0  0  0  0  0  0  0
   13.4968   -2.9200   -0.7405 C   0  0  0  0  0  0  0  0  0  0  0  0
   12.6439   -3.2014   -1.5897 O   0  0  0  0  0  0  0  0  0  0  0  0
   13.2085   -2.3521    0.4745 N   0  0  0  0  0  0  0  0  0  0  0  0
   11.9496   -2.4603    1.0302 C   0  0  0  0  0  0  0  0  0  0  0  0
   10.9472   -1.5203    0.7889 C   0  0  0  0  0  0  0  0  0  0  0  0
   11.1573   -0.6670    0.1512 H   0  0  0  0  0  0  0  0  0  0  0  0
    9.7305   -1.6324    1.4708 C   0  0  0  0  0  0  0  0  0  0  0  0
    8.9607   -0.8785    1.3528 H   0  0  0  0  0  0  0  0  0  0  0  0
    9.5341   -2.6658    2.3962 C   0  0  0  0  0  0  0  0  0  0  0  0
   10.5400   -3.6476    2.5826 C   0  0  0  0  0  0  0  0  0  0  0  0
   11.7310   -3.5380    1.8802 C   0  0  0  0  0  0  0  0  0  0  0  0
   12.5136   -4.2796    2.0383 H   0  0  0  0  0  0  0  0  0  0  0  0
   10.4161   -4.6916    3.4704 O   0  0  0  0  0  0  0  0  0  0  0  0
    9.1096   -4.8366    4.0484 C   0  0  0  0  0  0  0  0  0  0  0  0
    9.1699   -5.4073    4.9822 H   0  0  0  0  0  0  0  0  0  0  0  0
    8.4829   -5.3967    3.3500 H   0  0  0  0  0  0  0  0  0  0  0  0
    8.4802   -3.4695    4.3414 C   0  0  0  0  0  0  0  0  0  0  0  0
    9.1103   -2.9449    5.0684 H   0  0  0  0  0  0  0  0  0  0  0  0
    7.4828   -3.5997    4.7754 H   0  0  0  0  0  0  0  0  0  0  0  0
    8.3838   -2.6678    3.1495 O   0  0  0  0  0  0  0  0  0  0  0  0
   14.3512   -2.4830    1.2446 C   0  0  0  0  0  0  0  0  0  0  0  0
   14.4508   -2.3655    2.6039 N   0  0  0  0  0  0  0  0  0  0  0  0
   15.3835   -2.3026    3.0070 H   0  0  0  0  0  0  0  0  0  0  0  0
   13.6485   -2.0142    3.1279 H   0  0  0  0  0  0  0  0  0  0  0  0
   15.3858   -2.8462    0.5700 N   0  0  0  0  0  4  0  0  0  0  0  0
   16.2523   -3.1594    1.0127 H   0  0  0  0  0  0  0  0  0  0  0  0
   15.4760   -0.8457   -1.5235 C   0  0  0  0  0  0  0  0  0  0  0  0
   15.0442   -0.5270   -0.5789 H   0  0  0  0  0  0  0  0  0  0  0  0
   15.5239    1.9943   -0.8004 C   0  0  0  0  0  0  0  0  0  0  0  0
   15.4155    1.2742    0.0062 H   0  0  0  0  0  0  0  0  0  0  0  0
   15.4309    3.3641   -0.5561 C   0  0  0  0  0  0  0  0  0  0  0  0
   15.2379    3.7374    0.4423 H   0  0  0  0  0  0  0  0  0  0  0  0
  1  2  1  0
  2  3  2  0
  3  4  1  0
  4  5  1  0
  4  6  2  0
  6  7  1  0
  7  8  2  0
  8  9  1  0
  8 10  1  0
 10 11  1  0
 10 12  2  0
 12 13  1  0
 12 14  1  0
 15 14  1  6
 15 16  1  0
 16 17  2  0
 17 18  1  0
 17 19  1  0
 19 20  1  0
 19 21  2  0
 21 22  1  0
 21 23  1  0
 23 24  1  0
 23 25  2  0
 25 26  1  0
 15 27  1  0
 27 28  2  0
 27 29  1  0
 29 30  1  0
 30 31  2  0
 31 32  1  0
 31 33  1  0
 33 34  1  0
 33 35  2  0
 35 36  1  0
 36 37  2  0
 37 38  1  0
 36 39  1  0
 39 40  1  0
 40 41  1  0
 40 42  1  0
 40 43  1  0
 43 44  1  0
 43 45  1  0
 43 46  1  0
 29 47  1  0
 47 48  1  0
 48 49  1  0
 48 50  1  0
 47 51  2  0
 51 52  1  0
 14 53  2  0
 53 54  1  0
  6 55  1  0
 55 56  1  0
 55 57  2  0
 57 58  1  0
 57  2  1  0
 53  7  1  0
 51 15  1  0
 25 16  1  0
 37 30  1  0
 46 35  1  0
M  CHG  1  51   1
M  END
>  <score>  (472) 
5.24845

$$$$

     RDKit          3D

 63 67  0  0  0  0  0  0  0  0999 V2000
   15.5106    5.3100   -1.4323 H   0  0  0  0  0  0  0  0  0  0  0  0
   15.5967    4.2428   -1.6134 C   0  0  0  0  0  0  0  0  0  0  0  0
   15.8424    3.8218   -2.8631 N   0  0  0  0  0  0  0  0  0  0  0  0
   15.9239    2.4969   -3.0831 C   0  0  0  0  0  0  0  0  0  0  0  0
   16.1246    2.1594   -4.0945 H   0  0  0  0  0  0  0  0  0  0  0  0
   15.7527    1.5318   -2.0762 C   0  0  0  0  0  0  0  0  0  0  0  0
   15.8231    0.0924   -2.3839 C   0  0  0  0  0  0  0  0  0  0  0  0
   16.3378   -0.3504   -3.6094 C   0  0  0  0  0  0  0  0  0  0  0  0
   16.6779    0.3716   -4.3436 H   0  0  0  0  0  0  0  0  0  0  0  0
   16.4132   -1.7133   -3.9035 C   0  0  0  0  0  0  0  0  0  0  0  0
   16.8025   -2.0289   -4.8654 H   0  0  0  0  0  0  0  0  0  0  0  0
   15.9812   -2.6571   -2.9669 C   0  0  0  0  0  0  0  0  0  0  0  0
   16.0394   -3.7146   -3.2080 H   0  0  0  0  0  0  0  0  0  0  0  0
   15.4627   -2.2472   -1.7277 C   0  0  0  0  0  0  0  0  0  0  0  0
   14.9312   -3.2476   -0.7113 C   0  0  2  0  0  0  0  0  0  0  0  0
   15.2931   -4.6910   -1.0209 C   0  0  0  0  0  0  0  0  0  0  0  0
   16.5097   -5.2453   -0.5930 C   0  0  0  0  0  0  0  0  0  0  0  0
   17.2304   -4.6268   -0.0649 H   0  0  0  0  0  0  0  0  0  0  0  0
   16.7953   -6.5944   -0.8250 C   0  0  0  0  0  0  0  0  0  0  0  0
   17.7307   -7.0090   -0.4645 H   0  0  0  0  0  0  0  0  0  0  0  0
   15.8771   -7.4002   -1.5063 C   0  0  0  0  0  0  0  0  0  0  0  0
   16.0993   -8.4488   -1.6791 H   0  0  0  0  0  0  0  0  0  0  0  0
   14.6811   -6.8490   -1.9738 C   0  0  0  0  0  0  0  0  0  0  0  0
   13.9683   -7.4625   -2.5156 H   0  0  0  0  0  0  0  0  0  0  0  0
   14.3955   -5.5020   -1.7381 C   0  0  0  0  0  0  0  0  0  0  0  0
   13.4619   -5.0895   -2.1093 H   0  0  0  0  0  0  0  0  0  0  0  0
   13.4107   -3.0726   -0.5600 C   0  0  0  0  0  0  0  0  0  0  0  0
   12.5826   -3.2539   -1.4573 O   0  0  0  0  0  0  0  0  0  0  0  0
   13.1139   -2.6638    0.7349 N   0  0  0  0  0  0  0  0  0  0  0  0
   11.8322   -2.1274    1.1323 N   0  0  0  0  0  0  0  0  0  0  0  0
   11.5699   -2.3544    2.1009 H   0  0  0  0  0  0  0  0  0  0  0  0
   11.7053   -0.6879    0.8520 C   0  0  0  0  0  0  0  0  0  0  0  0
   12.1700   -0.4388   -0.1044 H   0  0  0  0  0  0  0  0  0  0  0  0
   12.2683   -0.1878    1.6384 H   0  0  0  0  0  0  0  0  0  0  0  0
   10.2616   -0.1774    0.8504 C   0  0  0  0  0  0  0  0  0  0  0  0
    9.7310   -0.6798    1.6606 H   0  0  0  0  0  0  0  0  0  0  0  0
   10.2717    0.8884    1.0800 H   0  0  0  0  0  0  0  0  0  0  0  0
    9.4901   -0.3859   -0.3965 N   0  0  0  0  0  0  0  0  0  0  0  0
    9.7774    0.4544   -1.5850 C   0  0  0  0  0  0  0  0  0  0  0  0
   10.8518    0.4944   -1.8013 H   0  0  0  0  0  0  0  0  0  0  0  0
    9.2707    0.0043   -2.4442 H   0  0  0  0  0  0  0  0  0  0  0  0
    9.1963    1.8689   -1.4066 C   0  0  0  0  0  0  0  0  0  0  0  0
    9.7157    2.3627   -0.5789 H   0  0  0  0  0  0  0  0  0  0  0  0
    9.3745    2.4551   -2.3160 H   0  0  0  0  0  0  0  0  0  0  0  0
    7.7791    1.8024   -1.1367 O   0  0  0  0  0  0  0  0  0  0  0  0
    7.5132    0.9908    0.0204 C   0  0  0  0  0  0  0  0  0  0  0  0
    8.0152    1.4338    0.8839 H   0  0  0  0  0  0  0  0  0  0  0  0
    6.4397    0.9765    0.2020 H   0  0  0  0  0  0  0  0  0  0  0  0
    8.0352   -0.4428   -0.1596 C   0  0  0  0  0  0  0  0  0  0  0  0
    7.8299   -1.0459    0.7359 H   0  0  0  0  0  0  0  0  0  0  0  0
    7.5336   -0.9080   -1.0147 H   0  0  0  0  0  0  0  0  0  0  0  0
   14.3374   -2.5700    1.4090 C   0  0  0  0  0  0  0  0  0  0  0  0
   14.5796   -2.2045    2.7129 N   0  0  0  0  0  0  0  0  0  0  0  0
   15.5203   -2.3503    3.0764 H   0  0  0  0  0  0  0  0  0  0  0  0
   13.8023   -2.1381    3.3655 H   0  0  0  0  0  0  0  0  0  0  0  0
   15.3405   -2.8912    0.6611 N   0  0  0  0  0  4  0  0  0  0  0  0
   16.3041   -2.9674    0.9979 H   0  0  0  0  0  0  0  0  0  0  0  0
   15.3731   -0.8674   -1.4632 C   0  0  0  0  0  0  0  0  0  0  0  0
   14.9407   -0.5350   -0.5243 H   0  0  0  0  0  0  0  0  0  0  0  0
   15.5230    1.9823   -0.7739 C   0  0  0  0  0  0  0  0  0  0  0  0
   15.4128    1.2782    0.0457 H   0  0  0  0  0  0  0  0  0  0  0  0
   15.4429    3.3530   -0.5456 C   0  0  0  0  0  0  0  0  0  0  0  0
   15.2550    3.7272    0.4541 H   0  0  0  0  0  0  0  0  0  0  0  0
  1  2  1  0
  2  3  2  0
  3  4  1  0
  4  5  1  0
  4  6  2  0
  6  7  1  0
  7  8  2  0
  8  9  1  0
  8 10  1  0
 10 11  1  0
 10 12  2  0
 12 13  1  0
 12 14  1  0
 15 14  1  6
 15 16  1  0
 16 17  2  0
 17 18  1  0
 17 19  1  0
 19 20  1  0
 19 21  2  0
 21 22  1  0
 21 23  1  0
 23 24  1  0
 23 25  2  0
 25 26  1  0
 15 27  1  0
 27 28  2  0
 27 29  1  0
 29 30  1  0
 30 31  1  0
 30 32  1  0
 32 33  1  0
 32 34  1  0
 32 35  1  0
 35 36  1  0
 35 37  1  0
 35 38  1  0
 38 39  1  0
 39 40  1  0
 39 41  1  0
 39 42  1  0
 42 43  1  0
 42 44  1  0
 42 45  1  0
 45 46  1  0
 46 47  1  0
 46 48  1  0
 46 49  1  0
 49 50  1  0
 49 51  1  0
 29 52  1  0
 52 53  1  0
 53 54  1  0
 53 55  1  0
 52 56  2  0
 56 57  1  0
 14 58  2  0
 58 59  1  0
  6 60  1  0
 60 61  1  0
 60 62  2  0
 62 63  1  0
 62  2  1  0
 58  7  1  0
 56 15  1  0
 25 16  1  0
 49 38  1  0
M  CHG  1  56   1
M  END
>  <score>  (473) 
5.24782

$$$$

     RDKit          3D

 55 59  0  0  0  0  0  0  0  0999 V2000
   15.5316    5.3333   -1.4055 H   0  0  0  0  0  0  0  0  0  0  0  0
   15.6132    4.2698   -1.6085 C   0  0  0  0  0  0  0  0  0  0  0  0
   15.8596    3.8669   -2.8646 N   0  0  0  0  0  0  0  0  0  0  0  0
   15.9509    2.5460   -3.1048 C   0  0  0  0  0  0  0  0  0  0  0  0
   16.1399    2.2256   -4.1249 H   0  0  0  0  0  0  0  0  0  0  0  0
   15.7991    1.5699   -2.1062 C   0  0  0  0  0  0  0  0  0  0  0  0
   15.8896    0.1347   -2.4171 C   0  0  0  0  0  0  0  0  0  0  0  0
   16.3754   -0.3156   -3.6523 C   0  0  0  0  0  0  0  0  0  0  0  0
   16.6999    0.4025   -4.3979 H   0  0  0  0  0  0  0  0  0  0  0  0
   16.4447   -1.6841   -3.9325 C   0  0  0  0  0  0  0  0  0  0  0  0
   16.8235   -2.0163   -4.8939 H   0  0  0  0  0  0  0  0  0  0  0  0
   16.0268   -2.6189   -2.9779 C   0  0  0  0  0  0  0  0  0  0  0  0
   16.0718   -3.6792   -3.2106 H   0  0  0  0  0  0  0  0  0  0  0  0
   15.5461   -2.1943   -1.7279 C   0  0  0  0  0  0  0  0  0  0  0  0
   15.0015   -3.1648   -0.6922 C   0  0  2  0  0  0  0  0  0  0  0  0
   15.3068   -4.6252   -1.0018 C   0  0  0  0  0  0  0  0  0  0  0  0
   16.5131   -5.2079   -0.5791 C   0  0  0  0  0  0  0  0  0  0  0  0
   17.2386   -4.6050   -0.0407 H   0  0  0  0  0  0  0  0  0  0  0  0
   16.7870   -6.5564   -0.8279 C   0  0  0  0  0  0  0  0  0  0  0  0
   17.7220   -6.9852   -0.4800 H   0  0  0  0  0  0  0  0  0  0  0  0
   15.8590   -7.3437   -1.5163 C   0  0  0  0  0  0  0  0  0  0  0  0
   16.0676   -8.3939   -1.6985 H   0  0  0  0  0  0  0  0  0  0  0  0
   14.6624   -6.7735   -1.9639 C   0  0  0  0  0  0  0  0  0  0  0  0
   13.9421   -7.3803   -2.5055 H   0  0  0  0  0  0  0  0  0  0  0  0
   14.3896   -5.4229   -1.7100 C   0  0  0  0  0  0  0  0  0  0  0  0
   13.4531   -4.9984   -2.0603 H   0  0  0  0  0  0  0  0  0  0  0  0
   13.5038   -2.8884   -0.5044 C   0  0  0  0  0  0  0  0  0  0  0  0
   12.6128   -3.0987   -1.3299 O   0  0  0  0  0  0  0  0  0  0  0  0
   13.2869   -2.4518    0.7810 N   0  0  0  0  0  0  0  0  0  0  0  0
   12.0270   -2.4722    1.3340 C   0  0  0  0  0  0  0  0  0  0  0  0
   11.7406   -3.2182    2.4797 C   0  0  0  0  0  0  0  0  0  0  0  0
   12.5506   -3.6694    3.0418 H   0  0  0  0  0  0  0  0  0  0  0  0
   10.4147   -3.3652    2.8923 C   0  0  0  0  0  0  0  0  0  0  0  0
   10.1750   -3.9344    3.7912 H   0  0  0  0  0  0  0  0  0  0  0  0
    9.3907   -2.7532    2.1502 C   0  0  0  0  0  0  0  0  0  0  0  0
    7.9530   -2.8487    2.5398 C   0  0  0  0  0  0  0  0  0  0  0  0
    7.6298   -1.6101    3.0004 F   0  0  0  0  0  0  0  0  0  0  0  0
    7.2065   -3.1499    1.4396 F   0  0  0  0  0  0  0  0  0  0  0  0
    7.7360   -3.8101    3.4779 F   0  0  0  0  0  0  0  0  0  0  0  0
    9.7074   -1.9311    1.0554 C   0  0  0  0  0  0  0  0  0  0  0  0
    8.9317   -1.3841    0.5228 H   0  0  0  0  0  0  0  0  0  0  0  0
   11.0251   -1.7957    0.6532 C   0  0  0  0  0  0  0  0  0  0  0  0
   11.2845   -1.1625   -0.1921 H   0  0  0  0  0  0  0  0  0  0  0  0
   14.4647   -2.5646    1.4610 C   0  0  0  0  0  0  0  0  0  0  0  0
   14.5921   -2.4034    2.8079 N   0  0  0  0  0  0  0  0  0  0  0  0
   15.5298   -2.2826    3.1675 H   0  0  0  0  0  0  0  0  0  0  0  0
   13.8244   -1.9648    3.3134 H   0  0  0  0  0  0  0  0  0  0  0  0
   15.4520   -2.8449    0.6791 N   0  0  0  0  0  4  0  0  0  0  0  0
   16.3678   -3.1108    1.0371 H   0  0  0  0  0  0  0  0  0  0  0  0
   15.4763   -0.8159   -1.4741 C   0  0  0  0  0  0  0  0  0  0  0  0
   15.0759   -0.4746   -0.5245 H   0  0  0  0  0  0  0  0  0  0  0  0
   15.5522    2.0007   -0.7994 C   0  0  0  0  0  0  0  0  0  0  0  0
   15.4486    1.2846    0.0119 H   0  0  0  0  0  0  0  0  0  0  0  0
   15.4541    3.3667   -0.5557 C   0  0  0  0  0  0  0  0  0  0  0  0
   15.2575    3.7316    0.4451 H   0  0  0  0  0  0  0  0  0  0  0  0
  1  2  1  0
  2  3  2  0
  3  4  1  0
  4  5  1  0
  4  6  2  0
  6  7  1  0
  7  8  2  0
  8  9  1  0
  8 10  1  0
 10 11  1  0
 10 12  2  0
 12 13  1  0
 12 14  1  0
 15 14  1  6
 15 16  1  0
 16 17  2  0
 17 18  1  0
 17 19  1  0
 19 20  1  0
 19 21  2  0
 21 22  1  0
 21 23  1  0
 23 24  1  0
 23 25  2  0
 25 26  1  0
 15 27  1  0
 27 28  2  0
 27 29  1  0
 29 30  1  0
 30 31  2  0
 31 32  1  0
 31 33  1  0
 33 34  1  0
 33 35  2  0
 35 36  1  0
 36 37  1  0
 36 38  1  0
 36 39  1  0
 35 40  1  0
 40 41  1  0
 40 42  2  0
 42 43  1  0
 29 44  1  0
 44 45  1  0
 45 46  1  0
 45 47  1  0
 44 48  2  0
 48 49  1  0
 14 50  2  0
 50 51  1  0
  6 52  1  0
 52 53  1  0
 52 54  2  0
 54 55  1  0
 54  2  1  0
 50  7  1  0
 48 15  1  0
 25 16  1  0
 42 30  1  0
M  CHG  1  48   1
M  END
>  <score>  (474) 
5.24123

$$$$

     RDKit          3D

 52 56  0  0  0  0  0  0  0  0999 V2000
   15.5272    5.3186   -1.4175 H   0  0  0  0  0  0  0  0  0  0  0  0
   15.5833    4.2536   -1.6163 C   0  0  0  0  0  0  0  0  0  0  0  0
   15.8405    3.8426   -2.8675 N   0  0  0  0  0  0  0  0  0  0  0  0
   15.9016    2.5192   -3.1001 C   0  0  0  0  0  0  0  0  0  0  0  0
   16.1027    2.1904   -4.1153 H   0  0  0  0  0  0  0  0  0  0  0  0
   15.7108    1.5524   -2.0961 C   0  0  0  0  0  0  0  0  0  0  0  0
   15.7736    0.1153   -2.3902 C   0  0  0  0  0  0  0  0  0  0  0  0
   16.3219   -0.3189   -3.5996 C   0  0  0  0  0  0  0  0  0  0  0  0
   16.6974    0.4152   -4.3074 H   0  0  0  0  0  0  0  0  0  0  0  0
   16.3994   -1.6828   -3.8862 C   0  0  0  0  0  0  0  0  0  0  0  0
   16.8467   -2.0042   -4.8210 H   0  0  0  0  0  0  0  0  0  0  0  0
   15.9214   -2.6207   -2.9635 C   0  0  0  0  0  0  0  0  0  0  0  0
   15.9851   -3.6764   -3.1995 H   0  0  0  0  0  0  0  0  0  0  0  0
   15.3763   -2.2202   -1.7339 C   0  0  0  0  0  0  0  0  0  0  0  0
   14.8194   -3.2374   -0.7440 C   0  0  2  0  0  0  0  0  0  0  0  0
   15.1877   -4.6816   -1.0472 C   0  0  0  0  0  0  0  0  0  0  0  0
   16.4094   -5.2049   -0.5951 C   0  0  0  0  0  0  0  0  0  0  0  0
   17.0914   -4.5596   -0.0497 H   0  0  0  0  0  0  0  0  0  0  0  0
   16.7370   -6.5465   -0.8028 C   0  0  0  0  0  0  0  0  0  0  0  0
   17.6747   -6.9350   -0.4148 H   0  0  0  0  0  0  0  0  0  0  0  0
   15.8492   -7.3833   -1.4853 C   0  0  0  0  0  0  0  0  0  0  0  0
   16.0983   -8.4301   -1.6328 H   0  0  0  0  0  0  0  0  0  0  0  0
   14.6398   -6.8697   -1.9690 C   0  0  0  0  0  0  0  0  0  0  0  0
   13.9501   -7.5245   -2.4929 H   0  0  0  0  0  0  0  0  0  0  0  0
   14.3094   -5.5263   -1.7494 C   0  0  0  0  0  0  0  0  0  0  0  0
   13.3545   -5.1473   -2.1047 H   0  0  0  0  0  0  0  0  0  0  0  0
   13.3027   -3.0331   -0.5994 C   0  0  0  0  0  0  0  0  0  0  0  0
   12.4333   -3.0343   -1.4721 O   0  0  0  0  0  0  0  0  0  0  0  0
   13.0388   -2.7374    0.7035 N   0  0  0  0  0  0  0  0  0  0  0  0
   11.8490   -2.2116    1.1148 C   0  0  0  0  0  0  0  0  0  0  0  0
   11.2011   -2.7998    2.0730 N   0  0  0  0  0  0  0  0  0  0  0  0
   10.0383   -2.0576    2.2305 C   0  0  0  0  0  0  0  0  0  0  0  0
    9.2963   -2.2268    3.0043 H   0  0  0  0  0  0  0  0  0  0  0  0
    9.9795   -1.0458    1.3067 C   0  0  0  0  0  0  0  0  0  0  0  0
    9.2099   -0.2845    1.2059 H   0  0  0  0  0  0  0  0  0  0  0  0
   11.1454   -1.1327    0.5753 N   0  0  0  0  0  0  0  0  0  0  0  0
   11.6423   -0.0893   -0.3467 C   0  0  0  0  0  0  0  0  0  0  0  0
   12.4648    0.4459    0.1236 H   0  0  0  0  0  0  0  0  0  0  0  0
   11.9947   -0.4868   -1.3033 H   0  0  0  0  0  0  0  0  0  0  0  0
   10.8584    0.6426   -0.5614 H   0  0  0  0  0  0  0  0  0  0  0  0
   14.2116   -2.6370    1.4014 C   0  0  0  0  0  0  0  0  0  0  0  0
   14.3779   -2.2308    2.6979 N   0  0  0  0  0  0  0  0  0  0  0  0
   13.5580   -2.1671    3.3034 H   0  0  0  0  0  0  0  0  0  0  0  0
   15.3083   -2.3226    3.1112 H   0  0  0  0  0  0  0  0  0  0  0  0
   15.2179   -2.9301    0.6495 N   0  0  0  0  0  4  0  0  0  0  0  0
   16.1845   -2.9571    0.9754 H   0  0  0  0  0  0  0  0  0  0  0  0
   15.2973   -0.8386   -1.4708 C   0  0  0  0  0  0  0  0  0  0  0  0
   14.8559   -0.4909   -0.5410 H   0  0  0  0  0  0  0  0  0  0  0  0
   15.4771    1.9906   -0.7957 C   0  0  0  0  0  0  0  0  0  0  0  0
   15.3746    1.2678    0.0084 H   0  0  0  0  0  0  0  0  0  0  0  0
   15.4005    3.3592   -0.5589 C   0  0  0  0  0  0  0  0  0  0  0  0
   15.2134    3.7364    0.4389 H   0  0  0  0  0  0  0  0  0  0  0  0
  1  2  1  0
  2  3  2  0
  3  4  1  0
  4  5  1  0
  4  6  2  0
  6  7  1  0
  7  8  2  0
  8  9  1  0
  8 10  1  0
 10 11  1  0
 10 12  2  0
 12 13  1  0
 12 14  1  0
 15 14  1  6
 15 16  1  0
 16 17  2  0
 17 18  1  0
 17 19  1  0
 19 20  1  0
 19 21  2  0
 21 22  1  0
 21 23  1  0
 23 24  1  0
 23 25  2  0
 25 26  1  0
 15 27  1  0
 27 28  2  0
 27 29  1  0
 29 30  1  0
 30 31  2  0
 31 32  1  0
 32 33  1  0
 32 34  2  0
 34 35  1  0
 34 36  1  0
 36 37  1  0
 37 38  1  0
 37 39  1  0
 37 40  1  0
 29 41  1  0
 41 42  1  0
 42 43  1  0
 42 44  1  0
 41 45  2  0
 45 46  1  0
 14 47  2  0
 47 48  1  0
  6 49  1  0
 49 50  1  0
 49 51  2  0
 51 52  1  0
 51  2  1  0
 47  7  1  0
 45 15  1  0
 25 16  1  0
 36 30  1  0
M  CHG  1  45   1
M  END
>  <score>  (475) 
5.23694

$$$$

     RDKit          3D

 59 63  0  0  0  0  0  0  0  0999 V2000
   15.5337    5.3320   -1.4118 H   0  0  0  0  0  0  0  0  0  0  0  0
   15.5885    4.2660   -1.6102 C   0  0  0  0  0  0  0  0  0  0  0  0
   15.8365    3.8539   -2.8626 N   0  0  0  0  0  0  0  0  0  0  0  0
   15.9004    2.5300   -3.0964 C   0  0  0  0  0  0  0  0  0  0  0  0
   16.0966    2.1993   -4.1116 H   0  0  0  0  0  0  0  0  0  0  0  0
   15.7183    1.5599   -2.0967 C   0  0  0  0  0  0  0  0  0  0  0  0
   15.7964    0.1222   -2.4068 C   0  0  0  0  0  0  0  0  0  0  0  0
   16.3408   -0.3164   -3.6199 C   0  0  0  0  0  0  0  0  0  0  0  0
   16.7081    0.4152   -4.3323 H   0  0  0  0  0  0  0  0  0  0  0  0
   16.4245   -1.6814   -3.9126 C   0  0  0  0  0  0  0  0  0  0  0  0
   16.8522   -2.0005   -4.8574 H   0  0  0  0  0  0  0  0  0  0  0  0
   15.9581   -2.6262   -2.9915 C   0  0  0  0  0  0  0  0  0  0  0  0
   16.0136   -3.6846   -3.2274 H   0  0  0  0  0  0  0  0  0  0  0  0
   15.4129   -2.2168   -1.7661 C   0  0  0  0  0  0  0  0  0  0  0  0
   14.8562   -3.2093   -0.7593 C   0  0  2  0  0  0  0  0  0  0  0  0
   15.2014   -4.6701   -1.0513 C   0  0  0  0  0  0  0  0  0  0  0  0
   16.4180   -5.2056   -0.5980 C   0  0  0  0  0  0  0  0  0  0  0  0
   17.1123   -4.5683   -0.0586 H   0  0  0  0  0  0  0  0  0  0  0  0
   16.7399   -6.5510   -0.8038 C   0  0  0  0  0  0  0  0  0  0  0  0
   17.6780   -6.9438   -0.4222 H   0  0  0  0  0  0  0  0  0  0  0  0
   15.8506   -7.3869   -1.4848 C   0  0  0  0  0  0  0  0  0  0  0  0
   16.0969   -8.4347   -1.6363 H   0  0  0  0  0  0  0  0  0  0  0  0
   14.6425   -6.8687   -1.9633 C   0  0  0  0  0  0  0  0  0  0  0  0
   13.9509   -7.5195   -2.4912 H   0  0  0  0  0  0  0  0  0  0  0  0
   14.3196   -5.5195   -1.7494 C   0  0  0  0  0  0  0  0  0  0  0  0
   13.3708   -5.1407   -2.1176 H   0  0  0  0  0  0  0  0  0  0  0  0
   13.3453   -2.9635   -0.6012 C   0  0  0  0  0  0  0  0  0  0  0  0
   12.4860   -3.1577   -1.4611 O   0  0  0  0  0  0  0  0  0  0  0  0
   13.0847   -2.5352    0.6828 N   0  0  0  0  0  0  0  0  0  0  0  0
   11.8104   -2.5160    1.2601 C   0  0  0  0  0  0  0  0  0  0  0  0
   10.7771   -1.7512    0.6989 C   0  0  0  0  0  0  0  0  0  0  0  0
   10.9919   -1.1341   -0.1705 H   0  0  0  0  0  0  0  0  0  0  0  0
    9.5046   -1.7495    1.2996 C   0  0  0  0  0  0  0  0  0  0  0  0
    8.7125   -1.1280    0.9026 H   0  0  0  0  0  0  0  0  0  0  0  0
    9.2741   -2.4957    2.4552 C   0  0  0  0  0  0  0  0  0  0  0  0
    8.0855   -2.4068    3.1598 N   0  0  0  0  0  0  0  0  0  0  0  0
    8.1727   -2.1135    4.1274 H   0  0  0  0  0  0  0  0  0  0  0  0
    6.9609   -3.1286    2.8324 C   0  0  0  0  0  0  0  0  0  0  0  0
    6.8804   -3.7002    1.7554 O   0  0  0  0  0  0  0  0  0  0  0  0
    5.6901   -2.9580    3.6637 C   0  0  0  0  0  0  0  0  0  0  0  0
    4.8129   -3.2228    3.0731 H   0  0  0  0  0  0  0  0  0  0  0  0
    5.7239   -3.5951    4.5471 H   0  0  0  0  0  0  0  0  0  0  0  0
    5.5556   -1.9170    3.9677 H   0  0  0  0  0  0  0  0  0  0  0  0
   10.2948   -3.2628    2.9983 C   0  0  0  0  0  0  0  0  0  0  0  0
   10.0920   -3.8470    3.8853 H   0  0  0  0  0  0  0  0  0  0  0  0
   11.5685   -3.2570    2.4191 C   0  0  0  0  0  0  0  0  0  0  0  0
   12.3828   -3.8237    2.8654 H   0  0  0  0  0  0  0  0  0  0  0  0
   14.2812   -2.5952    1.3755 C   0  0  0  0  0  0  0  0  0  0  0  0
   14.4445   -2.4185    2.7222 N   0  0  0  0  0  0  0  0  0  0  0  0
   15.3951   -2.2906    3.0728 H   0  0  0  0  0  0  0  0  0  0  0  0
   13.6620   -2.0285    3.2462 H   0  0  0  0  0  0  0  0  0  0  0  0
   15.2876   -2.8704    0.6122 N   0  0  0  0  0  4  0  0  0  0  0  0
   16.2315   -3.0508    0.9620 H   0  0  0  0  0  0  0  0  0  0  0  0
   15.3305   -0.8385   -1.4965 C   0  0  0  0  0  0  0  0  0  0  0  0
   14.8868   -0.5073   -0.5622 H   0  0  0  0  0  0  0  0  0  0  0  0
   15.4736    1.9996   -0.7947 C   0  0  0  0  0  0  0  0  0  0  0  0
   15.3609    1.2796    0.0104 H   0  0  0  0  0  0  0  0  0  0  0  0
   15.4022    3.3698   -0.5552 C   0  0  0  0  0  0  0  0  0  0  0  0
   15.2092    3.7452    0.4422 H   0  0  0  0  0  0  0  0  0  0  0  0
  1  2  1  0
  2  3  2  0
  3  4  1  0
  4  5  1  0
  4  6  2  0
  6  7  1  0
  7  8  2  0
  8  9  1  0
  8 10  1  0
 10 11  1  0
 10 12  2  0
 12 13  1  0
 12 14  1  0
 15 14  1  6
 15 16  1  0
 16 17  2  0
 17 18  1  0
 17 19  1  0
 19 20  1  0
 19 21  2  0
 21 22  1  0
 21 23  1  0
 23 24  1  0
 23 25  2  0
 25 26  1  0
 15 27  1  0
 27 28  2  0
 27 29  1  0
 29 30  1  0
 30 31  2  0
 31 32  1  0
 31 33  1  0
 33 34  1  0
 33 35  2  0
 35 36  1  0
 36 37  1  0
 36 38  1  0
 38 39  2  0
 38 40  1  0
 40 41  1  0
 40 42  1  0
 40 43  1  0
 35 44  1  0
 44 45  1  0
 44 46  2  0
 46 47  1  0
 29 48  1  0
 48 49  1  0
 49 50  1  0
 49 51  1  0
 48 52  2  0
 52 53  1  0
 14 54  2  0
 54 55  1  0
  6 56  1  0
 56 57  1  0
 56 58  2  0
 58 59  1  0
 58  2  1  0
 54  7  1  0
 52 15  1  0
 25 16  1  0
 46 30  1  0
M  CHG  1  52   1
M  END
>  <score>  (476) 
5.23665

$$$$

     RDKit          3D

 49 52  0  0  0  0  0  0  0  0999 V2000
   15.5395    5.3669   -1.4025 H   0  0  0  0  0  0  0  0  0  0  0  0
   15.6324    4.3063   -1.6117 C   0  0  0  0  0  0  0  0  0  0  0  0
   15.8830    3.9134   -2.8696 N   0  0  0  0  0  0  0  0  0  0  0  0
   15.9825    2.5926   -3.1154 C   0  0  0  0  0  0  0  0  0  0  0  0
   16.1785    2.2752   -4.1349 H   0  0  0  0  0  0  0  0  0  0  0  0
   15.8335    1.6092   -2.1215 C   0  0  0  0  0  0  0  0  0  0  0  0
   15.9106    0.1686   -2.4340 C   0  0  0  0  0  0  0  0  0  0  0  0
   16.3976   -0.3011   -3.6644 C   0  0  0  0  0  0  0  0  0  0  0  0
   16.7454    0.4050   -4.4121 H   0  0  0  0  0  0  0  0  0  0  0  0
   16.4437   -1.6755   -3.9313 C   0  0  0  0  0  0  0  0  0  0  0  0
   16.8259   -2.0292   -4.8837 H   0  0  0  0  0  0  0  0  0  0  0  0
   15.9922   -2.5917   -2.9743 C   0  0  0  0  0  0  0  0  0  0  0  0
   16.0285   -3.6552   -3.1917 H   0  0  0  0  0  0  0  0  0  0  0  0
   15.4950   -2.1487   -1.7365 C   0  0  0  0  0  0  0  0  0  0  0  0
   14.9467   -3.1097   -0.6907 C   0  0  2  0  0  0  0  0  0  0  0  0
   15.3101   -4.5669   -0.9881 C   0  0  0  0  0  0  0  0  0  0  0  0
   16.5205   -5.1362   -0.5523 C   0  0  0  0  0  0  0  0  0  0  0  0
   17.2371   -4.5259   -0.0099 H   0  0  0  0  0  0  0  0  0  0  0  0
   16.8080   -6.4853   -0.8025 C   0  0  0  0  0  0  0  0  0  0  0  0
   17.7420   -6.9110   -0.4476 H   0  0  0  0  0  0  0  0  0  0  0  0
   15.8895   -7.2843   -1.4918 C   0  0  0  0  0  0  0  0  0  0  0  0
   16.1035   -8.3355   -1.6635 H   0  0  0  0  0  0  0  0  0  0  0  0
   14.6950   -6.7266   -1.9542 C   0  0  0  0  0  0  0  0  0  0  0  0
   13.9830   -7.3445   -2.4931 H   0  0  0  0  0  0  0  0  0  0  0  0
   14.4152   -5.3773   -1.7145 C   0  0  0  0  0  0  0  0  0  0  0  0
   13.4812   -4.9623   -2.0833 H   0  0  0  0  0  0  0  0  0  0  0  0
   13.4220   -2.9873   -0.5123 C   0  0  0  0  0  0  0  0  0  0  0  0
   12.5963   -3.0506   -1.4283 O   0  0  0  0  0  0  0  0  0  0  0  0
   13.1018   -2.9523    0.8545 N   0  0  0  0  0  0  0  0  0  0  0  0
   11.8277   -3.4023    1.4782 N   0  0  0  0  0  0  0  0  0  0  0  0
   11.2454   -2.6855    1.9088 H   0  0  0  0  0  0  0  0  0  0  0  0
   11.4229   -4.8943    2.2428 S   0  0  0  0  0  0  0  0  0  0  0  0
   10.2570   -5.5686    1.6678 O   0  0  0  0  0  0  0  0  0  0  0  0
   11.3572   -4.8251    3.7055 O   0  0  0  0  0  0  0  0  0  0  0  0
   10.2956   -3.7696    2.5045 N   0  0  0  0  0  0  0  0  0  0  0  0
    9.4971   -4.3526    2.6591 H   0  0  0  0  0  0  0  0  0  0  0  0
   10.6027   -3.3583    3.3690 H   0  0  0  0  0  0  0  0  0  0  0  0
   14.3317   -2.6864    1.4913 C   0  0  0  0  0  0  0  0  0  0  0  0
   14.5692   -2.4277    2.8159 N   0  0  0  0  0  0  0  0  0  0  0  0
   15.5071   -2.1466    3.0954 H   0  0  0  0  0  0  0  0  0  0  0  0
   13.7875   -2.1807    3.4203 H   0  0  0  0  0  0  0  0  0  0  0  0
   15.3424   -2.7226    0.6787 N   0  0  0  0  0  4  0  0  0  0  0  0
   16.3132   -2.6130    0.9796 H   0  0  0  0  0  0  0  0  0  0  0  0
   15.4680   -0.7692   -1.4887 C   0  0  0  0  0  0  0  0  0  0  0  0
   15.0732   -0.4144   -0.5417 H   0  0  0  0  0  0  0  0  0  0  0  0
   15.5935    2.0349   -0.8102 C   0  0  0  0  0  0  0  0  0  0  0  0
   15.4903    1.3146   -0.0016 H   0  0  0  0  0  0  0  0  0  0  0  0
   15.4855    3.3995   -0.5615 C   0  0  0  0  0  0  0  0  0  0  0  0
   15.2790    3.7649    0.4372 H   0  0  0  0  0  0  0  0  0  0  0  0
  1  2  1  0
  2  3  2  0
  3  4  1  0
  4  5  1  0
  4  6  2  0
  6  7  1  0
  7  8  2  0
  8  9  1  0
  8 10  1  0
 10 11  1  0
 10 12  2  0
 12 13  1  0
 12 14  1  0
 15 14  1  6
 15 16  1  0
 16 17  2  0
 17 18  1  0
 17 19  1  0
 19 20  1  0
 19 21  2  0
 21 22  1  0
 21 23  1  0
 23 24  1  0
 23 25  2  0
 25 26  1  0
 15 27  1  0
 27 28  2  0
 27 29  1  0
 29 30  1  0
 30 31  1  0
 30 32  1  0
 32 33  2  0
 32 34  2  0
 32 35  1  0
 35 36  1  0
 35 37  1  0
 29 38  1  0
 38 39  1  0
 39 40  1  0
 39 41  1  0
 38 42  2  0
 42 43  1  0
 14 44  2  0
 44 45  1  0
  6 46  1  0
 46 47  1  0
 46 48  2  0
 48 49  1  0
 48  2  1  0
 44  7  1  0
 42 15  1  0
 25 16  1  0
M  CHG  1  42   1
M  END
>  <score>  (477) 
5.23221

$$$$

     RDKit          3D

 57 61  0  0  0  0  0  0  0  0999 V2000
   15.5264    5.3230   -1.4172 H   0  0  0  0  0  0  0  0  0  0  0  0
   15.5886    4.2574   -1.6139 C   0  0  0  0  0  0  0  0  0  0  0  0
   15.8376    3.8450   -2.8658 N   0  0  0  0  0  0  0  0  0  0  0  0
   15.9066    2.5217   -3.0981 C   0  0  0  0  0  0  0  0  0  0  0  0
   16.1065    2.1909   -4.1132 H   0  0  0  0  0  0  0  0  0  0  0  0
   15.7234    1.5543   -2.0953 C   0  0  0  0  0  0  0  0  0  0  0  0
   15.7957    0.1182   -2.4001 C   0  0  0  0  0  0  0  0  0  0  0  0
   16.3361   -0.3171   -3.6145 C   0  0  0  0  0  0  0  0  0  0  0  0
   16.6985    0.4151   -4.3291 H   0  0  0  0  0  0  0  0  0  0  0  0
   16.4199   -1.6805   -3.9050 C   0  0  0  0  0  0  0  0  0  0  0  0
   16.8441   -1.9984   -4.8516 H   0  0  0  0  0  0  0  0  0  0  0  0
   15.9586   -2.6250   -2.9811 C   0  0  0  0  0  0  0  0  0  0  0  0
   16.0163   -3.6817   -3.2218 H   0  0  0  0  0  0  0  0  0  0  0  0
   15.4152   -2.2213   -1.7507 C   0  0  0  0  0  0  0  0  0  0  0  0
   14.8581   -3.2269   -0.7484 C   0  0  2  0  0  0  0  0  0  0  0  0
   15.2210   -4.6772   -1.0464 C   0  0  0  0  0  0  0  0  0  0  0  0
   16.4381   -5.2130   -0.5933 C   0  0  0  0  0  0  0  0  0  0  0  0
   17.1345   -4.5784   -0.0526 H   0  0  0  0  0  0  0  0  0  0  0  0
   16.7514   -6.5598   -0.8016 C   0  0  0  0  0  0  0  0  0  0  0  0
   17.6876   -6.9597   -0.4220 H   0  0  0  0  0  0  0  0  0  0  0  0
   15.8568   -7.3898   -1.4844 C   0  0  0  0  0  0  0  0  0  0  0  0
   16.0950   -8.4382   -1.6386 H   0  0  0  0  0  0  0  0  0  0  0  0
   14.6504   -6.8670   -1.9624 C   0  0  0  0  0  0  0  0  0  0  0  0
   13.9534   -7.5094   -2.4930 H   0  0  0  0  0  0  0  0  0  0  0  0
   14.3362   -5.5197   -1.7450 C   0  0  0  0  0  0  0  0  0  0  0  0
   13.3900   -5.1300   -2.1105 H   0  0  0  0  0  0  0  0  0  0  0  0
   13.3376   -3.0262   -0.6101 C   0  0  0  0  0  0  0  0  0  0  0  0
   12.5020   -3.1739   -1.5022 O   0  0  0  0  0  0  0  0  0  0  0  0
   13.0367   -2.6745    0.6897 N   0  0  0  0  0  0  0  0  0  0  0  0
   11.7697   -2.1937    1.1402 O   0  0  0  0  0  0  0  0  0  0  0  0
   10.8319   -3.2428    1.4100 C   0  0  0  0  0  0  0  0  0  0  0  0
   10.8273   -3.9774    0.5991 H   0  0  0  0  0  0  0  0  0  0  0  0
    9.8307   -2.8177    1.4799 H   0  0  0  0  0  0  0  0  0  0  0  0
   11.1769   -3.9273    2.7259 C   0  0  1  0  0  0  0  0  0  0  0  0
   11.3623   -3.1669    3.4891 H   0  0  0  0  0  0  0  0  0  0  0  0
   10.0954   -4.7666    3.1585 O   0  0  0  0  0  0  0  0  0  0  0  0
   10.6473   -5.9510    3.7409 C   0  0  0  0  0  0  0  0  0  0  0  0
    9.9303   -6.7831    3.7399 H   0  0  0  0  0  0  0  0  0  0  0  0
   10.9713   -5.7540    4.7749 H   0  0  0  0  0  0  0  0  0  0  0  0
   11.8221   -6.2243    2.8083 C   0  0  0  0  0  0  0  0  0  0  0  0
   12.5666   -6.9355    3.1833 H   0  0  0  0  0  0  0  0  0  0  0  0
   11.4344   -6.6129    1.8657 H   0  0  0  0  0  0  0  0  0  0  0  0
   12.3890   -4.8466    2.5594 C   0  0  0  0  0  0  0  0  0  0  0  0
   12.8411   -4.7872    1.5643 H   0  0  0  0  0  0  0  0  0  0  0  0
   13.1519   -4.6045    3.3021 H   0  0  0  0  0  0  0  0  0  0  0  0
   14.2405   -2.5969    1.3792 C   0  0  0  0  0  0  0  0  0  0  0  0
   14.4466   -2.2781    2.6950 N   0  0  0  0  0  0  0  0  0  0  0  0
   13.6580   -2.0568    3.3013 H   0  0  0  0  0  0  0  0  0  0  0  0
   15.3989   -2.2776    3.0659 H   0  0  0  0  0  0  0  0  0  0  0  0
   15.2571   -2.8938    0.6341 N   0  0  0  0  0  4  0  0  0  0  0  0
   16.2145   -2.9897    0.9861 H   0  0  0  0  0  0  0  0  0  0  0  0
   15.3319   -0.8411   -1.4849 C   0  0  0  0  0  0  0  0  0  0  0  0
   14.8938   -0.5006   -0.5511 H   0  0  0  0  0  0  0  0  0  0  0  0
   15.4814    1.9932   -0.7943 C   0  0  0  0  0  0  0  0  0  0  0  0
   15.3725    1.2727    0.0110 H   0  0  0  0  0  0  0  0  0  0  0  0
   15.4076    3.3620   -0.5577 C   0  0  0  0  0  0  0  0  0  0  0  0
   15.2144    3.7351    0.4398 H   0  0  0  0  0  0  0  0  0  0  0  0
  1  2  1  0
  2  3  2  0
  3  4  1  0
  4  5  1  0
  4  6  2  0
  6  7  1  0
  7  8  2  0
  8  9  1  0
  8 10  1  0
 10 11  1  0
 10 12  2  0
 12 13  1  0
 12 14  1  0
 15 14  1  6
 15 16  1  0
 16 17  2  0
 17 18  1  0
 17 19  1  0
 19 20  1  0
 19 21  2  0
 21 22  1  0
 21 23  1  0
 23 24  1  0
 23 25  2  0
 25 26  1  0
 15 27  1  0
 27 28  2  0
 27 29  1  0
 29 30  1  0
 30 31  1  0
 31 32  1  0
 31 33  1  0
 31 34  1  0
 34 35  1  1
 34 36  1  0
 36 37  1  0
 37 38  1  0
 37 39  1  0
 37 40  1  0
 40 41  1  0
 40 42  1  0
 40 43  1  0
 43 44  1  0
 43 45  1  0
 29 46  1  0
 46 47  1  0
 47 48  1  0
 47 49  1  0
 46 50  2  0
 50 51  1  0
 14 52  2  0
 52 53  1  0
  6 54  1  0
 54 55  1  0
 54 56  2  0
 56 57  1  0
 56  2  1  0
 52  7  1  0
 50 15  1  0
 25 16  1  0
 43 34  1  0
M  CHG  1  50   1
M  END
>  <score>  (478) 
5.22889

$$$$

     RDKit          3D

 57 61  0  0  0  0  0  0  0  0999 V2000
   15.4943    5.3079   -1.4066 H   0  0  0  0  0  0  0  0  0  0  0  0
   15.5715    4.2455   -1.6120 C   0  0  0  0  0  0  0  0  0  0  0  0
   15.8450    3.8356   -2.8610 N   0  0  0  0  0  0  0  0  0  0  0  0
   15.9355    2.5124   -3.0870 C   0  0  0  0  0  0  0  0  0  0  0  0
   16.1374    2.1827   -4.1023 H   0  0  0  0  0  0  0  0  0  0  0  0
   15.7543    1.5456   -2.0835 C   0  0  0  0  0  0  0  0  0  0  0  0
   15.8367    0.1092   -2.3855 C   0  0  0  0  0  0  0  0  0  0  0  0
   16.3533   -0.3282   -3.6114 C   0  0  0  0  0  0  0  0  0  0  0  0
   16.6950    0.3987   -4.3421 H   0  0  0  0  0  0  0  0  0  0  0  0
   16.4302   -1.6918   -3.9001 C   0  0  0  0  0  0  0  0  0  0  0  0
   16.8191   -2.0130   -4.8612 H   0  0  0  0  0  0  0  0  0  0  0  0
   15.9908   -2.6321   -2.9610 C   0  0  0  0  0  0  0  0  0  0  0  0
   16.0368   -3.6896   -3.1954 H   0  0  0  0  0  0  0  0  0  0  0  0
   15.4573   -2.2274   -1.7265 C   0  0  0  0  0  0  0  0  0  0  0  0
   14.8872   -3.2288   -0.7259 C   0  0  2  0  0  0  0  0  0  0  0  0
   15.2413   -4.6758   -1.0337 C   0  0  0  0  0  0  0  0  0  0  0  0
   16.4538   -5.2240   -0.5874 C   0  0  0  0  0  0  0  0  0  0  0  0
   17.1650   -4.6034   -0.0484 H   0  0  0  0  0  0  0  0  0  0  0  0
   16.7513   -6.5713   -0.8088 C   0  0  0  0  0  0  0  0  0  0  0  0
   17.6882   -6.9791   -0.4399 H   0  0  0  0  0  0  0  0  0  0  0  0
   15.8454   -7.3843   -1.4991 C   0  0  0  0  0  0  0  0  0  0  0  0
   16.0669   -8.4346   -1.6639 H   0  0  0  0  0  0  0  0  0  0  0  0
   14.6468   -6.8433   -1.9764 C   0  0  0  0  0  0  0  0  0  0  0  0
   13.9344   -7.4584   -2.5177 H   0  0  0  0  0  0  0  0  0  0  0  0
   14.3503   -5.4978   -1.7442 C   0  0  0  0  0  0  0  0  0  0  0  0
   13.4176   -5.0854   -2.1132 H   0  0  0  0  0  0  0  0  0  0  0  0
   13.3661   -3.0157   -0.5989 C   0  0  0  0  0  0  0  0  0  0  0  0
   12.5480   -3.1941   -1.5046 O   0  0  0  0  0  0  0  0  0  0  0  0
   13.0379   -2.6172    0.6903 N   0  0  0  0  0  0  0  0  0  0  0  0
   11.6987   -2.4117    1.2228 N   0  0  0  0  0  0  0  0  0  0  0  0
   10.6705   -2.2018    0.1806 C   0  0  0  0  0  0  0  0  0  0  0  0
   11.0629   -1.5133   -0.5793 H   0  0  0  0  0  0  0  0  0  0  0  0
   10.4400   -3.1492   -0.3212 H   0  0  0  0  0  0  0  0  0  0  0  0
    9.4281   -1.6014    0.7875 C   0  0  0  0  0  0  0  0  0  0  0  0
    8.6439   -1.4845    0.0446 H   0  0  0  0  0  0  0  0  0  0  0  0
    9.6531   -0.6357    1.2301 H   0  0  0  0  0  0  0  0  0  0  0  0
    8.8355   -2.6910    2.0664 S   0  0  0  0  0  0  0  0  0  0  0  0
    8.4223   -3.9692    1.4765 O   0  0  0  0  0  0  0  0  0  0  0  0
    7.7282   -2.0337    2.7734 O   0  0  0  0  0  0  0  0  0  0  0  0
   10.2169   -2.9088    3.1648 C   0  0  0  0  0  0  0  0  0  0  0  0
    9.9657   -3.6797    3.8902 H   0  0  0  0  0  0  0  0  0  0  0  0
   10.3880   -1.9701    3.6820 H   0  0  0  0  0  0  0  0  0  0  0  0
   11.4338   -3.3102    2.3607 C   0  0  0  0  0  0  0  0  0  0  0  0
   11.3345   -4.3372    1.9979 H   0  0  0  0  0  0  0  0  0  0  0  0
   12.3051   -3.2860    3.0213 H   0  0  0  0  0  0  0  0  0  0  0  0
   14.2539   -2.6168    1.3902 C   0  0  0  0  0  0  0  0  0  0  0  0
   14.5190   -2.4081    2.7123 N   0  0  0  0  0  0  0  0  0  0  0  0
   15.5037   -2.3655    2.9763 H   0  0  0  0  0  0  0  0  0  0  0  0
   13.8436   -1.8682    3.2486 H   0  0  0  0  0  0  0  0  0  0  0  0
   15.2749   -2.9172    0.6626 N   0  0  0  0  0  4  0  0  0  0  0  0
   16.2007   -3.1111    1.0564 H   0  0  0  0  0  0  0  0  0  0  0  0
   15.3829   -0.8482   -1.4633 C   0  0  0  0  0  0  0  0  0  0  0  0
   14.9534   -0.5059   -0.5262 H   0  0  0  0  0  0  0  0  0  0  0  0
   15.4872    1.9849   -0.7872 C   0  0  0  0  0  0  0  0  0  0  0  0
   15.3806    1.2640    0.0177 H   0  0  0  0  0  0  0  0  0  0  0  0
   15.3888    3.3516   -0.5550 C   0  0  0  0  0  0  0  0  0  0  0  0
   15.1838    3.7164    0.4442 H   0  0  0  0  0  0  0  0  0  0  0  0
  1  2  1  0
  2  3  2  0
  3  4  1  0
  4  5  1  0
  4  6  2  0
  6  7  1  0
  7  8  2  0
  8  9  1  0
  8 10  1  0
 10 11  1  0
 10 12  2  0
 12 13  1  0
 12 14  1  0
 15 14  1  6
 15 16  1  0
 16 17  2  0
 17 18  1  0
 17 19  1  0
 19 20  1  0
 19 21  2  0
 21 22  1  0
 21 23  1  0
 23 24  1  0
 23 25  2  0
 25 26  1  0
 15 27  1  0
 27 28  2  0
 27 29  1  0
 29 30  1  0
 30 31  1  0
 31 32  1  0
 31 33  1  0
 31 34  1  0
 34 35  1  0
 34 36  1  0
 34 37  1  0
 37 38  2  0
 37 39  2  0
 37 40  1  0
 40 41  1  0
 40 42  1  0
 40 43  1  0
 43 44  1  0
 43 45  1  0
 29 46  1  0
 46 47  1  0
 47 48  1  0
 47 49  1  0
 46 50  2  0
 50 51  1  0
 14 52  2  0
 52 53  1  0
  6 54  1  0
 54 55  1  0
 54 56  2  0
 56 57  1  0
 56  2  1  0
 52  7  1  0
 50 15  1  0
 25 16  1  0
 43 30  1  0
M  CHG  1  50   1
M  END
>  <score>  (479) 
5.22673

$$$$

     RDKit          3D

 53 56  0  0  0  0  0  0  0  0999 V2000
   13.6689   -6.0335    2.7990 H   0  0  0  0  0  0  0  0  0  0  0  0
   13.1235   -5.7240    2.0476 O   0  0  0  0  0  0  0  0  0  0  0  0
   12.2686   -4.8182    2.5955 C   0  0  0  0  0  0  0  0  0  0  0  0
   12.3229   -4.4980    3.7727 O   0  0  0  0  0  0  0  0  0  0  0  0
   11.2041   -4.1451    1.6564 C   0  0  1  0  0  0  0  0  0  0  0  0
   11.2466   -4.7040    0.7165 H   0  0  0  0  0  0  0  0  0  0  0  0
    9.7394   -4.0372    2.0359 N   0  0  0  0  0  0  0  0  0  0  0  0
    9.5949   -3.4809    2.8828 H   0  0  0  0  0  0  0  0  0  0  0  0
    9.2792   -4.9487    2.1169 H   0  0  0  0  0  0  0  0  0  0  0  0
   11.6994   -2.7225    1.3668 C   0  0  0  0  0  0  0  0  0  0  0  0
   10.9731   -2.2456    0.7044 H   0  0  0  0  0  0  0  0  0  0  0  0
   11.7012   -2.1352    2.2940 H   0  0  0  0  0  0  0  0  0  0  0  0
   13.0288   -2.7236    0.7314 N   0  0  0  0  0  0  0  0  0  0  0  0
   13.3069   -3.0590   -0.5811 C   0  0  0  0  0  0  0  0  0  0  0  0
   12.4341   -3.2185   -1.4367 O   0  0  0  0  0  0  0  0  0  0  0  0
   14.8294   -3.2326   -0.7559 C   0  0  1  0  0  0  0  0  0  0  0  0
   15.2019   -4.6851   -1.0565 C   0  0  0  0  0  0  0  0  0  0  0  0
   16.4189   -5.2149   -0.5988 C   0  0  0  0  0  0  0  0  0  0  0  0
   17.0993   -4.5697   -0.0520 H   0  0  0  0  0  0  0  0  0  0  0  0
   16.7425   -6.5615   -0.7983 C   0  0  0  0  0  0  0  0  0  0  0  0
   17.6796   -6.9521   -0.4115 H   0  0  0  0  0  0  0  0  0  0  0  0
   15.8564   -7.3992   -1.4828 C   0  0  0  0  0  0  0  0  0  0  0  0
   16.1005   -8.4483   -1.6230 H   0  0  0  0  0  0  0  0  0  0  0  0
   14.6491   -6.8851   -1.9678 C   0  0  0  0  0  0  0  0  0  0  0  0
   13.9565   -7.5439   -2.4847 H   0  0  0  0  0  0  0  0  0  0  0  0
   14.3230   -5.5377   -1.7539 C   0  0  0  0  0  0  0  0  0  0  0  0
   13.3696   -5.1617   -2.1145 H   0  0  0  0  0  0  0  0  0  0  0  0
   15.3832   -2.2223   -1.7597 C   0  0  0  0  0  0  0  0  0  0  0  0
   15.9325   -2.6224   -2.9892 C   0  0  0  0  0  0  0  0  0  0  0  0
   16.0029   -3.6797   -3.2199 H   0  0  0  0  0  0  0  0  0  0  0  0
   16.4094   -1.6767   -3.9079 C   0  0  0  0  0  0  0  0  0  0  0  0
   16.8629   -1.9969   -4.8416 H   0  0  0  0  0  0  0  0  0  0  0  0
   16.3325   -0.3121   -3.6107 C   0  0  0  0  0  0  0  0  0  0  0  0
   16.7040    0.4281   -4.3130 H   0  0  0  0  0  0  0  0  0  0  0  0
   15.7784    0.1217   -2.4018 C   0  0  0  0  0  0  0  0  0  0  0  0
   15.7072    1.5616   -2.0992 C   0  0  0  0  0  0  0  0  0  0  0  0
   15.8924    2.5313   -3.1007 C   0  0  0  0  0  0  0  0  0  0  0  0
   16.0916    2.1972   -4.1152 H   0  0  0  0  0  0  0  0  0  0  0  0
   15.8372    3.8554   -2.8644 N   0  0  0  0  0  0  0  0  0  0  0  0
   15.5844    4.2645   -1.6122 C   0  0  0  0  0  0  0  0  0  0  0  0
   15.5368    5.3290   -1.4092 H   0  0  0  0  0  0  0  0  0  0  0  0
   15.3913    3.3680   -0.5598 C   0  0  0  0  0  0  0  0  0  0  0  0
   15.2020    3.7470    0.4357 H   0  0  0  0  0  0  0  0  0  0  0  0
   15.4659    1.9985   -0.7988 C   0  0  0  0  0  0  0  0  0  0  0  0
   15.3571    1.2682   -0.0034 H   0  0  0  0  0  0  0  0  0  0  0  0
   15.3023   -0.8410   -1.4934 C   0  0  0  0  0  0  0  0  0  0  0  0
   14.8649   -0.5004   -0.5599 H   0  0  0  0  0  0  0  0  0  0  0  0
   15.2483   -2.8901    0.6182 N   0  0  0  0  0  4  0  0  0  0  0  0
   16.2151   -2.9707    0.9468 H   0  0  0  0  0  0  0  0  0  0  0  0
   14.2401   -2.6542    1.3907 C   0  0  0  0  0  0  0  0  0  0  0  0
   14.4062   -2.3897    2.7165 N   0  0  0  0  0  0  0  0  0  0  0  0
   13.6009   -2.1331    3.2843 H   0  0  0  0  0  0  0  0  0  0  0  0
   15.3523   -2.3107    3.0901 H   0  0  0  0  0  0  0  0  0  0  0  0
  1  2  1  0
  2  3  1  0
  3  4  2  0
  3  5  1  0
  5  6  1  6
  5  7  1  0
  7  8  1  0
  7  9  1  0
  5 10  1  0
 10 11  1  0
 10 12  1  0
 10 13  1  0
 13 14  1  0
 14 15  2  0
 14 16  1  0
 16 17  1  6
 17 18  2  0
 18 19  1  0
 18 20  1  0
 20 21  1  0
 20 22  2  0
 22 23  1  0
 22 24  1  0
 24 25  1  0
 24 26  2  0
 26 27  1  0
 16 28  1  0
 28 29  2  0
 29 30  1  0
 29 31  1  0
 31 32  1  0
 31 33  2  0
 33 34  1  0
 33 35  1  0
 35 36  1  0
 36 37  2  0
 37 38  1  0
 37 39  1  0
 39 40  2  0
 40 41  1  0
 40 42  1  0
 42 43  1  0
 42 44  2  0
 44 45  1  0
 35 46  2  0
 46 47  1  0
 16 48  1  0
 48 49  1  0
 48 50  2  0
 50 51  1  0
 51 52  1  0
 51 53  1  0
 50 13  1  0
 26 17  1  0
 46 28  1  0
 44 36  1  0
M  CHG  1  48   1
M  END
>  <score>  (480) 
5.22255

$$$$

     RDKit          3D

 48 51  0  0  0  0  0  0  0  0999 V2000
   11.2123   -4.9567    3.5105 H   0  0  0  0  0  0  0  0  0  0  0  0
   11.4344   -4.0303    3.3247 O   0  0  0  0  0  0  0  0  0  0  0  0
   11.2729   -3.9099    1.9923 C   0  0  0  0  0  0  0  0  0  0  0  0
   10.8486   -4.8113    1.2930 O   0  0  0  0  0  0  0  0  0  0  0  0
   11.6975   -2.5958    1.3246 C   0  0  0  0  0  0  0  0  0  0  0  0
   11.6745   -1.8239    2.0942 H   0  0  0  0  0  0  0  0  0  0  0  0
   10.9335   -2.3167    0.5946 H   0  0  0  0  0  0  0  0  0  0  0  0
   13.0347   -2.6457    0.6871 N   0  0  0  0  0  0  0  0  0  0  0  0
   13.3130   -3.0055   -0.6206 C   0  0  0  0  0  0  0  0  0  0  0  0
   12.4370   -3.0982   -1.4772 O   0  0  0  0  0  0  0  0  0  0  0  0
   14.8218   -3.2477   -0.7908 C   0  0  1  0  0  0  0  0  0  0  0  0
   15.1725   -4.7184   -1.0749 C   0  0  0  0  0  0  0  0  0  0  0  0
   16.3900   -5.2421   -0.6086 C   0  0  0  0  0  0  0  0  0  0  0  0
   17.0691   -4.5913   -0.0670 H   0  0  0  0  0  0  0  0  0  0  0  0
   16.7288   -6.5850   -0.8007 C   0  0  0  0  0  0  0  0  0  0  0  0
   17.6740   -6.9561   -0.4178 H   0  0  0  0  0  0  0  0  0  0  0  0
   15.8541   -7.4426   -1.4714 C   0  0  0  0  0  0  0  0  0  0  0  0
   16.1227   -8.4873   -1.6113 H   0  0  0  0  0  0  0  0  0  0  0  0
   14.6427   -6.9430   -1.9606 C   0  0  0  0  0  0  0  0  0  0  0  0
   13.9719   -7.6155   -2.4880 H   0  0  0  0  0  0  0  0  0  0  0  0
   14.3023   -5.5920   -1.7678 C   0  0  0  0  0  0  0  0  0  0  0  0
   13.3527   -5.2381   -2.1604 H   0  0  0  0  0  0  0  0  0  0  0  0
   15.3900   -2.2435   -1.7883 C   0  0  0  0  0  0  0  0  0  0  0  0
   15.9488   -2.6452   -3.0114 C   0  0  0  0  0  0  0  0  0  0  0  0
   16.0069   -3.7011   -3.2632 H   0  0  0  0  0  0  0  0  0  0  0  0
   16.4321   -1.6898   -3.9128 C   0  0  0  0  0  0  0  0  0  0  0  0
   16.8665   -2.0086   -4.8548 H   0  0  0  0  0  0  0  0  0  0  0  0
   16.3487   -0.3225   -3.6134 C   0  0  0  0  0  0  0  0  0  0  0  0
   16.7298    0.4009   -4.3269 H   0  0  0  0  0  0  0  0  0  0  0  0
   15.7736    0.1200   -2.4111 C   0  0  0  0  0  0  0  0  0  0  0  0
   15.6837    1.5731   -2.0945 C   0  0  0  0  0  0  0  0  0  0  0  0
   15.8623    2.5551   -3.0867 C   0  0  0  0  0  0  0  0  0  0  0  0
   16.0406    2.2323   -4.1071 H   0  0  0  0  0  0  0  0  0  0  0  0
   15.8208    3.8821   -2.8462 N   0  0  0  0  0  0  0  0  0  0  0  0
   15.5848    4.3035   -1.5945 C   0  0  0  0  0  0  0  0  0  0  0  0
   15.5709    5.3721   -1.3881 H   0  0  0  0  0  0  0  0  0  0  0  0
   15.3693    3.4036   -0.5502 C   0  0  0  0  0  0  0  0  0  0  0  0
   15.1674    3.7872    0.4434 H   0  0  0  0  0  0  0  0  0  0  0  0
   15.4292    2.0284   -0.7956 C   0  0  0  0  0  0  0  0  0  0  0  0
   15.2912    1.3187    0.0107 H   0  0  0  0  0  0  0  0  0  0  0  0
   15.3027   -0.8592   -1.5163 C   0  0  0  0  0  0  0  0  0  0  0  0
   14.8674   -0.5340   -0.5773 H   0  0  0  0  0  0  0  0  0  0  0  0
   15.2340   -2.8917    0.5848 N   0  0  0  0  0  4  0  0  0  0  0  0
   16.2024   -2.9103    0.9018 H   0  0  0  0  0  0  0  0  0  0  0  0
   14.2397   -2.6081    1.3541 C   0  0  0  0  0  0  0  0  0  0  0  0
   14.4012   -2.3437    2.6863 N   0  0  0  0  0  0  0  0  0  0  0  0
   13.5850   -2.1455    3.2628 H   0  0  0  0  0  0  0  0  0  0  0  0
   15.3362   -2.3529    3.0943 H   0  0  0  0  0  0  0  0  0  0  0  0
  1  2  1  0
  2  3  1  0
  3  4  2  0
  3  5  1  0
  5  6  1  0
  5  7  1  0
  5  8  1  0
  8  9  1  0
  9 10  2  0
  9 11  1  0
 11 12  1  6
 12 13  2  0
 13 14  1  0
 13 15  1  0
 15 16  1  0
 15 17  2  0
 17 18  1  0
 17 19  1  0
 19 20  1  0
 19 21  2  0
 21 22  1  0
 11 23  1  0
 23 24  2  0
 24 25  1  0
 24 26  1  0
 26 27  1  0
 26 28  2  0
 28 29  1  0
 28 30  1  0
 30 31  1  0
 31 32  2  0
 32 33  1  0
 32 34  1  0
 34 35  2  0
 35 36  1  0
 35 37  1  0
 37 38  1  0
 37 39  2  0
 39 40  1  0
 30 41  2  0
 41 42  1  0
 11 43  1  0
 43 44  1  0
 43 45  2  0
 45 46  1  0
 46 47  1  0
 46 48  1  0
 45  8  1  0
 21 12  1  0
 41 23  1  0
 39 31  1  0
M  CHG  1  43   1
M  END
>  <score>  (481) 
5.22184

$$$$

     RDKit          3D

 52 56  0  0  0  0  0  0  0  0999 V2000
   15.5580    5.3582   -1.3915 H   0  0  0  0  0  0  0  0  0  0  0  0
   15.5868    4.2906   -1.6031 C   0  0  0  0  0  0  0  0  0  0  0  0
   15.8206    3.8725   -2.8575 N   0  0  0  0  0  0  0  0  0  0  0  0
   15.8751    2.5455   -3.0917 C   0  0  0  0  0  0  0  0  0  0  0  0
   16.0633    2.2079   -4.1046 H   0  0  0  0  0  0  0  0  0  0  0  0
   15.6922    1.5694   -2.0980 C   0  0  0  0  0  0  0  0  0  0  0  0
   15.7729    0.1218   -2.4090 C   0  0  0  0  0  0  0  0  0  0  0  0
   16.3328   -0.3173   -3.6133 C   0  0  0  0  0  0  0  0  0  0  0  0
   16.7161    0.4244   -4.3058 H   0  0  0  0  0  0  0  0  0  0  0  0
   16.4261   -1.6849   -3.9081 C   0  0  0  0  0  0  0  0  0  0  0  0
   16.8646   -2.0044   -4.8475 H   0  0  0  0  0  0  0  0  0  0  0  0
   15.9443   -2.6377   -3.0016 C   0  0  0  0  0  0  0  0  0  0  0  0
   16.0025   -3.6966   -3.2434 H   0  0  0  0  0  0  0  0  0  0  0  0
   15.3788   -2.2343   -1.7812 C   0  0  0  0  0  0  0  0  0  0  0  0
   14.8286   -3.2477   -0.7758 C   0  0  2  0  0  0  0  0  0  0  0  0
   15.1877   -4.7078   -1.0759 C   0  0  0  0  0  0  0  0  0  0  0  0
   16.4024   -5.2317   -0.6066 C   0  0  0  0  0  0  0  0  0  0  0  0
   17.0766   -4.5800   -0.0591 H   0  0  0  0  0  0  0  0  0  0  0  0
   16.7379   -6.5758   -0.8041 C   0  0  0  0  0  0  0  0  0  0  0  0
   17.6745   -6.9609   -0.4123 H   0  0  0  0  0  0  0  0  0  0  0  0
   15.8582   -7.4267   -1.4783 C   0  0  0  0  0  0  0  0  0  0  0  0
   16.1098   -8.4749   -1.6140 H   0  0  0  0  0  0  0  0  0  0  0  0
   14.6469   -6.9259   -1.9646 C   0  0  0  0  0  0  0  0  0  0  0  0
   13.9648   -7.5917   -2.4873 H   0  0  0  0  0  0  0  0  0  0  0  0
   14.3149   -5.5748   -1.7687 C   0  0  0  0  0  0  0  0  0  0  0  0
   13.3606   -5.2064   -2.1355 H   0  0  0  0  0  0  0  0  0  0  0  0
   13.3109   -3.0653   -0.5948 C   0  0  0  0  0  0  0  0  0  0  0  0
   12.4677   -3.1419   -1.4852 O   0  0  0  0  0  0  0  0  0  0  0  0
   13.0375   -2.7000    0.7095 N   0  0  0  0  0  0  0  0  0  0  0  0
   11.7346   -2.6420    1.3120 N   0  0  0  0  0  0  0  0  0  0  0  0
   10.6392   -1.8278    0.9970 C   0  0  0  0  0  0  0  0  0  0  0  0
   10.6700   -0.7861   -0.0805 C   0  0  0  0  0  0  0  0  0  0  0  0
    9.9957    0.0469    0.1466 H   0  0  0  0  0  0  0  0  0  0  0  0
   11.6905   -0.4073   -0.1791 H   0  0  0  0  0  0  0  0  0  0  0  0
   10.3706   -1.2355   -1.0306 H   0  0  0  0  0  0  0  0  0  0  0  0
    9.5922   -2.1168    1.7333 N   0  0  0  0  0  0  0  0  0  0  0  0
   10.0302   -3.1343    2.5744 C   0  0  0  0  0  0  0  0  0  0  0  0
    9.4232   -3.6114    3.3330 H   0  0  0  0  0  0  0  0  0  0  0  0
   11.3269   -3.4627    2.3266 C   0  0  0  0  0  0  0  0  0  0  0  0
   11.9193   -4.2106    2.8349 H   0  0  0  0  0  0  0  0  0  0  0  0
   14.2500   -2.6433    1.3741 C   0  0  0  0  0  0  0  0  0  0  0  0
   14.4154   -2.3561    2.6981 N   0  0  0  0  0  0  0  0  0  0  0  0
   15.3548   -2.3439    3.0975 H   0  0  0  0  0  0  0  0  0  0  0  0
   13.6081   -2.0854    3.2564 H   0  0  0  0  0  0  0  0  0  0  0  0
   15.2542   -2.8996    0.5985 N   0  0  0  0  0  4  0  0  0  0  0  0
   16.2261   -2.9378    0.9178 H   0  0  0  0  0  0  0  0  0  0  0  0
   15.3046   -0.8497   -1.5062 C   0  0  0  0  0  0  0  0  0  0  0  0
   14.8673   -0.5127   -0.5723 H   0  0  0  0  0  0  0  0  0  0  0  0
   15.4418    2.0147   -0.8003 C   0  0  0  0  0  0  0  0  0  0  0  0
   15.3257    1.2829   -0.0078 H   0  0  0  0  0  0  0  0  0  0  0  0
   15.3811    3.3901   -0.5546 C   0  0  0  0  0  0  0  0  0  0  0  0
   15.1763    3.7767    0.4379 H   0  0  0  0  0  0  0  0  0  0  0  0
  1  2  1  0
  2  3  2  0
  3  4  1  0
  4  5  1  0
  4  6  2  0
  6  7  1  0
  7  8  2  0
  8  9  1  0
  8 10  1  0
 10 11  1  0
 10 12  2  0
 12 13  1  0
 12 14  1  0
 15 14  1  6
 15 16  1  0
 16 17  2  0
 17 18  1  0
 17 19  1  0
 19 20  1  0
 19 21  2  0
 21 22  1  0
 21 23  1  0
 23 24  1  0
 23 25  2  0
 25 26  1  0
 15 27  1  0
 27 28  2  0
 27 29  1  0
 29 30  1  0
 30 31  1  0
 31 32  1  0
 32 33  1  0
 32 34  1  0
 32 35  1  0
 31 36  2  0
 36 37  1  0
 37 38  1  0
 37 39  2  0
 39 40  1  0
 29 41  1  0
 41 42  1  0
 42 43  1  0
 42 44  1  0
 41 45  2  0
 45 46  1  0
 14 47  2  0
 47 48  1  0
  6 49  1  0
 49 50  1  0
 49 51  2  0
 51 52  1  0
 51  2  1  0
 47  7  1  0
 45 15  1  0
 25 16  1  0
 39 30  1  0
M  CHG  1  45   1
M  END
>  <score>  (482) 
5.21239

$$$$

     RDKit          3D

 52 56  0  0  0  0  0  0  0  0999 V2000
   15.5450    5.3399   -1.3998 H   0  0  0  0  0  0  0  0  0  0  0  0
   15.5865    4.2750   -1.6093 C   0  0  0  0  0  0  0  0  0  0  0  0
   15.8273    3.8625   -2.8637 N   0  0  0  0  0  0  0  0  0  0  0  0
   15.8856    2.5368   -3.0976 C   0  0  0  0  0  0  0  0  0  0  0  0
   16.0834    2.1929   -4.1084 H   0  0  0  0  0  0  0  0  0  0  0  0
   15.7024    1.5669   -2.0982 C   0  0  0  0  0  0  0  0  0  0  0  0
   15.7753    0.1238   -2.4003 C   0  0  0  0  0  0  0  0  0  0  0  0
   16.3277   -0.3158   -3.6064 C   0  0  0  0  0  0  0  0  0  0  0  0
   16.7044    0.4303   -4.2978 H   0  0  0  0  0  0  0  0  0  0  0  0
   16.4122   -1.6821   -3.8995 C   0  0  0  0  0  0  0  0  0  0  0  0
   16.8615   -2.0048   -4.8328 H   0  0  0  0  0  0  0  0  0  0  0  0
   15.9322   -2.6282   -2.9854 C   0  0  0  0  0  0  0  0  0  0  0  0
   15.9927   -3.6877   -3.2174 H   0  0  0  0  0  0  0  0  0  0  0  0
   15.3764   -2.2226   -1.7617 C   0  0  0  0  0  0  0  0  0  0  0  0
   14.8092   -3.2338   -0.7662 C   0  0  2  0  0  0  0  0  0  0  0  0
   15.1771   -4.6901   -1.0644 C   0  0  0  0  0  0  0  0  0  0  0  0
   16.3966   -5.2134   -0.6013 C   0  0  0  0  0  0  0  0  0  0  0  0
   17.0733   -4.5637   -0.0539 H   0  0  0  0  0  0  0  0  0  0  0  0
   16.7336   -6.5574   -0.8011 C   0  0  0  0  0  0  0  0  0  0  0  0
   17.6704   -6.9486   -0.4138 H   0  0  0  0  0  0  0  0  0  0  0  0
   15.8558   -7.4031   -1.4837 C   0  0  0  0  0  0  0  0  0  0  0  0
   16.1014   -8.4526   -1.6178 H   0  0  0  0  0  0  0  0  0  0  0  0
   14.6444   -6.8999   -1.9679 C   0  0  0  0  0  0  0  0  0  0  0  0
   13.9600   -7.5642   -2.4878 H   0  0  0  0  0  0  0  0  0  0  0  0
   14.3067   -5.5531   -1.7590 C   0  0  0  0  0  0  0  0  0  0  0  0
   13.3532   -5.1782   -2.1190 H   0  0  0  0  0  0  0  0  0  0  0  0
   13.2883   -3.0252   -0.6138 C   0  0  0  0  0  0  0  0  0  0  0  0
   12.4293   -3.1302   -1.4887 O   0  0  0  0  0  0  0  0  0  0  0  0
   13.0282   -2.6883    0.6966 N   0  0  0  0  0  0  0  0  0  0  0  0
   11.7739   -2.4952    1.2463 C   0  0  0  0  0  0  0  0  0  0  0  0
   10.8780   -1.5928    0.6587 C   0  0  0  0  0  0  0  0  0  0  0  0
   11.1899   -1.0216   -0.2151 H   0  0  0  0  0  0  0  0  0  0  0  0
    9.5994   -1.4295    1.2132 C   0  0  0  0  0  0  0  0  0  0  0  0
    8.8920   -0.7208    0.7943 H   0  0  0  0  0  0  0  0  0  0  0  0
    9.2222   -2.1937    2.3222 C   0  0  0  0  0  0  0  0  0  0  0  0
    7.6243   -2.1247    2.9633 Cl  0  0  0  0  0  0  0  0  0  0  0  0
   10.1266   -3.0689    2.9161 C   0  0  0  0  0  0  0  0  0  0  0  0
    9.8082   -3.6307    3.7883 H   0  0  0  0  0  0  0  0  0  0  0  0
   11.4109   -3.2186    2.3865 C   0  0  0  0  0  0  0  0  0  0  0  0
   12.1204   -3.9120    2.8375 H   0  0  0  0  0  0  0  0  0  0  0  0
   14.2170   -2.6600    1.3870 C   0  0  0  0  0  0  0  0  0  0  0  0
   14.3985   -2.3834    2.7140 N   0  0  0  0  0  0  0  0  0  0  0  0
   15.3502   -2.3220    3.0718 H   0  0  0  0  0  0  0  0  0  0  0  0
   13.6171   -2.0495    3.2778 H   0  0  0  0  0  0  0  0  0  0  0  0
   15.2232   -2.9158    0.6204 N   0  0  0  0  0  4  0  0  0  0  0  0
   16.1882   -2.9625    0.9550 H   0  0  0  0  0  0  0  0  0  0  0  0
   15.3029   -0.8392   -1.4913 C   0  0  0  0  0  0  0  0  0  0  0  0
   14.8638   -0.4922   -0.5606 H   0  0  0  0  0  0  0  0  0  0  0  0
   15.4572    2.0054   -0.8004 C   0  0  0  0  0  0  0  0  0  0  0  0
   15.3532    1.2638   -0.0148 H   0  0  0  0  0  0  0  0  0  0  0  0
   15.3885    3.3771   -0.5592 C   0  0  0  0  0  0  0  0  0  0  0  0
   15.1903    3.7599    0.4333 H   0  0  0  0  0  0  0  0  0  0  0  0
  1  2  1  0
  2  3  2  0
  3  4  1  0
  4  5  1  0
  4  6  2  0
  6  7  1  0
  7  8  2  0
  8  9  1  0
  8 10  1  0
 10 11  1  0
 10 12  2  0
 12 13  1  0
 12 14  1  0
 15 14  1  6
 15 16  1  0
 16 17  2  0
 17 18  1  0
 17 19  1  0
 19 20  1  0
 19 21  2  0
 21 22  1  0
 21 23  1  0
 23 24  1  0
 23 25  2  0
 25 26  1  0
 15 27  1  0
 27 28  2  0
 27 29  1  0
 29 30  1  0
 30 31  2  0
 31 32  1  0
 31 33  1  0
 33 34  1  0
 33 35  2  0
 35 36  1  0
 35 37  1  0
 37 38  1  0
 37 39  2  0
 39 40  1  0
 29 41  1  0
 41 42  1  0
 42 43  1  0
 42 44  1  0
 41 45  2  0
 45 46  1  0
 14 47  2  0
 47 48  1  0
  6 49  1  0
 49 50  1  0
 49 51  2  0
 51 52  1  0
 51  2  1  0
 47  7  1  0
 45 15  1  0
 25 16  1  0
 39 30  1  0
M  CHG  1  45   1
M  END
>  <score>  (483) 
5.21031

$$$$

     RDKit          3D

 60 63  0  0  0  0  0  0  0  0999 V2000
   15.5163    5.3209   -1.4185 H   0  0  0  0  0  0  0  0  0  0  0  0
   15.5937    4.2555   -1.6124 C   0  0  0  0  0  0  0  0  0  0  0  0
   15.8443    3.8447   -2.8651 N   0  0  0  0  0  0  0  0  0  0  0  0
   15.9260    2.5213   -3.0952 C   0  0  0  0  0  0  0  0  0  0  0  0
   16.1261    2.1857   -4.1079 H   0  0  0  0  0  0  0  0  0  0  0  0
   15.7554    1.5509   -2.0952 C   0  0  0  0  0  0  0  0  0  0  0  0
   15.8312    0.1141   -2.4095 C   0  0  0  0  0  0  0  0  0  0  0  0
   16.3502   -0.3238   -3.6343 C   0  0  0  0  0  0  0  0  0  0  0  0
   16.7000    0.4070   -4.3558 H   0  0  0  0  0  0  0  0  0  0  0  0
   16.4284   -1.6885   -3.9285 C   0  0  0  0  0  0  0  0  0  0  0  0
   16.8391   -2.0074   -4.8810 H   0  0  0  0  0  0  0  0  0  0  0  0
   15.9873   -2.6337   -2.9950 C   0  0  0  0  0  0  0  0  0  0  0  0
   16.0518   -3.6924   -3.2285 H   0  0  0  0  0  0  0  0  0  0  0  0
   15.4637   -2.2248   -1.7574 C   0  0  0  0  0  0  0  0  0  0  0  0
   14.9358   -3.2188   -0.7334 C   0  0  2  0  0  0  0  0  0  0  0  0
   15.2743   -4.6660   -1.0393 C   0  0  0  0  0  0  0  0  0  0  0  0
   16.4831   -5.2178   -0.5941 C   0  0  0  0  0  0  0  0  0  0  0  0
   17.1871   -4.5885   -0.0559 H   0  0  0  0  0  0  0  0  0  0  0  0
   16.7750   -6.5655   -0.8133 C   0  0  0  0  0  0  0  0  0  0  0  0
   17.7078   -6.9748   -0.4392 H   0  0  0  0  0  0  0  0  0  0  0  0
   15.8622   -7.3747   -1.4985 C   0  0  0  0  0  0  0  0  0  0  0  0
   16.0850   -8.4246   -1.6594 H   0  0  0  0  0  0  0  0  0  0  0  0
   14.6626   -6.8315   -1.9692 C   0  0  0  0  0  0  0  0  0  0  0  0
   13.9501   -7.4560   -2.4998 H   0  0  0  0  0  0  0  0  0  0  0  0
   14.3714   -5.4827   -1.7434 C   0  0  0  0  0  0  0  0  0  0  0  0
   13.4316   -5.0731   -2.1023 H   0  0  0  0  0  0  0  0  0  0  0  0
   13.4222   -3.0238   -0.5355 C   0  0  0  0  0  0  0  0  0  0  0  0
   12.5403   -3.1885   -1.3793 O   0  0  0  0  0  0  0  0  0  0  0  0
   13.2027   -2.6765    0.7794 N   0  0  0  0  0  0  0  0  0  0  0  0
   11.9748   -2.3228    1.3706 O   0  0  0  0  0  0  0  0  0  0  0  0
   11.2924   -3.4506    1.9225 C   0  0  0  0  0  0  0  0  0  0  0  0
   11.7168   -3.7273    2.8945 H   0  0  0  0  0  0  0  0  0  0  0  0
   11.3614   -4.3290    1.2642 H   0  0  0  0  0  0  0  0  0  0  0  0
    9.8567   -2.9726    2.0535 C   0  0  0  0  0  0  0  0  0  0  0  0
    9.2276   -3.7360    2.5233 H   0  0  0  0  0  0  0  0  0  0  0  0
    9.8450   -2.0732    2.6819 H   0  0  0  0  0  0  0  0  0  0  0  0
    9.3568   -2.6422    0.6467 C   0  0  0  0  0  0  0  0  0  0  0  0
    9.1930   -3.5753    0.0944 H   0  0  0  0  0  0  0  0  0  0  0  0
   10.1057   -2.0477    0.1065 H   0  0  0  0  0  0  0  0  0  0  0  0
    8.1143   -1.8688    0.7026 N   0  0  0  0  0  0  0  0  0  0  0  0
    8.2661   -0.5044    1.2518 C   0  0  0  0  0  0  0  0  0  0  0  0
    9.2052   -0.0412    0.9256 H   0  0  0  0  0  0  0  0  0  0  0  0
    8.2605   -0.5117    2.3451 H   0  0  0  0  0  0  0  0  0  0  0  0
    7.4327    0.1199    0.9220 H   0  0  0  0  0  0  0  0  0  0  0  0
    7.3361   -1.9995   -0.5382 C   0  0  0  0  0  0  0  0  0  0  0  0
    6.2824   -1.8252   -0.3379 H   0  0  0  0  0  0  0  0  0  0  0  0
    7.4093   -3.0204   -0.9327 H   0  0  0  0  0  0  0  0  0  0  0  0
    7.6829   -1.2735   -1.2830 H   0  0  0  0  0  0  0  0  0  0  0  0
   14.4157   -2.5613    1.4071 C   0  0  0  0  0  0  0  0  0  0  0  0
   14.5778   -2.1797    2.7117 N   0  0  0  0  0  0  0  0  0  0  0  0
   15.4937   -2.2750    3.1372 H   0  0  0  0  0  0  0  0  0  0  0  0
   13.7526   -2.0720    3.2997 H   0  0  0  0  0  0  0  0  0  0  0  0
   15.3987   -2.8735    0.6297 N   0  0  0  0  0  4  0  0  0  0  0  0
   16.3651   -2.9787    0.9423 H   0  0  0  0  0  0  0  0  0  0  0  0
   15.3810   -0.8459   -1.4914 C   0  0  0  0  0  0  0  0  0  0  0  0
   14.9501   -0.5074   -0.5537 H   0  0  0  0  0  0  0  0  0  0  0  0
   15.5159    1.9890   -0.7913 C   0  0  0  0  0  0  0  0  0  0  0  0
   15.4083    1.2703    0.0162 H   0  0  0  0  0  0  0  0  0  0  0  0
   15.4307    3.3586   -0.5538 C   0  0  0  0  0  0  0  0  0  0  0  0
   15.2391    3.7319    0.4451 H   0  0  0  0  0  0  0  0  0  0  0  0
  1  2  1  0
  2  3  2  0
  3  4  1  0
  4  5  1  0
  4  6  2  0
  6  7  1  0
  7  8  2  0
  8  9  1  0
  8 10  1  0
 10 11  1  0
 10 12  2  0
 12 13  1  0
 12 14  1  0
 15 14  1  6
 15 16  1  0
 16 17  2  0
 17 18  1  0
 17 19  1  0
 19 20  1  0
 19 21  2  0
 21 22  1  0
 21 23  1  0
 23 24  1  0
 23 25  2  0
 25 26  1  0
 15 27  1  0
 27 28  2  0
 27 29  1  0
 29 30  1  0
 30 31  1  0
 31 32  1  0
 31 33  1  0
 31 34  1  0
 34 35  1  0
 34 36  1  0
 34 37  1  0
 37 38  1  0
 37 39  1  0
 37 40  1  0
 40 41  1  0
 41 42  1  0
 41 43  1  0
 41 44  1  0
 40 45  1  0
 45 46  1  0
 45 47  1  0
 45 48  1  0
 29 49  1  0
 49 50  1  0
 50 51  1  0
 50 52  1  0
 49 53  2  0
 53 54  1  0
 14 55  2  0
 55 56  1  0
  6 57  1  0
 57 58  1  0
 57 59  2  0
 59 60  1  0
 59  2  1  0
 55  7  1  0
 53 15  1  0
 25 16  1  0
M  CHG  1  53   1
M  END
>  <score>  (484) 
5.20859

$$$$

     RDKit          3D

 65 69  0  0  0  0  0  0  0  0999 V2000
   15.5266    5.2528   -1.3855 H   0  0  0  0  0  0  0  0  0  0  0  0
   15.6315    4.1907   -1.5864 C   0  0  0  0  0  0  0  0  0  0  0  0
   15.8704    3.7949   -2.8451 N   0  0  0  0  0  0  0  0  0  0  0  0
   16.0014    2.4771   -3.0830 C   0  0  0  0  0  0  0  0  0  0  0  0
   16.1866    2.1641   -4.1060 H   0  0  0  0  0  0  0  0  0  0  0  0
   15.9016    1.4936   -2.0817 C   0  0  0  0  0  0  0  0  0  0  0  0
   16.0542    0.0619   -2.4067 C   0  0  0  0  0  0  0  0  0  0  0  0
   16.4445   -0.3352   -3.6915 C   0  0  0  0  0  0  0  0  0  0  0  0
   16.6450    0.4184   -4.4458 H   0  0  0  0  0  0  0  0  0  0  0  0
   16.5680   -1.6891   -4.0144 C   0  0  0  0  0  0  0  0  0  0  0  0
   16.8666   -1.9701   -5.0176 H   0  0  0  0  0  0  0  0  0  0  0  0
   16.2774   -2.6708   -3.0614 C   0  0  0  0  0  0  0  0  0  0  0  0
   16.3310   -3.7211   -3.3299 H   0  0  0  0  0  0  0  0  0  0  0  0
   15.8711   -2.3085   -1.7712 C   0  0  0  0  0  0  0  0  0  0  0  0
   15.3387   -3.3417   -0.7894 C   0  0  2  0  0  0  0  0  0  0  0  0
   15.6783   -4.8051   -1.0971 C   0  0  0  0  0  0  0  0  0  0  0  0
   16.8503   -5.4300   -0.6304 C   0  0  0  0  0  0  0  0  0  0  0  0
   17.5836   -4.8614   -0.0655 H   0  0  0  0  0  0  0  0  0  0  0  0
   17.0750   -6.7967   -0.8654 C   0  0  0  0  0  0  0  0  0  0  0  0
   17.9737   -7.2755   -0.4878 H   0  0  0  0  0  0  0  0  0  0  0  0
   16.1364   -7.5569   -1.5725 C   0  0  0  0  0  0  0  0  0  0  0  0
   16.2931   -8.6192   -1.7375 H   0  0  0  0  0  0  0  0  0  0  0  0
   14.9829   -6.9454   -2.0638 C   0  0  0  0  0  0  0  0  0  0  0  0
   14.2447   -7.5212   -2.6144 H   0  0  0  0  0  0  0  0  0  0  0  0
   14.7644   -5.5857   -1.8330 C   0  0  0  0  0  0  0  0  0  0  0  0
   13.8537   -5.1381   -2.2155 H   0  0  0  0  0  0  0  0  0  0  0  0
   13.8192   -3.1411   -0.7359 C   0  0  0  0  0  0  0  0  0  0  0  0
   13.0328   -3.3497   -1.6619 O   0  0  0  0  0  0  0  0  0  0  0  0
   13.4553   -2.6315    0.4951 N   0  0  0  0  0  0  0  0  0  0  0  0
   12.1701   -2.0972    0.8407 N   0  0  0  0  0  0  0  0  0  0  0  0
   11.1889   -3.1544    1.1052 C   0  0  0  0  0  0  0  0  0  0  0  0
   11.6103   -3.8756    1.8108 H   0  0  0  0  0  0  0  0  0  0  0  0
   10.9697   -3.6864    0.1760 H   0  0  0  0  0  0  0  0  0  0  0  0
    9.9269   -2.5454    1.6776 C   0  0  0  0  0  0  0  0  0  0  0  0
    9.1744   -3.3256    1.8148 H   0  0  0  0  0  0  0  0  0  0  0  0
   10.1567   -2.0979    2.6496 H   0  0  0  0  0  0  0  0  0  0  0  0
    9.3847   -1.4868    0.7216 C   0  0  0  0  0  0  0  0  0  0  0  0
    9.1026   -1.9791   -0.2156 H   0  0  0  0  0  0  0  0  0  0  0  0
    8.1787   -0.8784    1.3071 N   0  0  0  0  0  0  0  0  0  0  0  0
    7.4826    0.0133    0.3589 C   0  0  0  0  0  0  0  0  0  0  0  0
    7.0019    0.8486    0.8566 H   0  0  0  0  0  0  0  0  0  0  0  0
    8.1918    0.4255   -0.3623 H   0  0  0  0  0  0  0  0  0  0  0  0
    6.7225   -0.5422   -0.1934 H   0  0  0  0  0  0  0  0  0  0  0  0
    8.1868   -0.5133    2.7409 C   0  0  0  0  0  0  0  0  0  0  0  0
    8.1451    0.5707    2.8318 H   0  0  0  0  0  0  0  0  0  0  0  0
    9.0828   -0.8763    3.2455 H   0  0  0  0  0  0  0  0  0  0  0  0
    7.3308   -0.9458    3.2708 H   0  0  0  0  0  0  0  0  0  0  0  0
   10.4293   -0.4075    0.3816 C   0  0  0  0  0  0  0  0  0  0  0  0
   10.6035    0.2335    1.2404 H   0  0  0  0  0  0  0  0  0  0  0  0
   10.0462    0.2327   -0.4138 H   0  0  0  0  0  0  0  0  0  0  0  0
   11.7558   -1.0094   -0.0620 C   0  0  0  0  0  0  0  0  0  0  0  0
   12.5297   -0.2323   -0.0809 H   0  0  0  0  0  0  0  0  0  0  0  0
   11.6646   -1.3965   -1.0813 H   0  0  0  0  0  0  0  0  0  0  0  0
   14.6085   -2.5530    1.2510 C   0  0  0  0  0  0  0  0  0  0  0  0
   14.7066   -2.0968    2.5378 N   0  0  0  0  0  0  0  0  0  0  0  0
   15.5474   -2.3547    3.0475 H   0  0  0  0  0  0  0  0  0  0  0  0
   13.8409   -2.0104    3.0640 H   0  0  0  0  0  0  0  0  0  0  0  0
   15.6464   -2.9653    0.6010 N   0  0  0  0  0  4  0  0  0  0  0  0
   16.5970   -2.8325    0.9367 H   0  0  0  0  0  0  0  0  0  0  0  0
   15.7809   -0.9360   -1.4571 C   0  0  0  0  0  0  0  0  0  0  0  0
   15.4496   -0.6369   -0.4668 H   0  0  0  0  0  0  0  0  0  0  0  0
   15.6468    1.9168   -0.7738 C   0  0  0  0  0  0  0  0  0  0  0  0
   15.5633    1.1969    0.0374 H   0  0  0  0  0  0  0  0  0  0  0  0
   15.5104    3.2827   -0.5321 C   0  0  0  0  0  0  0  0  0  0  0  0
   15.3136    3.6484    0.4679 H   0  0  0  0  0  0  0  0  0  0  0  0
  1  2  1  0
  2  3  2  0
  3  4  1  0
  4  5  1  0
  4  6  2  0
  6  7  1  0
  7  8  2  0
  8  9  1  0
  8 10  1  0
 10 11  1  0
 10 12  2  0
 12 13  1  0
 12 14  1  0
 15 14  1  6
 15 16  1  0
 16 17  2  0
 17 18  1  0
 17 19  1  0
 19 20  1  0
 19 21  2  0
 21 22  1  0
 21 23  1  0
 23 24  1  0
 23 25  2  0
 25 26  1  0
 15 27  1  0
 27 28  2  0
 27 29  1  0
 29 30  1  0
 30 31  1  0
 31 32  1  0
 31 33  1  0
 31 34  1  0
 34 35  1  0
 34 36  1  0
 34 37  1  0
 37 38  1  0
 37 39  1  0
 39 40  1  0
 40 41  1  0
 40 42  1  0
 40 43  1  0
 39 44  1  0
 44 45  1  0
 44 46  1  0
 44 47  1  0
 37 48  1  0
 48 49  1  0
 48 50  1  0
 48 51  1  0
 51 52  1  0
 51 53  1  0
 29 54  1  0
 54 55  1  0
 55 56  1  0
 55 57  1  0
 54 58  2  0
 58 59  1  0
 14 60  2  0
 60 61  1  0
  6 62  1  0
 62 63  1  0
 62 64  2  0
 64 65  1  0
 64  2  1  0
 60  7  1  0
 58 15  1  0
 25 16  1  0
 51 30  1  0
M  CHG  1  58   1
M  END
>  <score>  (485) 
5.20796

$$$$

     RDKit          3D

 49 52  0  0  0  0  0  0  0  0999 V2000
   15.5652    5.3689   -1.3876 H   0  0  0  0  0  0  0  0  0  0  0  0
   15.5842    4.2993   -1.5987 C   0  0  0  0  0  0  0  0  0  0  0  0
   15.8185    3.8780   -2.8525 N   0  0  0  0  0  0  0  0  0  0  0  0
   15.8685    2.5493   -3.0892 C   0  0  0  0  0  0  0  0  0  0  0  0
   16.0547    2.2134   -4.1032 H   0  0  0  0  0  0  0  0  0  0  0  0
   15.6891    1.5693   -2.0981 C   0  0  0  0  0  0  0  0  0  0  0  0
   15.7702    0.1200   -2.4105 C   0  0  0  0  0  0  0  0  0  0  0  0
   16.3422   -0.3195   -3.6105 C   0  0  0  0  0  0  0  0  0  0  0  0
   16.7186    0.4189   -4.3106 H   0  0  0  0  0  0  0  0  0  0  0  0
   16.4326   -1.6866   -3.9081 C   0  0  0  0  0  0  0  0  0  0  0  0
   16.8633   -2.0062   -4.8506 H   0  0  0  0  0  0  0  0  0  0  0  0
   15.9494   -2.6428   -3.0062 C   0  0  0  0  0  0  0  0  0  0  0  0
   16.0026   -3.7022   -3.2508 H   0  0  0  0  0  0  0  0  0  0  0  0
   15.3884   -2.2407   -1.7852 C   0  0  0  0  0  0  0  0  0  0  0  0
   14.8325   -3.2508   -0.7876 C   0  0  2  0  0  0  0  0  0  0  0  0
   15.1825   -4.7150   -1.0808 C   0  0  0  0  0  0  0  0  0  0  0  0
   16.3974   -5.2377   -0.6116 C   0  0  0  0  0  0  0  0  0  0  0  0
   17.0672   -4.5825   -0.0617 H   0  0  0  0  0  0  0  0  0  0  0  0
   16.7332   -6.5809   -0.8053 C   0  0  0  0  0  0  0  0  0  0  0  0
   17.6716   -6.9580   -0.4141 H   0  0  0  0  0  0  0  0  0  0  0  0
   15.8545   -7.4349   -1.4753 C   0  0  0  0  0  0  0  0  0  0  0  0
   16.1161   -8.4817   -1.6124 H   0  0  0  0  0  0  0  0  0  0  0  0
   14.6434   -6.9346   -1.9626 C   0  0  0  0  0  0  0  0  0  0  0  0
   13.9696   -7.6044   -2.4883 H   0  0  0  0  0  0  0  0  0  0  0  0
   14.3065   -5.5836   -1.7691 C   0  0  0  0  0  0  0  0  0  0  0  0
   13.3550   -5.2201   -2.1465 H   0  0  0  0  0  0  0  0  0  0  0  0
   13.3216   -3.0082   -0.6253 C   0  0  0  0  0  0  0  0  0  0  0  0
   12.4687   -3.1097   -1.5099 O   0  0  0  0  0  0  0  0  0  0  0  0
   13.0559   -2.6229    0.6697 N   0  0  0  0  0  0  0  0  0  0  0  0
   11.7996   -2.1944    1.1774 O   0  0  0  0  0  0  0  0  0  0  0  0
   11.0839   -3.3050    1.7171 C   0  0  0  0  0  0  0  0  0  0  0  0
   10.8935   -4.0311    0.9208 H   0  0  0  0  0  0  0  0  0  0  0  0
   11.6742   -3.8024    2.4956 H   0  0  0  0  0  0  0  0  0  0  0  0
    9.7692   -2.8069    2.2973 C   0  0  0  0  0  0  0  0  0  0  0  0
    9.1890   -2.3015    1.5176 H   0  0  0  0  0  0  0  0  0  0  0  0
    9.1866   -3.6492    2.6916 H   0  0  0  0  0  0  0  0  0  0  0  0
    9.9655   -2.0967    3.1085 H   0  0  0  0  0  0  0  0  0  0  0  0
   14.2585   -2.6020    1.3548 C   0  0  0  0  0  0  0  0  0  0  0  0
   14.4211   -2.3194    2.6909 N   0  0  0  0  0  0  0  0  0  0  0  0
   13.6037   -2.1166    3.2634 H   0  0  0  0  0  0  0  0  0  0  0  0
   15.3529   -2.3448    3.1118 H   0  0  0  0  0  0  0  0  0  0  0  0
   15.2556   -2.9118    0.5916 N   0  0  0  0  0  4  0  0  0  0  0  0
   16.2322   -2.9363    0.9012 H   0  0  0  0  0  0  0  0  0  0  0  0
   15.3006   -0.8553   -1.5128 C   0  0  0  0  0  0  0  0  0  0  0  0
   14.8707   -0.5199   -0.5755 H   0  0  0  0  0  0  0  0  0  0  0  0
   15.4419    2.0196   -0.7998 C   0  0  0  0  0  0  0  0  0  0  0  0
   15.3112    1.2929   -0.0061 H   0  0  0  0  0  0  0  0  0  0  0  0
   15.3777    3.3963   -0.5530 C   0  0  0  0  0  0  0  0  0  0  0  0
   15.1699    3.7842    0.4387 H   0  0  0  0  0  0  0  0  0  0  0  0
  1  2  1  0
  2  3  2  0
  3  4  1  0
  4  5  1  0
  4  6  2  0
  6  7  1  0
  7  8  2  0
  8  9  1  0
  8 10  1  0
 10 11  1  0
 10 12  2  0
 12 13  1  0
 12 14  1  0
 15 14  1  6
 15 16  1  0
 16 17  2  0
 17 18  1  0
 17 19  1  0
 19 20  1  0
 19 21  2  0
 21 22  1  0
 21 23  1  0
 23 24  1  0
 23 25  2  0
 25 26  1  0
 15 27  1  0
 27 28  2  0
 27 29  1  0
 29 30  1  0
 30 31  1  0
 31 32  1  0
 31 33  1  0
 31 34  1  0
 34 35  1  0
 34 36  1  0
 34 37  1  0
 29 38  1  0
 38 39  1  0
 39 40  1  0
 39 41  1  0
 38 42  2  0
 42 43  1  0
 14 44  2  0
 44 45  1  0
  6 46  1  0
 46 47  1  0
 46 48  2  0
 48 49  1  0
 48  2  1  0
 44  7  1  0
 42 15  1  0
 25 16  1  0
M  CHG  1  42   1
M  END
>  <score>  (486) 
5.20398

$$$$

     RDKit          3D

 51 55  0  0  0  0  0  0  0  0999 V2000
   15.5473    5.3434   -1.3984 H   0  0  0  0  0  0  0  0  0  0  0  0
   15.5865    4.2775   -1.6079 C   0  0  0  0  0  0  0  0  0  0  0  0
   15.8253    3.8641   -2.8618 N   0  0  0  0  0  0  0  0  0  0  0  0
   15.8833    2.5380   -3.0967 C   0  0  0  0  0  0  0  0  0  0  0  0
   16.0810    2.1937   -4.1075 H   0  0  0  0  0  0  0  0  0  0  0  0
   15.7005    1.5674   -2.0979 C   0  0  0  0  0  0  0  0  0  0  0  0
   15.7746    0.1230   -2.4024 C   0  0  0  0  0  0  0  0  0  0  0  0
   16.3287   -0.3161   -3.6082 C   0  0  0  0  0  0  0  0  0  0  0  0
   16.7042    0.4344   -4.2977 H   0  0  0  0  0  0  0  0  0  0  0  0
   16.4156   -1.6825   -3.9022 C   0  0  0  0  0  0  0  0  0  0  0  0
   16.8617   -2.0028   -4.8373 H   0  0  0  0  0  0  0  0  0  0  0  0
   15.9377   -2.6302   -2.9878 C   0  0  0  0  0  0  0  0  0  0  0  0
   15.9968   -3.6893   -3.2233 H   0  0  0  0  0  0  0  0  0  0  0  0
   15.3828   -2.2269   -1.7631 C   0  0  0  0  0  0  0  0  0  0  0  0
   14.8220   -3.2392   -0.7656 C   0  0  2  0  0  0  0  0  0  0  0  0
   15.1851   -4.6948   -1.0670 C   0  0  0  0  0  0  0  0  0  0  0  0
   16.4029   -5.2189   -0.6043 C   0  0  0  0  0  0  0  0  0  0  0  0
   17.0781   -4.5694   -0.0543 H   0  0  0  0  0  0  0  0  0  0  0  0
   16.7378   -6.5644   -0.8021 C   0  0  0  0  0  0  0  0  0  0  0  0
   17.6729   -6.9556   -0.4126 H   0  0  0  0  0  0  0  0  0  0  0  0
   15.8576   -7.4092   -1.4836 C   0  0  0  0  0  0  0  0  0  0  0  0
   16.1018   -8.4600   -1.6170 H   0  0  0  0  0  0  0  0  0  0  0  0
   14.6472   -6.9059   -1.9680 C   0  0  0  0  0  0  0  0  0  0  0  0
   13.9605   -7.5693   -2.4871 H   0  0  0  0  0  0  0  0  0  0  0  0
   14.3123   -5.5570   -1.7616 C   0  0  0  0  0  0  0  0  0  0  0  0
   13.3589   -5.1817   -2.1205 H   0  0  0  0  0  0  0  0  0  0  0  0
   13.3058   -3.0371   -0.6130 C   0  0  0  0  0  0  0  0  0  0  0  0
   12.4600   -3.1440   -1.5024 O   0  0  0  0  0  0  0  0  0  0  0  0
   13.0283   -2.6846    0.6941 N   0  0  0  0  0  0  0  0  0  0  0  0
   11.7532   -2.5049    1.2541 C   0  0  0  0  0  0  0  0  0  0  0  0
   10.7924   -1.6173    0.7063 C   0  0  0  0  0  0  0  0  0  0  0  0
   11.0406   -1.0197   -0.1699 H   0  0  0  0  0  0  0  0  0  0  0  0
    9.5578   -1.4651    1.2215 N   0  0  0  0  0  0  0  0  0  0  0  0
    9.2428   -2.1780    2.3108 C   0  0  0  0  0  0  0  0  0  0  0  0
    7.6480   -2.0913    2.9723 Cl  0  0  0  0  0  0  0  0  0  0  0  0
   10.1335   -3.0591    2.9114 C   0  0  0  0  0  0  0  0  0  0  0  0
    9.7856   -3.6001    3.7793 H   0  0  0  0  0  0  0  0  0  0  0  0
   11.4194   -3.2313    2.3982 C   0  0  0  0  0  0  0  0  0  0  0  0
   12.1354   -3.9218    2.8517 H   0  0  0  0  0  0  0  0  0  0  0  0
   14.2261   -2.6640    1.3849 C   0  0  0  0  0  0  0  0  0  0  0  0
   14.4094   -2.3857    2.7111 N   0  0  0  0  0  0  0  0  0  0  0  0
   15.3625   -2.3301    3.0686 H   0  0  0  0  0  0  0  0  0  0  0  0
   13.6289   -2.0478    3.2712 H   0  0  0  0  0  0  0  0  0  0  0  0
   15.2311   -2.9226    0.6215 N   0  0  0  0  0  4  0  0  0  0  0  0
   16.1987   -2.9581    0.9535 H   0  0  0  0  0  0  0  0  0  0  0  0
   15.3051   -0.8423   -1.4937 C   0  0  0  0  0  0  0  0  0  0  0  0
   14.8660   -0.4954   -0.5631 H   0  0  0  0  0  0  0  0  0  0  0  0
   15.4542    2.0068   -0.7996 C   0  0  0  0  0  0  0  0  0  0  0  0
   15.3480    1.2618   -0.0162 H   0  0  0  0  0  0  0  0  0  0  0  0
   15.3874    3.3796   -0.5583 C   0  0  0  0  0  0  0  0  0  0  0  0
   15.1871    3.7653    0.4325 H   0  0  0  0  0  0  0  0  0  0  0  0
  1  2  1  0
  2  3  2  0
  3  4  1  0
  4  5  1  0
  4  6  2  0
  6  7  1  0
  7  8  2  0
  8  9  1  0
  8 10  1  0
 10 11  1  0
 10 12  2  0
 12 13  1  0
 12 14  1  0
 15 14  1  6
 15 16  1  0
 16 17  2  0
 17 18  1  0
 17 19  1  0
 19 20  1  0
 19 21  2  0
 21 22  1  0
 21 23  1  0
 23 24  1  0
 23 25  2  0
 25 26  1  0
 15 27  1  0
 27 28  2  0
 27 29  1  0
 29 30  1  0
 30 31  2  0
 31 32  1  0
 31 33  1  0
 33 34  2  0
 34 35  1  0
 34 36  1  0
 36 37  1  0
 36 38  2  0
 38 39  1  0
 29 40  1  0
 40 41  1  0
 41 42  1  0
 41 43  1  0
 40 44  2  0
 44 45  1  0
 14 46  2  0
 46 47  1  0
  6 48  1  0
 48 49  1  0
 48 50  2  0
 50 51  1  0
 50  2  1  0
 46  7  1  0
 44 15  1  0
 25 16  1  0
 38 30  1  0
M  CHG  1  44   1
M  END
>  <score>  (487) 
5.20142

$$$$

     RDKit          3D

 59 63  0  0  0  0  0  0  0  0999 V2000
   15.5148    5.3118   -1.4175 H   0  0  0  0  0  0  0  0  0  0  0  0
   15.5927    4.2457   -1.6108 C   0  0  0  0  0  0  0  0  0  0  0  0
   15.8393    3.8326   -2.8632 N   0  0  0  0  0  0  0  0  0  0  0  0
   15.9301    2.5090   -3.0905 C   0  0  0  0  0  0  0  0  0  0  0  0
   16.1307    2.1722   -4.1024 H   0  0  0  0  0  0  0  0  0  0  0  0
   15.7686    1.5378   -2.0893 C   0  0  0  0  0  0  0  0  0  0  0  0
   15.8607    0.1006   -2.4061 C   0  0  0  0  0  0  0  0  0  0  0  0
   16.3593   -0.3230   -3.6444 C   0  0  0  0  0  0  0  0  0  0  0  0
   16.6813    0.4201   -4.3667 H   0  0  0  0  0  0  0  0  0  0  0  0
   16.4521   -1.6845   -3.9492 C   0  0  0  0  0  0  0  0  0  0  0  0
   16.8392   -1.9915   -4.9149 H   0  0  0  0  0  0  0  0  0  0  0  0
   16.0457   -2.6415   -3.0130 C   0  0  0  0  0  0  0  0  0  0  0  0
   16.1121   -3.6978   -3.2555 H   0  0  0  0  0  0  0  0  0  0  0  0
   15.5402   -2.2492   -1.7655 C   0  0  0  0  0  0  0  0  0  0  0  0
   15.0027   -3.2675   -0.7723 C   0  0  2  0  0  0  0  0  0  0  0  0
   15.3648   -4.7078   -1.0706 C   0  0  0  0  0  0  0  0  0  0  0  0
   16.5634   -5.2661   -0.6113 C   0  0  0  0  0  0  0  0  0  0  0  0
   17.2711   -4.6437   -0.0697 H   0  0  0  0  0  0  0  0  0  0  0  0
   16.8329   -6.6220   -0.8245 C   0  0  0  0  0  0  0  0  0  0  0  0
   17.7542   -7.0513   -0.4455 H   0  0  0  0  0  0  0  0  0  0  0  0
   15.9089   -7.4246   -1.5057 C   0  0  0  0  0  0  0  0  0  0  0  0
   16.1055   -8.4804   -1.6576 H   0  0  0  0  0  0  0  0  0  0  0  0
   14.7208   -6.8700   -1.9848 C   0  0  0  0  0  0  0  0  0  0  0  0
   13.9889   -7.4792   -2.5061 H   0  0  0  0  0  0  0  0  0  0  0  0
   14.4581   -5.5195   -1.7738 C   0  0  0  0  0  0  0  0  0  0  0  0
   13.5234   -5.1043   -2.1356 H   0  0  0  0  0  0  0  0  0  0  0  0
   13.4823   -3.1294   -0.7032 C   0  0  0  0  0  0  0  0  0  0  0  0
   12.7031   -3.2824   -1.6472 O   0  0  0  0  0  0  0  0  0  0  0  0
   13.1127   -2.7900    0.5811 N   0  0  0  0  0  0  0  0  0  0  0  0
   11.8020   -2.3342    0.9003 N   0  0  0  0  0  0  0  0  0  0  0  0
   11.0492   -3.0291    1.9647 C   0  0  0  0  0  0  0  0  0  0  0  0
   11.1841   -4.1122    1.8838 H   0  0  0  0  0  0  0  0  0  0  0  0
   11.4514   -2.7080    2.9273 H   0  0  0  0  0  0  0  0  0  0  0  0
    9.5598   -2.6581    1.8906 C   0  0  0  0  0  0  0  0  0  0  0  0
    9.0998   -3.1129    1.0020 H   0  0  0  0  0  0  0  0  0  0  0  0
    9.0505   -3.0602    2.7745 H   0  0  0  0  0  0  0  0  0  0  0  0
    9.4484   -1.1838    1.8452 N   0  0  0  0  0  0  0  0  0  0  0  0
    8.2073   -0.5134    2.2384 C   0  0  0  0  0  0  0  0  0  0  0  0
    7.7459   -1.0123    3.0975 H   0  0  0  0  0  0  0  0  0  0  0  0
    7.4998   -0.4821    1.4060 H   0  0  0  0  0  0  0  0  0  0  0  0
    8.4356    0.5194    2.5091 H   0  0  0  0  0  0  0  0  0  0  0  0
   10.2022   -0.4984    0.7742 C   0  0  0  0  0  0  0  0  0  0  0  0
   10.1112    0.5834    0.8741 H   0  0  0  0  0  0  0  0  0  0  0  0
    9.7965   -0.7705   -0.2097 H   0  0  0  0  0  0  0  0  0  0  0  0
   11.6748   -0.8715    0.8707 C   0  0  0  0  0  0  0  0  0  0  0  0
   12.1309   -0.4340    1.7666 H   0  0  0  0  0  0  0  0  0  0  0  0
   12.2075   -0.4732    0.0058 H   0  0  0  0  0  0  0  0  0  0  0  0
   14.2859   -2.6215    1.3110 C   0  0  0  0  0  0  0  0  0  0  0  0
   14.4688   -2.1931    2.5965 N   0  0  0  0  0  0  0  0  0  0  0  0
   15.3959   -2.3289    3.0016 H   0  0  0  0  0  0  0  0  0  0  0  0
   13.6603   -2.1132    3.2124 H   0  0  0  0  0  0  0  0  0  0  0  0
   15.3379   -2.9195    0.6209 N   0  0  0  0  0  4  0  0  0  0  0  0
   16.2871   -2.9200    0.9982 H   0  0  0  0  0  0  0  0  0  0  0  0
   15.4412   -0.8725   -1.4853 C   0  0  0  0  0  0  0  0  0  0  0  0
   15.0116   -0.5452   -0.5432 H   0  0  0  0  0  0  0  0  0  0  0  0
   15.5264    1.9775   -0.7865 C   0  0  0  0  0  0  0  0  0  0  0  0
   15.4266    1.2550    0.0189 H   0  0  0  0  0  0  0  0  0  0  0  0
   15.4366    3.3493   -0.5504 C   0  0  0  0  0  0  0  0  0  0  0  0
   15.2494    3.7293    0.4467 H   0  0  0  0  0  0  0  0  0  0  0  0
  1  2  1  0
  2  3  2  0
  3  4  1  0
  4  5  1  0
  4  6  2  0
  6  7  1  0
  7  8  2  0
  8  9  1  0
  8 10  1  0
 10 11  1  0
 10 12  2  0
 12 13  1  0
 12 14  1  0
 15 14  1  6
 15 16  1  0
 16 17  2  0
 17 18  1  0
 17 19  1  0
 19 20  1  0
 19 21  2  0
 21 22  1  0
 21 23  1  0
 23 24  1  0
 23 25  2  0
 25 26  1  0
 15 27  1  0
 27 28  2  0
 27 29  1  0
 29 30  1  0
 30 31  1  0
 31 32  1  0
 31 33  1  0
 31 34  1  0
 34 35  1  0
 34 36  1  0
 34 37  1  0
 37 38  1  0
 38 39  1  0
 38 40  1  0
 38 41  1  0
 37 42  1  0
 42 43  1  0
 42 44  1  0
 42 45  1  0
 45 46  1  0
 45 47  1  0
 29 48  1  0
 48 49  1  0
 49 50  1  0
 49 51  1  0
 48 52  2  0
 52 53  1  0
 14 54  2  0
 54 55  1  0
  6 56  1  0
 56 57  1  0
 56 58  2  0
 58 59  1  0
 58  2  1  0
 54  7  1  0
 52 15  1  0
 25 16  1  0
 45 30  1  0
M  CHG  1  52   1
M  END
>  <score>  (488) 
5.19439

$$$$

     RDKit          3D

 52 55  0  0  0  0  0  0  0  0999 V2000
   15.5640    5.3676   -1.3878 H   0  0  0  0  0  0  0  0  0  0  0  0
   15.5847    4.2979   -1.5996 C   0  0  0  0  0  0  0  0  0  0  0  0
   15.8184    3.8771   -2.8538 N   0  0  0  0  0  0  0  0  0  0  0  0
   15.8698    2.5484   -3.0893 C   0  0  0  0  0  0  0  0  0  0  0  0
   16.0564    2.2116   -4.1031 H   0  0  0  0  0  0  0  0  0  0  0  0
   15.6898    1.5690   -2.0985 C   0  0  0  0  0  0  0  0  0  0  0  0
   15.7707    0.1204   -2.4101 C   0  0  0  0  0  0  0  0  0  0  0  0
   16.3402   -0.3192   -3.6110 C   0  0  0  0  0  0  0  0  0  0  0  0
   16.7178    0.4207   -4.3088 H   0  0  0  0  0  0  0  0  0  0  0  0
   16.4321   -1.6857   -3.9075 C   0  0  0  0  0  0  0  0  0  0  0  0
   16.8632   -2.0061   -4.8501 H   0  0  0  0  0  0  0  0  0  0  0  0
   15.9494   -2.6419   -3.0055 C   0  0  0  0  0  0  0  0  0  0  0  0
   16.0021   -3.7020   -3.2496 H   0  0  0  0  0  0  0  0  0  0  0  0
   15.3879   -2.2393   -1.7855 C   0  0  0  0  0  0  0  0  0  0  0  0
   14.8318   -3.2504   -0.7881 C   0  0  2  0  0  0  0  0  0  0  0  0
   15.1835   -4.7145   -1.0813 C   0  0  0  0  0  0  0  0  0  0  0  0
   16.3974   -5.2368   -0.6112 C   0  0  0  0  0  0  0  0  0  0  0  0
   17.0679   -4.5811   -0.0611 H   0  0  0  0  0  0  0  0  0  0  0  0
   16.7340   -6.5800   -0.8057 C   0  0  0  0  0  0  0  0  0  0  0  0
   17.6718   -6.9589   -0.4137 H   0  0  0  0  0  0  0  0  0  0  0  0
   15.8552   -7.4338   -1.4758 C   0  0  0  0  0  0  0  0  0  0  0  0
   16.1150   -8.4809   -1.6127 H   0  0  0  0  0  0  0  0  0  0  0  0
   14.6440   -6.9337   -1.9627 C   0  0  0  0  0  0  0  0  0  0  0  0
   13.9689   -7.6028   -2.4884 H   0  0  0  0  0  0  0  0  0  0  0  0
   14.3075   -5.5826   -1.7696 C   0  0  0  0  0  0  0  0  0  0  0  0
   13.3557   -5.2174   -2.1443 H   0  0  0  0  0  0  0  0  0  0  0  0
   13.3217   -3.0106   -0.6225 C   0  0  0  0  0  0  0  0  0  0  0  0
   12.4649   -3.1086   -1.5038 O   0  0  0  0  0  0  0  0  0  0  0  0
   13.0582   -2.6273    0.6727 N   0  0  0  0  0  0  0  0  0  0  0  0
   11.8067   -2.1955    1.1770 O   0  0  0  0  0  0  0  0  0  0  0  0
   11.0877   -3.3058    1.7157 C   0  0  0  0  0  0  0  0  0  0  0  0
   11.6719   -3.8044    2.4982 H   0  0  0  0  0  0  0  0  0  0  0  0
   10.8906   -4.0349    0.9230 H   0  0  0  0  0  0  0  0  0  0  0  0
    9.7751   -2.7985    2.2940 C   0  0  0  0  0  0  0  0  0  0  0  0
    9.2059   -2.2851    1.5117 H   0  0  0  0  0  0  0  0  0  0  0  0
    9.9798   -2.0810    3.0966 H   0  0  0  0  0  0  0  0  0  0  0  0
    8.9665   -3.9762    2.8423 C   0  0  0  0  0  0  0  0  0  0  0  0
    8.0162   -3.6214    3.2596 H   0  0  0  0  0  0  0  0  0  0  0  0
    9.5322   -4.4864    3.6311 H   0  0  0  0  0  0  0  0  0  0  0  0
    8.7576   -4.6974    2.0429 H   0  0  0  0  0  0  0  0  0  0  0  0
   14.2600   -2.6023    1.3553 C   0  0  0  0  0  0  0  0  0  0  0  0
   14.4209   -2.3158    2.6908 N   0  0  0  0  0  0  0  0  0  0  0  0
   13.6006   -2.1169    3.2626 H   0  0  0  0  0  0  0  0  0  0  0  0
   15.3504   -2.3442    3.1108 H   0  0  0  0  0  0  0  0  0  0  0  0
   15.2570   -2.9124    0.5914 N   0  0  0  0  0  4  0  0  0  0  0  0
   16.2323   -2.9389    0.9000 H   0  0  0  0  0  0  0  0  0  0  0  0
   15.3027   -0.8544   -1.5119 C   0  0  0  0  0  0  0  0  0  0  0  0
   14.8708   -0.5181   -0.5750 H   0  0  0  0  0  0  0  0  0  0  0  0
   15.4422    2.0185   -0.8004 C   0  0  0  0  0  0  0  0  0  0  0  0
   15.3143    1.2901   -0.0071 H   0  0  0  0  0  0  0  0  0  0  0  0
   15.3788    3.3951   -0.5534 C   0  0  0  0  0  0  0  0  0  0  0  0
   15.1707    3.7833    0.4386 H   0  0  0  0  0  0  0  0  0  0  0  0
  1  2  1  0
  2  3  2  0
  3  4  1  0
  4  5  1  0
  4  6  2  0
  6  7  1  0
  7  8  2  0
  8  9  1  0
  8 10  1  0
 10 11  1  0
 10 12  2  0
 12 13  1  0
 12 14  1  0
 15 14  1  6
 15 16  1  0
 16 17  2  0
 17 18  1  0
 17 19  1  0
 19 20  1  0
 19 21  2  0
 21 22  1  0
 21 23  1  0
 23 24  1  0
 23 25  2  0
 25 26  1  0
 15 27  1  0
 27 28  2  0
 27 29  1  0
 29 30  1  0
 30 31  1  0
 31 32  1  0
 31 33  1  0
 31 34  1  0
 34 35  1  0
 34 36  1  0
 34 37  1  0
 37 38  1  0
 37 39  1  0
 37 40  1  0
 29 41  1  0
 41 42  1  0
 42 43  1  0
 42 44  1  0
 41 45  2  0
 45 46  1  0
 14 47  2  0
 47 48  1  0
  6 49  1  0
 49 50  1  0
 49 51  2  0
 51 52  1  0
 51  2  1  0
 47  7  1  0
 45 15  1  0
 25 16  1  0
M  CHG  1  45   1
M  END
>  <score>  (489) 
5.19275

$$$$

     RDKit          3D

 55 58  0  0  0  0  0  0  0  0999 V2000
   15.5563    5.3568   -1.3921 H   0  0  0  0  0  0  0  0  0  0  0  0
   15.5865    4.2892   -1.6038 C   0  0  0  0  0  0  0  0  0  0  0  0
   15.8204    3.8710   -2.8582 N   0  0  0  0  0  0  0  0  0  0  0  0
   15.8765    2.5439   -3.0926 C   0  0  0  0  0  0  0  0  0  0  0  0
   16.0675    2.2032   -4.1039 H   0  0  0  0  0  0  0  0  0  0  0  0
   15.6942    1.5686   -2.0986 C   0  0  0  0  0  0  0  0  0  0  0  0
   15.7736    0.1218   -2.4089 C   0  0  0  0  0  0  0  0  0  0  0  0
   16.3332   -0.3164   -3.6123 C   0  0  0  0  0  0  0  0  0  0  0  0
   16.7117    0.4296   -4.3022 H   0  0  0  0  0  0  0  0  0  0  0  0
   16.4278   -1.6841   -3.9087 C   0  0  0  0  0  0  0  0  0  0  0  0
   16.8641   -2.0025   -4.8487 H   0  0  0  0  0  0  0  0  0  0  0  0
   15.9504   -2.6380   -3.0015 C   0  0  0  0  0  0  0  0  0  0  0  0
   16.0025   -3.6978   -3.2408 H   0  0  0  0  0  0  0  0  0  0  0  0
   15.3917   -2.2329   -1.7805 C   0  0  0  0  0  0  0  0  0  0  0  0
   14.8382   -3.2422   -0.7813 C   0  0  2  0  0  0  0  0  0  0  0  0
   15.1873   -4.7047   -1.0795 C   0  0  0  0  0  0  0  0  0  0  0  0
   16.4020   -5.2307   -0.6107 C   0  0  0  0  0  0  0  0  0  0  0  0
   17.0736   -4.5788   -0.0599 H   0  0  0  0  0  0  0  0  0  0  0  0
   16.7378   -6.5756   -0.8054 C   0  0  0  0  0  0  0  0  0  0  0  0
   17.6737   -6.9611   -0.4114 H   0  0  0  0  0  0  0  0  0  0  0  0
   15.8574   -7.4255   -1.4799 C   0  0  0  0  0  0  0  0  0  0  0  0
   16.1083   -8.4741   -1.6145 H   0  0  0  0  0  0  0  0  0  0  0  0
   14.6458   -6.9238   -1.9656 C   0  0  0  0  0  0  0  0  0  0  0  0
   13.9636   -7.5899   -2.4879 H   0  0  0  0  0  0  0  0  0  0  0  0
   14.3131   -5.5718   -1.7694 C   0  0  0  0  0  0  0  0  0  0  0  0
   13.3591   -5.2016   -2.1331 H   0  0  0  0  0  0  0  0  0  0  0  0
   13.3260   -3.0102   -0.6248 C   0  0  0  0  0  0  0  0  0  0  0  0
   12.4851   -3.1271   -1.5146 O   0  0  0  0  0  0  0  0  0  0  0  0
   13.0654   -2.6252    0.6745 N   0  0  0  0  0  0  0  0  0  0  0  0
   11.7988   -2.2170    1.1881 O   0  0  0  0  0  0  0  0  0  0  0  0
   11.0797   -3.3294    1.7303 C   0  0  0  0  0  0  0  0  0  0  0  0
   11.6599   -3.8232    2.5221 H   0  0  0  0  0  0  0  0  0  0  0  0
   10.8818   -4.0631    0.9375 H   0  0  0  0  0  0  0  0  0  0  0  0
    9.7602   -2.8182    2.2967 C   0  0  0  0  0  0  0  0  0  0  0  0
    9.9575   -2.1602    3.1533 H   0  0  0  0  0  0  0  0  0  0  0  0
    9.2476   -2.2332    1.5260 H   0  0  0  0  0  0  0  0  0  0  0  0
    8.8602   -3.9842    2.7184 C   0  0  0  0  0  0  0  0  0  0  0  0
    8.7586   -4.6945    1.8890 H   0  0  0  0  0  0  0  0  0  0  0  0
    7.8664   -3.5920    2.9638 H   0  0  0  0  0  0  0  0  0  0  0  0
    9.4233   -4.7016    3.9423 C   0  0  0  0  0  0  0  0  0  0  0  0
    9.5944   -3.9648    4.7300 H   0  0  0  0  0  0  0  0  0  0  0  0
   10.3723   -5.2004    3.7081 H   0  0  0  0  0  0  0  0  0  0  0  0
    8.7092   -5.4522    4.3030 H   0  0  0  0  0  0  0  0  0  0  0  0
   14.2700   -2.5923    1.3584 C   0  0  0  0  0  0  0  0  0  0  0  0
   14.4321   -2.3054    2.6877 N   0  0  0  0  0  0  0  0  0  0  0  0
   13.6162   -2.1111    3.2650 H   0  0  0  0  0  0  0  0  0  0  0  0
   15.3652   -2.3393    3.1036 H   0  0  0  0  0  0  0  0  0  0  0  0
   15.2677   -2.9063    0.5950 N   0  0  0  0  0  4  0  0  0  0  0  0
   16.2403   -2.9593    0.9115 H   0  0  0  0  0  0  0  0  0  0  0  0
   15.3089   -0.8491   -1.5056 C   0  0  0  0  0  0  0  0  0  0  0  0
   14.8686   -0.5121   -0.5728 H   0  0  0  0  0  0  0  0  0  0  0  0
   15.4463    2.0125   -0.8008 C   0  0  0  0  0  0  0  0  0  0  0  0
   15.3307    1.2749   -0.0134 H   0  0  0  0  0  0  0  0  0  0  0  0
   15.3836    3.3883   -0.5552 C   0  0  0  0  0  0  0  0  0  0  0  0
   15.1774    3.7763    0.4358 H   0  0  0  0  0  0  0  0  0  0  0  0
  1  2  1  0
  2  3  2  0
  3  4  1  0
  4  5  1  0
  4  6  2  0
  6  7  1  0
  7  8  2  0
  8  9  1  0
  8 10  1  0
 10 11  1  0
 10 12  2  0
 12 13  1  0
 12 14  1  0
 15 14  1  6
 15 16  1  0
 16 17  2  0
 17 18  1  0
 17 19  1  0
 19 20  1  0
 19 21  2  0
 21 22  1  0
 21 23  1  0
 23 24  1  0
 23 25  2  0
 25 26  1  0
 15 27  1  0
 27 28  2  0
 27 29  1  0
 29 30  1  0
 30 31  1  0
 31 32  1  0
 31 33  1  0
 31 34  1  0
 34 35  1  0
 34 36  1  0
 34 37  1  0
 37 38  1  0
 37 39  1  0
 37 40  1  0
 40 41  1  0
 40 42  1  0
 40 43  1  0
 29 44  1  0
 44 45  1  0
 45 46  1  0
 45 47  1  0
 44 48  2  0
 48 49  1  0
 14 50  2  0
 50 51  1  0
  6 52  1  0
 52 53  1  0
 52 54  2  0
 54 55  1  0
 54  2  1  0
 50  7  1  0
 48 15  1  0
 25 16  1  0
M  CHG  1  48   1
M  END
>  <score>  (490) 
5.18758

$$$$

     RDKit          3D

 46 49  0  0  0  0  0  0  0  0999 V2000
   15.5366    5.3292   -1.4120 H   0  0  0  0  0  0  0  0  0  0  0  0
   15.5850    4.2633   -1.6113 C   0  0  0  0  0  0  0  0  0  0  0  0
   15.8384    3.8523   -2.8623 N   0  0  0  0  0  0  0  0  0  0  0  0
   15.8920    2.5287   -3.0990 C   0  0  0  0  0  0  0  0  0  0  0  0
   16.0882    2.2048   -4.1169 H   0  0  0  0  0  0  0  0  0  0  0  0
   15.7043    1.5570   -2.0992 C   0  0  0  0  0  0  0  0  0  0  0  0
   15.7812    0.1168   -2.4049 C   0  0  0  0  0  0  0  0  0  0  0  0
   16.3338   -0.3124   -3.6176 C   0  0  0  0  0  0  0  0  0  0  0  0
   16.7062    0.4240   -4.3238 H   0  0  0  0  0  0  0  0  0  0  0  0
   16.4175   -1.6743   -3.9176 C   0  0  0  0  0  0  0  0  0  0  0  0
   16.8607   -1.9893   -4.8572 H   0  0  0  0  0  0  0  0  0  0  0  0
   15.9557   -2.6246   -2.9993 C   0  0  0  0  0  0  0  0  0  0  0  0
   16.0205   -3.6800   -3.2421 H   0  0  0  0  0  0  0  0  0  0  0  0
   15.4205   -2.2321   -1.7642 C   0  0  0  0  0  0  0  0  0  0  0  0
   14.8841   -3.2533   -0.7678 C   0  0  2  0  0  0  0  0  0  0  0  0
   15.2398   -4.7037   -1.0729 C   0  0  0  0  0  0  0  0  0  0  0  0
   16.4492   -5.2391   -0.6110 C   0  0  0  0  0  0  0  0  0  0  0  0
   17.1329   -4.5974   -0.0628 H   0  0  0  0  0  0  0  0  0  0  0  0
   16.7610   -6.5873   -0.8061 C   0  0  0  0  0  0  0  0  0  0  0  0
   17.6930   -6.9781   -0.4086 H   0  0  0  0  0  0  0  0  0  0  0  0
   15.8667   -7.4201   -1.4871 C   0  0  0  0  0  0  0  0  0  0  0  0
   16.1039   -8.4713   -1.6249 H   0  0  0  0  0  0  0  0  0  0  0  0
   14.6624   -6.8991   -1.9723 C   0  0  0  0  0  0  0  0  0  0  0  0
   13.9586   -7.5494   -2.4847 H   0  0  0  0  0  0  0  0  0  0  0  0
   14.3498   -5.5483   -1.7669 C   0  0  0  0  0  0  0  0  0  0  0  0
   13.3972   -5.1691   -2.1263 H   0  0  0  0  0  0  0  0  0  0  0  0
   13.3697   -3.0747   -0.6234 C   0  0  0  0  0  0  0  0  0  0  0  0
   12.5433   -3.2327   -1.5206 O   0  0  0  0  0  0  0  0  0  0  0  0
   13.0729   -2.6804    0.6731 N   0  0  0  0  0  0  0  0  0  0  0  0
   11.7440   -2.5498    1.2234 O   0  0  0  0  0  0  0  0  0  0  0  0
   11.1705   -1.2273    1.1274 C   0  0  0  0  0  0  0  0  0  0  0  0
   11.7513   -0.5558    1.7696 H   0  0  0  0  0  0  0  0  0  0  0  0
   11.2302   -0.7868   -0.1607 F   0  0  0  0  0  0  0  0  0  0  0  0
    9.8539   -1.2515    1.4925 F   0  0  0  0  0  0  0  0  0  0  0  0
   14.2801   -2.6502    1.3675 C   0  0  0  0  0  0  0  0  0  0  0  0
   14.4610   -2.3510    2.6943 N   0  0  0  0  0  0  0  0  0  0  0  0
   13.6541   -2.1669    3.2872 H   0  0  0  0  0  0  0  0  0  0  0  0
   15.4047   -2.3371    3.0815 H   0  0  0  0  0  0  0  0  0  0  0  0
   15.2923   -2.9249    0.6116 N   0  0  0  0  0  4  0  0  0  0  0  0
   16.2638   -2.9693    0.9300 H   0  0  0  0  0  0  0  0  0  0  0  0
   15.3196   -0.8521   -1.4939 C   0  0  0  0  0  0  0  0  0  0  0  0
   14.8708   -0.5223   -0.5612 H   0  0  0  0  0  0  0  0  0  0  0  0
   15.4634    1.9973   -0.7970 C   0  0  0  0  0  0  0  0  0  0  0  0
   15.3528    1.2786    0.0087 H   0  0  0  0  0  0  0  0  0  0  0  0
   15.3925    3.3674   -0.5581 C   0  0  0  0  0  0  0  0  0  0  0  0
   15.2047    3.7457    0.4391 H   0  0  0  0  0  0  0  0  0  0  0  0
  1  2  1  0
  2  3  2  0
  3  4  1  0
  4  5  1  0
  4  6  2  0
  6  7  1  0
  7  8  2  0
  8  9  1  0
  8 10  1  0
 10 11  1  0
 10 12  2  0
 12 13  1  0
 12 14  1  0
 15 14  1  6
 15 16  1  0
 16 17  2  0
 17 18  1  0
 17 19  1  0
 19 20  1  0
 19 21  2  0
 21 22  1  0
 21 23  1  0
 23 24  1  0
 23 25  2  0
 25 26  1  0
 15 27  1  0
 27 28  2  0
 27 29  1  0
 29 30  1  0
 30 31  1  0
 31 32  1  0
 31 33  1  0
 31 34  1  0
 29 35  1  0
 35 36  1  0
 36 37  1  0
 36 38  1  0
 35 39  2  0
 39 40  1  0
 14 41  2  0
 41 42  1  0
  6 43  1  0
 43 44  1  0
 43 45  2  0
 45 46  1  0
 45  2  1  0
 41  7  1  0
 39 15  1  0
 25 16  1  0
M  CHG  1  39   1
M  END
>  <score>  (491) 
5.17765

$$$$

     RDKit          3D

 54 58  0  0  0  0  0  0  0  0999 V2000
   15.5149    5.3134   -1.3992 H   0  0  0  0  0  0  0  0  0  0  0  0
   15.6059    4.2518   -1.6059 C   0  0  0  0  0  0  0  0  0  0  0  0
   15.8497    3.8571   -2.8639 N   0  0  0  0  0  0  0  0  0  0  0  0
   15.9641    2.5379   -3.1032 C   0  0  0  0  0  0  0  0  0  0  0  0
   16.1563    2.2276   -4.1250 H   0  0  0  0  0  0  0  0  0  0  0  0
   15.8445    1.5522   -2.1062 C   0  0  0  0  0  0  0  0  0  0  0  0
   15.9887    0.1172   -2.4311 C   0  0  0  0  0  0  0  0  0  0  0  0
   16.4125   -0.2954   -3.7034 C   0  0  0  0  0  0  0  0  0  0  0  0
   16.6421    0.4480   -4.4601 H   0  0  0  0  0  0  0  0  0  0  0  0
   16.5378   -1.6539   -4.0078 C   0  0  0  0  0  0  0  0  0  0  0  0
   16.8498   -1.9488   -5.0037 H   0  0  0  0  0  0  0  0  0  0  0  0
   16.2279   -2.6213   -3.0465 C   0  0  0  0  0  0  0  0  0  0  0  0
   16.3047   -3.6727   -3.3053 H   0  0  0  0  0  0  0  0  0  0  0  0
   15.7772   -2.2433   -1.7724 C   0  0  0  0  0  0  0  0  0  0  0  0
   15.2331   -3.2694   -0.7882 C   0  0  2  0  0  0  0  0  0  0  0  0
   15.5918   -4.7222   -1.0954 C   0  0  0  0  0  0  0  0  0  0  0  0
   16.7702   -5.3543   -0.6441 C   0  0  0  0  0  0  0  0  0  0  0  0
   17.5257   -4.7966   -0.0963 H   0  0  0  0  0  0  0  0  0  0  0  0
   16.9635   -6.7297   -0.8618 C   0  0  0  0  0  0  0  0  0  0  0  0
   17.8610   -7.2229   -0.4989 H   0  0  0  0  0  0  0  0  0  0  0  0
   15.9866   -7.4832   -1.5249 C   0  0  0  0  0  0  0  0  0  0  0  0
   16.1096   -8.5524   -1.6723 H   0  0  0  0  0  0  0  0  0  0  0  0
   14.8359   -6.8549   -2.0037 C   0  0  0  0  0  0  0  0  0  0  0  0
   14.0625   -7.4130   -2.5204 H   0  0  0  0  0  0  0  0  0  0  0  0
   14.6549   -5.4898   -1.8009 C   0  0  0  0  0  0  0  0  0  0  0  0
   13.7487   -5.0123   -2.1593 H   0  0  0  0  0  0  0  0  0  0  0  0
   13.7061   -3.1041   -0.7163 C   0  0  0  0  0  0  0  0  0  0  0  0
   12.9224   -3.1341   -1.6666 O   0  0  0  0  0  0  0  0  0  0  0  0
   13.3173   -2.9388    0.5958 N   0  0  0  0  0  0  0  0  0  0  0  0
   12.0181   -2.6766    1.0456 C   0  0  0  0  0  0  0  0  0  0  0  0
   11.1418   -1.8914    0.2873 C   0  0  0  0  0  0  0  0  0  0  0  0
   11.4598   -1.5351   -0.6835 H   0  0  0  0  0  0  0  0  0  0  0  0
    9.9524   -1.4972    0.7439 N   0  0  0  0  0  0  0  0  0  0  0  0
    9.5555   -1.8776    1.9756 C   0  0  0  0  0  0  0  0  0  0  0  0
    8.2384   -1.3284    2.4949 C   0  0  0  0  0  0  0  0  0  0  0  0
    8.3628   -0.6022    3.6305 F   0  0  0  0  0  0  0  0  0  0  0  0
    7.4099   -2.3787    2.7504 F   0  0  0  0  0  0  0  0  0  0  0  0
    7.6822   -0.4715    1.5891 F   0  0  0  0  0  0  0  0  0  0  0  0
   10.3421   -2.7599    2.7497 C   0  0  0  0  0  0  0  0  0  0  0  0
   10.0224   -3.0990    3.7303 H   0  0  0  0  0  0  0  0  0  0  0  0
   11.5948   -3.1477    2.2809 C   0  0  0  0  0  0  0  0  0  0  0  0
   12.2497   -3.7849    2.8687 H   0  0  0  0  0  0  0  0  0  0  0  0
   14.4735   -2.8360    1.3472 C   0  0  0  0  0  0  0  0  0  0  0  0
   14.6048   -2.5805    2.6837 N   0  0  0  0  0  0  0  0  0  0  0  0
   15.5363   -2.3159    3.0019 H   0  0  0  0  0  0  0  0  0  0  0  0
   13.7978   -2.2189    3.1896 H   0  0  0  0  0  0  0  0  0  0  0  0
   15.5314   -2.9629    0.6169 N   0  0  0  0  0  4  0  0  0  0  0  0
   16.4747   -2.9830    0.9935 H   0  0  0  0  0  0  0  0  0  0  0  0
   15.6758   -0.8699   -1.4805 C   0  0  0  0  0  0  0  0  0  0  0  0
   15.3096   -0.5654   -0.5047 H   0  0  0  0  0  0  0  0  0  0  0  0
   15.5854    1.9778   -0.7971 C   0  0  0  0  0  0  0  0  0  0  0  0
   15.4887    1.2599    0.0148 H   0  0  0  0  0  0  0  0  0  0  0  0
   15.4645    3.3455   -0.5530 C   0  0  0  0  0  0  0  0  0  0  0  0
   15.2644    3.7162    0.4458 H   0  0  0  0  0  0  0  0  0  0  0  0
  1  2  1  0
  2  3  2  0
  3  4  1  0
  4  5  1  0
  4  6  2  0
  6  7  1  0
  7  8  2  0
  8  9  1  0
  8 10  1  0
 10 11  1  0
 10 12  2  0
 12 13  1  0
 12 14  1  0
 15 14  1  6
 15 16  1  0
 16 17  2  0
 17 18  1  0
 17 19  1  0
 19 20  1  0
 19 21  2  0
 21 22  1  0
 21 23  1  0
 23 24  1  0
 23 25  2  0
 25 26  1  0
 15 27  1  0
 27 28  2  0
 27 29  1  0
 29 30  1  0
 30 31  2  0
 31 32  1  0
 31 33  1  0
 33 34  2  0
 34 35  1  0
 35 36  1  0
 35 37  1  0
 35 38  1  0
 34 39  1  0
 39 40  1  0
 39 41  2  0
 41 42  1  0
 29 43  1  0
 43 44  1  0
 44 45  1  0
 44 46  1  0
 43 47  2  0
 47 48  1  0
 14 49  2  0
 49 50  1  0
  6 51  1  0
 51 52  1  0
 51 53  2  0
 53 54  1  0
 53  2  1  0
 49  7  1  0
 47 15  1  0
 25 16  1  0
 41 30  1  0
M  CHG  1  47   1
M  END
>  <score>  (492) 
5.16201

$$$$

     RDKit          3D

 55 58  0  0  0  0  0  0  0  0999 V2000
   15.5239    5.3223   -1.4180 H   0  0  0  0  0  0  0  0  0  0  0  0
   15.5943    4.2564   -1.6108 C   0  0  0  0  0  0  0  0  0  0  0  0
   15.8375    3.8417   -2.8639 N   0  0  0  0  0  0  0  0  0  0  0  0
   15.9118    2.5176   -3.0920 C   0  0  0  0  0  0  0  0  0  0  0  0
   16.1113    2.1835   -4.1061 H   0  0  0  0  0  0  0  0  0  0  0  0
   15.7363    1.5477   -2.0909 C   0  0  0  0  0  0  0  0  0  0  0  0
   15.8107    0.1079   -2.4010 C   0  0  0  0  0  0  0  0  0  0  0  0
   16.3417   -0.3290   -3.6222 C   0  0  0  0  0  0  0  0  0  0  0  0
   16.6936    0.4025   -4.3420 H   0  0  0  0  0  0  0  0  0  0  0  0
   16.4266   -1.6924   -3.9159 C   0  0  0  0  0  0  0  0  0  0  0  0
   16.8345   -2.0040   -4.8729 H   0  0  0  0  0  0  0  0  0  0  0  0
   15.9795   -2.6407   -2.9884 C   0  0  0  0  0  0  0  0  0  0  0  0
   16.0390   -3.6968   -3.2332 H   0  0  0  0  0  0  0  0  0  0  0  0
   15.4399   -2.2358   -1.7546 C   0  0  0  0  0  0  0  0  0  0  0  0
   14.8918   -3.2391   -0.7460 C   0  0  2  0  0  0  0  0  0  0  0  0
   15.2685   -4.6853   -1.0469 C   0  0  0  0  0  0  0  0  0  0  0  0
   16.4846   -5.2296   -0.5998 C   0  0  0  0  0  0  0  0  0  0  0  0
   17.1913   -4.6050   -0.0608 H   0  0  0  0  0  0  0  0  0  0  0  0
   16.7845   -6.5806   -0.8116 C   0  0  0  0  0  0  0  0  0  0  0  0
   17.7179   -6.9910   -0.4352 H   0  0  0  0  0  0  0  0  0  0  0  0
   15.8795   -7.4032   -1.4917 C   0  0  0  0  0  0  0  0  0  0  0  0
   16.1054   -8.4537   -1.6488 H   0  0  0  0  0  0  0  0  0  0  0  0
   14.6795   -6.8677   -1.9712 C   0  0  0  0  0  0  0  0  0  0  0  0
   13.9709   -7.4966   -2.5025 H   0  0  0  0  0  0  0  0  0  0  0  0
   14.3829   -5.5184   -1.7546 C   0  0  0  0  0  0  0  0  0  0  0  0
   13.4434   -5.1191   -2.1245 H   0  0  0  0  0  0  0  0  0  0  0  0
   13.3685   -3.0763   -0.6052 C   0  0  0  0  0  0  0  0  0  0  0  0
   12.5355   -3.2511   -1.5004 O   0  0  0  0  0  0  0  0  0  0  0  0
   13.0565   -2.7014    0.6840 N   0  0  0  0  0  0  0  0  0  0  0  0
   11.7292   -2.5276    1.1965 O   0  0  0  0  0  0  0  0  0  0  0  0
   11.2409   -1.2137    0.8974 C   0  0  0  0  0  0  0  0  0  0  0  0
   11.4237   -0.9902   -0.1561 H   0  0  0  0  0  0  0  0  0  0  0  0
   11.8252   -0.5075    1.4963 H   0  0  0  0  0  0  0  0  0  0  0  0
    9.7367   -1.0230    1.1871 C   0  0  0  0  0  0  0  0  0  0  0  0
    9.5562   -1.2378    2.2436 H   0  0  0  0  0  0  0  0  0  0  0  0
    8.8437   -1.9543    0.3691 C   0  0  0  0  0  0  0  0  0  0  0  0
    9.1481   -2.9960    0.5148 H   0  0  0  0  0  0  0  0  0  0  0  0
    8.9015   -1.7018   -0.6949 H   0  0  0  0  0  0  0  0  0  0  0  0
    7.8030   -1.8565    0.7014 H   0  0  0  0  0  0  0  0  0  0  0  0
    9.3696    0.4361    0.8838 C   0  0  0  0  0  0  0  0  0  0  0  0
    8.4251    0.7073    1.3581 H   0  0  0  0  0  0  0  0  0  0  0  0
    9.2659    0.6154   -0.1867 H   0  0  0  0  0  0  0  0  0  0  0  0
   10.1586    1.0953    1.2585 H   0  0  0  0  0  0  0  0  0  0  0  0
   14.2550   -2.6332    1.3865 C   0  0  0  0  0  0  0  0  0  0  0  0
   14.4542   -2.3581    2.7126 N   0  0  0  0  0  0  0  0  0  0  0  0
   13.6629   -2.1376    3.3173 H   0  0  0  0  0  0  0  0  0  0  0  0
   15.4094   -2.3044    3.0679 H   0  0  0  0  0  0  0  0  0  0  0  0
   15.2779   -2.8865    0.6365 N   0  0  0  0  0  4  0  0  0  0  0  0
   16.2366   -2.9586    0.9892 H   0  0  0  0  0  0  0  0  0  0  0  0
   15.3543   -0.8567   -1.4883 C   0  0  0  0  0  0  0  0  0  0  0  0
   14.9177   -0.5244   -0.5509 H   0  0  0  0  0  0  0  0  0  0  0  0
   15.4977    1.9908   -0.7880 C   0  0  0  0  0  0  0  0  0  0  0  0
   15.3879    1.2745    0.0200 H   0  0  0  0  0  0  0  0  0  0  0  0
   15.4237    3.3609   -0.5527 C   0  0  0  0  0  0  0  0  0  0  0  0
   15.2318    3.7328    0.4462 H   0  0  0  0  0  0  0  0  0  0  0  0
  1  2  1  0
  2  3  2  0
  3  4  1  0
  4  5  1  0
  4  6  2  0
  6  7  1  0
  7  8  2  0
  8  9  1  0
  8 10  1  0
 10 11  1  0
 10 12  2  0
 12 13  1  0
 12 14  1  0
 15 14  1  6
 15 16  1  0
 16 17  2  0
 17 18  1  0
 17 19  1  0
 19 20  1  0
 19 21  2  0
 21 22  1  0
 21 23  1  0
 23 24  1  0
 23 25  2  0
 25 26  1  0
 15 27  1  0
 27 28  2  0
 27 29  1  0
 29 30  1  0
 30 31  1  0
 31 32  1  0
 31 33  1  0
 31 34  1  0
 34 35  1  0
 34 36  1  0
 36 37  1  0
 36 38  1  0
 36 39  1  0
 34 40  1  0
 40 41  1  0
 40 42  1  0
 40 43  1  0
 29 44  1  0
 44 45  1  0
 45 46  1  0
 45 47  1  0
 44 48  2  0
 48 49  1  0
 14 50  2  0
 50 51  1  0
  6 52  1  0
 52 53  1  0
 52 54  2  0
 54 55  1  0
 54  2  1  0
 50  7  1  0
 48 15  1  0
 25 16  1  0
M  CHG  1  48   1
M  END
>  <score>  (493) 
5.14902

$$$$

     RDKit          3D

 63 67  0  0  0  0  0  0  0  0999 V2000
    6.8125   -1.0023   -1.5456 H   0  0  0  0  0  0  0  0  0  0  0  0
    6.4718   -0.5560   -0.7459 O   0  0  0  0  0  0  0  0  0  0  0  0
    7.5383   -0.2858    0.1767 C   0  0  0  0  0  0  0  0  0  0  0  0
    8.2964    0.3535   -0.3003 H   0  0  0  0  0  0  0  0  0  0  0  0
    7.1422    0.2565    1.0444 H   0  0  0  0  0  0  0  0  0  0  0  0
    8.2117   -1.5888    0.6516 C   0  0  0  0  0  0  0  0  0  0  0  0
    7.4940   -2.2073    1.1980 H   0  0  0  0  0  0  0  0  0  0  0  0
    8.5668   -2.1578   -0.2155 H   0  0  0  0  0  0  0  0  0  0  0  0
    9.3620   -1.2666    1.5186 N   0  0  0  0  0  0  0  0  0  0  0  0
    9.8631   -2.2861    2.4812 C   0  0  0  0  0  0  0  0  0  0  0  0
    9.0697   -2.9978    2.7289 H   0  0  0  0  0  0  0  0  0  0  0  0
   10.1361   -1.7924    3.4187 H   0  0  0  0  0  0  0  0  0  0  0  0
   11.0921   -3.0661    1.9849 C   0  0  0  0  0  0  0  0  0  0  0  0
   11.6740   -3.4044    2.8480 H   0  0  0  0  0  0  0  0  0  0  0  0
   10.7635   -3.9539    1.4396 H   0  0  0  0  0  0  0  0  0  0  0  0
   11.9391   -2.2609    1.0910 N   0  0  0  0  0  0  0  0  0  0  0  0
   13.1996   -2.7818    0.6859 N   0  0  0  0  0  0  0  0  0  0  0  0
   13.4856   -3.1071   -0.6207 C   0  0  0  0  0  0  0  0  0  0  0  0
   12.6484   -3.2428   -1.5228 O   0  0  0  0  0  0  0  0  0  0  0  0
   15.0041   -3.2636   -0.7618 C   0  0  1  0  0  0  0  0  0  0  0  0
   15.3521   -4.7053   -1.0718 C   0  0  0  0  0  0  0  0  0  0  0  0
   16.5534   -5.2691   -0.6190 C   0  0  0  0  0  0  0  0  0  0  0  0
   17.2693   -4.6512   -0.0824 H   0  0  0  0  0  0  0  0  0  0  0  0
   16.8240   -6.6238   -0.8310 C   0  0  0  0  0  0  0  0  0  0  0  0
   17.7488   -7.0501   -0.4524 H   0  0  0  0  0  0  0  0  0  0  0  0
   15.8962   -7.4240   -1.5097 C   0  0  0  0  0  0  0  0  0  0  0  0
   16.0974   -8.4783   -1.6662 H   0  0  0  0  0  0  0  0  0  0  0  0
   14.7044   -6.8670   -1.9843 C   0  0  0  0  0  0  0  0  0  0  0  0
   13.9742   -7.4769   -2.5081 H   0  0  0  0  0  0  0  0  0  0  0  0
   14.4409   -5.5138   -1.7729 C   0  0  0  0  0  0  0  0  0  0  0  0
   13.5063   -5.0920   -2.1303 H   0  0  0  0  0  0  0  0  0  0  0  0
   15.5271   -2.2500   -1.7682 C   0  0  0  0  0  0  0  0  0  0  0  0
   16.0397   -2.6448   -3.0135 C   0  0  0  0  0  0  0  0  0  0  0  0
   16.1055   -3.7007   -3.2591 H   0  0  0  0  0  0  0  0  0  0  0  0
   16.4482   -1.6881   -3.9475 C   0  0  0  0  0  0  0  0  0  0  0  0
   16.8370   -1.9951   -4.9127 H   0  0  0  0  0  0  0  0  0  0  0  0
   16.3543   -0.3270   -3.6444 C   0  0  0  0  0  0  0  0  0  0  0  0
   16.6900    0.4061   -4.3699 H   0  0  0  0  0  0  0  0  0  0  0  0
   15.8539    0.0996   -2.4060 C   0  0  0  0  0  0  0  0  0  0  0  0
   15.7643    1.5372   -2.0872 C   0  0  0  0  0  0  0  0  0  0  0  0
   15.9300    2.5083   -3.0891 C   0  0  0  0  0  0  0  0  0  0  0  0
   16.1260    2.1783   -4.1040 H   0  0  0  0  0  0  0  0  0  0  0  0
   15.8409    3.8315   -2.8624 N   0  0  0  0  0  0  0  0  0  0  0  0
   15.5944    4.2456   -1.6106 C   0  0  0  0  0  0  0  0  0  0  0  0
   15.5148    5.3119   -1.4201 H   0  0  0  0  0  0  0  0  0  0  0  0
   15.4378    3.3507   -0.5486 C   0  0  0  0  0  0  0  0  0  0  0  0
   15.2513    3.7270    0.4501 H   0  0  0  0  0  0  0  0  0  0  0  0
   15.5222    1.9793   -0.7833 C   0  0  0  0  0  0  0  0  0  0  0  0
   15.4203    1.2666    0.0309 H   0  0  0  0  0  0  0  0  0  0  0  0
   15.4313   -0.8737   -1.4870 C   0  0  0  0  0  0  0  0  0  0  0  0
   14.9930   -0.5522   -0.5466 H   0  0  0  0  0  0  0  0  0  0  0  0
   15.4152   -2.9274    0.6196 N   0  0  0  0  0  4  0  0  0  0  0  0
   16.3822   -2.9447    0.9537 H   0  0  0  0  0  0  0  0  0  0  0  0
   14.4019   -2.6284    1.3609 C   0  0  0  0  0  0  0  0  0  0  0  0
   14.5786   -2.1973    2.6494 N   0  0  0  0  0  0  0  0  0  0  0  0
   15.4965   -2.3387    3.0642 H   0  0  0  0  0  0  0  0  0  0  0  0
   13.7653   -2.1154    3.2577 H   0  0  0  0  0  0  0  0  0  0  0  0
   11.8123   -0.8027    1.0672 C   0  0  0  0  0  0  0  0  0  0  0  0
   12.4219   -0.4146    0.2467 H   0  0  0  0  0  0  0  0  0  0  0  0
   12.2051   -0.3899    1.9946 H   0  0  0  0  0  0  0  0  0  0  0  0
   10.3579   -0.3869    0.8475 C   0  0  0  0  0  0  0  0  0  0  0  0
   10.2322    0.6457    1.1852 H   0  0  0  0  0  0  0  0  0  0  0  0
   10.1673   -0.4031   -0.2317 H   0  0  0  0  0  0  0  0  0  0  0  0
  1  2  1  0
  2  3  1  0
  3  4  1  0
  3  5  1  0
  3  6  1  0
  6  7  1  0
  6  8  1  0
  6  9  1  0
  9 10  1  0
 10 11  1  0
 10 12  1  0
 10 13  1  0
 13 14  1  0
 13 15  1  0
 13 16  1  0
 16 17  1  0
 17 18  1  0
 18 19  2  0
 18 20  1  0
 20 21  1  6
 21 22  2  0
 22 23  1  0
 22 24  1  0
 24 25  1  0
 24 26  2  0
 26 27  1  0
 26 28  1  0
 28 29  1  0
 28 30  2  0
 30 31  1  0
 20 32  1  0
 32 33  2  0
 33 34  1  0
 33 35  1  0
 35 36  1  0
 35 37  2  0
 37 38  1  0
 37 39  1  0
 39 40  1  0
 40 41  2  0
 41 42  1  0
 41 43  1  0
 43 44  2  0
 44 45  1  0
 44 46  1  0
 46 47  1  0
 46 48  2  0
 48 49  1  0
 39 50  2  0
 50 51  1  0
 20 52  1  0
 52 53  1  0
 52 54  2  0
 54 55  1  0
 55 56  1  0
 55 57  1  0
 16 58  1  0
 58 59  1  0
 58 60  1  0
 58 61  1  0
 61 62  1  0
 61 63  1  0
 61  9  1  0
 54 17  1  0
 30 21  1  0
 50 32  1  0
 48 40  1  0
M  CHG  1  52   1
M  END
>  <score>  (494) 
5.14744

$$$$

     RDKit          3D

 49 52  0  0  0  0  0  0  0  0999 V2000
   15.5373    5.3278   -1.4104 H   0  0  0  0  0  0  0  0  0  0  0  0
   15.5850    4.2636   -1.6115 C   0  0  0  0  0  0  0  0  0  0  0  0
   15.8379    3.8551   -2.8633 N   0  0  0  0  0  0  0  0  0  0  0  0
   15.8900    2.5319   -3.0998 C   0  0  0  0  0  0  0  0  0  0  0  0
   16.0880    2.2028   -4.1159 H   0  0  0  0  0  0  0  0  0  0  0  0
   15.7028    1.5614   -2.0991 C   0  0  0  0  0  0  0  0  0  0  0  0
   15.7803    0.1221   -2.4053 C   0  0  0  0  0  0  0  0  0  0  0  0
   16.3328   -0.3097   -3.6182 C   0  0  0  0  0  0  0  0  0  0  0  0
   16.7079    0.4283   -4.3191 H   0  0  0  0  0  0  0  0  0  0  0  0
   16.4130   -1.6722   -3.9227 C   0  0  0  0  0  0  0  0  0  0  0  0
   16.8670   -1.9933   -4.8559 H   0  0  0  0  0  0  0  0  0  0  0  0
   15.9516   -2.6218   -3.0049 C   0  0  0  0  0  0  0  0  0  0  0  0
   16.0156   -3.6790   -3.2387 H   0  0  0  0  0  0  0  0  0  0  0  0
   15.4242   -2.2264   -1.7677 C   0  0  0  0  0  0  0  0  0  0  0  0
   14.8861   -3.2462   -0.7742 C   0  0  2  0  0  0  0  0  0  0  0  0
   15.2351   -4.6984   -1.0810 C   0  0  0  0  0  0  0  0  0  0  0  0
   16.4414   -5.2347   -0.6130 C   0  0  0  0  0  0  0  0  0  0  0  0
   17.1171   -4.5887   -0.0612 H   0  0  0  0  0  0  0  0  0  0  0  0
   16.7544   -6.5823   -0.8022 C   0  0  0  0  0  0  0  0  0  0  0  0
   17.6892   -6.9705   -0.4067 H   0  0  0  0  0  0  0  0  0  0  0  0
   15.8623   -7.4154   -1.4863 C   0  0  0  0  0  0  0  0  0  0  0  0
   16.1020   -8.4645   -1.6237 H   0  0  0  0  0  0  0  0  0  0  0  0
   14.6557   -6.8983   -1.9742 C   0  0  0  0  0  0  0  0  0  0  0  0
   13.9536   -7.5538   -2.4841 H   0  0  0  0  0  0  0  0  0  0  0  0
   14.3428   -5.5474   -1.7691 C   0  0  0  0  0  0  0  0  0  0  0  0
   13.3868   -5.1705   -2.1218 H   0  0  0  0  0  0  0  0  0  0  0  0
   13.3713   -3.0655   -0.6380 C   0  0  0  0  0  0  0  0  0  0  0  0
   12.5499   -3.2011   -1.5474 O   0  0  0  0  0  0  0  0  0  0  0  0
   13.0760   -2.7057    0.6608 N   0  0  0  0  0  0  0  0  0  0  0  0
   11.7574   -2.6419    1.1971 O   0  0  0  0  0  0  0  0  0  0  0  0
   11.2874   -1.2993    1.2864 C   0  0  0  0  0  0  0  0  0  0  0  0
   12.0878   -0.6799    1.7037 H   0  0  0  0  0  0  0  0  0  0  0  0
   10.4483   -1.2900    1.9823 H   0  0  0  0  0  0  0  0  0  0  0  0
   10.8082   -0.7206   -0.0502 C   0  0  0  0  0  0  0  0  0  0  0  0
   11.6068   -0.7355   -0.7949 H   0  0  0  0  0  0  0  0  0  0  0  0
   10.5338    0.3261    0.0991 H   0  0  0  0  0  0  0  0  0  0  0  0
    9.7292   -1.4012   -0.5311 F   0  0  0  0  0  0  0  0  0  0  0  0
   14.2839   -2.6501    1.3549 C   0  0  0  0  0  0  0  0  0  0  0  0
   14.4568   -2.3432    2.6797 N   0  0  0  0  0  0  0  0  0  0  0  0
   13.6417   -2.1669    3.2645 H   0  0  0  0  0  0  0  0  0  0  0  0
   15.3920   -2.3334    3.0863 H   0  0  0  0  0  0  0  0  0  0  0  0
   15.3060   -2.9160    0.6014 N   0  0  0  0  0  4  0  0  0  0  0  0
   16.2808   -2.9727    0.9193 H   0  0  0  0  0  0  0  0  0  0  0  0
   15.3196   -0.8469   -1.4970 C   0  0  0  0  0  0  0  0  0  0  0  0
   14.8695   -0.5167   -0.5649 H   0  0  0  0  0  0  0  0  0  0  0  0
   15.4614    1.9996   -0.7973 C   0  0  0  0  0  0  0  0  0  0  0  0
   15.3556    1.2754    0.0038 H   0  0  0  0  0  0  0  0  0  0  0  0
   15.3897    3.3688   -0.5588 C   0  0  0  0  0  0  0  0  0  0  0  0
   15.2035    3.7473    0.4375 H   0  0  0  0  0  0  0  0  0  0  0  0
  1  2  1  0
  2  3  2  0
  3  4  1  0
  4  5  1  0
  4  6  2  0
  6  7  1  0
  7  8  2  0
  8  9  1  0
  8 10  1  0
 10 11  1  0
 10 12  2  0
 12 13  1  0
 12 14  1  0
 15 14  1  6
 15 16  1  0
 16 17  2  0
 17 18  1  0
 17 19  1  0
 19 20  1  0
 19 21  2  0
 21 22  1  0
 21 23  1  0
 23 24  1  0
 23 25  2  0
 25 26  1  0
 15 27  1  0
 27 28  2  0
 27 29  1  0
 29 30  1  0
 30 31  1  0
 31 32  1  0
 31 33  1  0
 31 34  1  0
 34 35  1  0
 34 36  1  0
 34 37  1  0
 29 38  1  0
 38 39  1  0
 39 40  1  0
 39 41  1  0
 38 42  2  0
 42 43  1  0
 14 44  2  0
 44 45  1  0
  6 46  1  0
 46 47  1  0
 46 48  2  0
 48 49  1  0
 48  2  1  0
 44  7  1  0
 42 15  1  0
 25 16  1  0
M  CHG  1  42   1
M  END
>  <score>  (495) 
5.13452

$$$$

     RDKit          3D

 56 60  0  0  0  0  0  0  0  0999 V2000
   15.5220    5.3183   -1.4194 H   0  0  0  0  0  0  0  0  0  0  0  0
   15.5902    4.2522   -1.6129 C   0  0  0  0  0  0  0  0  0  0  0  0
   15.8381    3.8398   -2.8652 N   0  0  0  0  0  0  0  0  0  0  0  0
   15.9128    2.5161   -3.0940 C   0  0  0  0  0  0  0  0  0  0  0  0
   16.1139    2.1848   -4.1074 H   0  0  0  0  0  0  0  0  0  0  0  0
   15.7378    1.5459   -2.0927 C   0  0  0  0  0  0  0  0  0  0  0  0
   15.8243    0.1086   -2.4027 C   0  0  0  0  0  0  0  0  0  0  0  0
   16.3490   -0.3202   -3.6279 C   0  0  0  0  0  0  0  0  0  0  0  0
   16.6914    0.4141   -4.3495 H   0  0  0  0  0  0  0  0  0  0  0  0
   16.4385   -1.6814   -3.9278 C   0  0  0  0  0  0  0  0  0  0  0  0
   16.8431   -1.9905   -4.8864 H   0  0  0  0  0  0  0  0  0  0  0  0
   16.0050   -2.6340   -2.9985 C   0  0  0  0  0  0  0  0  0  0  0  0
   16.0651   -3.6900   -3.2438 H   0  0  0  0  0  0  0  0  0  0  0  0
   15.4756   -2.2380   -1.7601 C   0  0  0  0  0  0  0  0  0  0  0  0
   14.9204   -3.2531   -0.7679 C   0  0  2  0  0  0  0  0  0  0  0  0
   15.2934   -4.6961   -1.0591 C   0  0  0  0  0  0  0  0  0  0  0  0
   16.5021   -5.2418   -0.6023 C   0  0  0  0  0  0  0  0  0  0  0  0
   17.2060   -4.6132   -0.0624 H   0  0  0  0  0  0  0  0  0  0  0  0
   16.7928   -6.5944   -0.8115 C   0  0  0  0  0  0  0  0  0  0  0  0
   17.7222   -7.0052   -0.4279 H   0  0  0  0  0  0  0  0  0  0  0  0
   15.8819   -7.4111   -1.4925 C   0  0  0  0  0  0  0  0  0  0  0  0
   16.1032   -8.4620   -1.6465 H   0  0  0  0  0  0  0  0  0  0  0  0
   14.6847   -6.8726   -1.9710 C   0  0  0  0  0  0  0  0  0  0  0  0
   13.9682   -7.4977   -2.4948 H   0  0  0  0  0  0  0  0  0  0  0  0
   14.3987   -5.5237   -1.7598 C   0  0  0  0  0  0  0  0  0  0  0  0
   13.4576   -5.1232   -2.1221 H   0  0  0  0  0  0  0  0  0  0  0  0
   13.3965   -3.1001   -0.6911 C   0  0  0  0  0  0  0  0  0  0  0  0
   12.6238   -3.2602   -1.6399 O   0  0  0  0  0  0  0  0  0  0  0  0
   13.0387   -2.7582    0.6020 N   0  0  0  0  0  0  0  0  0  0  0  0
   11.7287   -2.3044    0.9546 N   0  0  0  0  0  0  0  0  0  0  0  0
   11.5997   -0.8386    0.9717 C   0  0  0  0  0  0  0  0  0  0  0  0
   12.0816   -0.4250    1.8642 H   0  0  0  0  0  0  0  0  0  0  0  0
   12.1098   -0.4103    0.1020 H   0  0  0  0  0  0  0  0  0  0  0  0
   10.1087   -0.4669    0.9063 C   0  0  0  0  0  0  0  0  0  0  0  0
   10.0099    0.6176    1.0288 H   0  0  0  0  0  0  0  0  0  0  0  0
    9.7444   -0.7441   -0.0865 H   0  0  0  0  0  0  0  0  0  0  0  0
    9.2749   -1.1654    1.9198 N   0  0  0  0  0  0  0  0  0  0  0  0
    9.4579   -0.7805    2.8503 H   0  0  0  0  0  0  0  0  0  0  0  0
    9.4635   -2.6359    1.9239 C   0  0  0  0  0  0  0  0  0  0  0  0
    9.0295   -3.0481    1.0074 H   0  0  0  0  0  0  0  0  0  0  0  0
    8.9307   -3.0963    2.7642 H   0  0  0  0  0  0  0  0  0  0  0  0
   10.9568   -3.0238    1.9931 C   0  0  0  0  0  0  0  0  0  0  0  0
   11.0525   -4.1036    1.8443 H   0  0  0  0  0  0  0  0  0  0  0  0
   11.3603   -2.7853    2.9819 H   0  0  0  0  0  0  0  0  0  0  0  0
   14.2232   -2.6165    1.3246 C   0  0  0  0  0  0  0  0  0  0  0  0
   14.4312   -2.2095    2.6137 N   0  0  0  0  0  0  0  0  0  0  0  0
   15.3664   -2.3534    2.9965 H   0  0  0  0  0  0  0  0  0  0  0  0
   13.6370   -2.1387    3.2448 H   0  0  0  0  0  0  0  0  0  0  0  0
   15.2647   -2.9123    0.6251 N   0  0  0  0  0  4  0  0  0  0  0  0
   16.2135   -2.9435    1.0050 H   0  0  0  0  0  0  0  0  0  0  0  0
   15.3813   -0.8599   -1.4862 C   0  0  0  0  0  0  0  0  0  0  0  0
   14.9362   -0.5328   -0.5512 H   0  0  0  0  0  0  0  0  0  0  0  0
   15.4961    1.9864   -0.7903 C   0  0  0  0  0  0  0  0  0  0  0  0
   15.3864    1.2705    0.0192 H   0  0  0  0  0  0  0  0  0  0  0  0
   15.4189    3.3568   -0.5532 C   0  0  0  0  0  0  0  0  0  0  0  0
   15.2297    3.7305    0.4463 H   0  0  0  0  0  0  0  0  0  0  0  0
  1  2  1  0
  2  3  2  0
  3  4  1  0
  4  5  1  0
  4  6  2  0
  6  7  1  0
  7  8  2  0
  8  9  1  0
  8 10  1  0
 10 11  1  0
 10 12  2  0
 12 13  1  0
 12 14  1  0
 15 14  1  6
 15 16  1  0
 16 17  2  0
 17 18  1  0
 17 19  1  0
 19 20  1  0
 19 21  2  0
 21 22  1  0
 21 23  1  0
 23 24  1  0
 23 25  2  0
 25 26  1  0
 15 27  1  0
 27 28  2  0
 27 29  1  0
 29 30  1  0
 30 31  1  0
 31 32  1  0
 31 33  1  0
 31 34  1  0
 34 35  1  0
 34 36  1  0
 34 37  1  0
 37 38  1  0
 37 39  1  0
 39 40  1  0
 39 41  1  0
 39 42  1  0
 42 43  1  0
 42 44  1  0
 29 45  1  0
 45 46  1  0
 46 47  1  0
 46 48  1  0
 45 49  2  0
 49 50  1  0
 14 51  2  0
 51 52  1  0
  6 53  1  0
 53 54  1  0
 53 55  2  0
 55 56  1  0
 55  2  1  0
 51  7  1  0
 49 15  1  0
 25 16  1  0
 42 30  1  0
M  CHG  1  49   1
M  END
>  <score>  (496) 
5.11579

$$$$

     RDKit          3D

 58 61  0  0  0  0  0  0  0  0999 V2000
   15.5267    5.3255   -1.4156 H   0  0  0  0  0  0  0  0  0  0  0  0
   15.5874    4.2588   -1.6096 C   0  0  0  0  0  0  0  0  0  0  0  0
   15.8354    3.8418   -2.8605 N   0  0  0  0  0  0  0  0  0  0  0  0
   15.9024    2.5172   -3.0901 C   0  0  0  0  0  0  0  0  0  0  0  0
   16.1000    2.1847   -4.1046 H   0  0  0  0  0  0  0  0  0  0  0  0
   15.7189    1.5504   -2.0867 C   0  0  0  0  0  0  0  0  0  0  0  0
   15.7857    0.1106   -2.3887 C   0  0  0  0  0  0  0  0  0  0  0  0
   16.3260   -0.3362   -3.6001 C   0  0  0  0  0  0  0  0  0  0  0  0
   16.6954    0.3893   -4.3179 H   0  0  0  0  0  0  0  0  0  0  0  0
   16.4034   -1.7022   -3.8842 C   0  0  0  0  0  0  0  0  0  0  0  0
   16.8299   -2.0270   -4.8274 H   0  0  0  0  0  0  0  0  0  0  0  0
   15.9328   -2.6397   -2.9575 C   0  0  0  0  0  0  0  0  0  0  0  0
   15.9887   -3.6988   -3.1902 H   0  0  0  0  0  0  0  0  0  0  0  0
   15.3830   -2.2236   -1.7338 C   0  0  0  0  0  0  0  0  0  0  0  0
   14.8117   -3.2150   -0.7246 C   0  0  2  0  0  0  0  0  0  0  0  0
   15.1917   -4.6684   -1.0157 C   0  0  0  0  0  0  0  0  0  0  0  0
   16.4176   -5.1987   -0.5746 C   0  0  0  0  0  0  0  0  0  0  0  0
   17.1183   -4.5647   -0.0389 H   0  0  0  0  0  0  0  0  0  0  0  0
   16.7462   -6.5414   -0.8012 C   0  0  0  0  0  0  0  0  0  0  0  0
   17.6886   -6.9367   -0.4338 H   0  0  0  0  0  0  0  0  0  0  0  0
   15.8581   -7.3745   -1.4881 C   0  0  0  0  0  0  0  0  0  0  0  0
   16.1050   -8.4206   -1.6503 H   0  0  0  0  0  0  0  0  0  0  0  0
   14.6495   -6.8558   -1.9612 C   0  0  0  0  0  0  0  0  0  0  0  0
   13.9601   -7.4982   -2.5011 H   0  0  0  0  0  0  0  0  0  0  0  0
   14.3210   -5.5132   -1.7298 C   0  0  0  0  0  0  0  0  0  0  0  0
   13.3762   -5.1296   -2.1019 H   0  0  0  0  0  0  0  0  0  0  0  0
   13.2857   -3.0079   -0.5854 C   0  0  0  0  0  0  0  0  0  0  0  0
   12.4751   -3.2140   -1.4918 O   0  0  0  0  0  0  0  0  0  0  0  0
   12.9677   -2.5691    0.7015 N   0  0  0  0  0  0  0  0  0  0  0  0
   11.6292   -2.2879    1.2312 N   0  0  0  0  0  0  0  0  0  0  0  0
   11.6383   -2.1305    2.2524 H   0  0  0  0  0  0  0  0  0  0  0  0
   10.8378   -1.2371    0.5285 C   0  0  0  0  0  0  0  0  0  0  0  0
    9.8909   -1.0516    1.0528 H   0  0  0  0  0  0  0  0  0  0  0  0
   10.6047   -1.5586   -0.4980 H   0  0  0  0  0  0  0  0  0  0  0  0
   11.6719    0.0506    0.5043 C   0  0  0  0  0  0  0  0  0  0  0  0
   11.8236    0.3437    1.5394 H   0  0  0  0  0  0  0  0  0  0  0  0
   12.6534   -0.2250    0.1043 H   0  0  0  0  0  0  0  0  0  0  0  0
   11.1337    1.2153   -0.2528 N   0  0  0  0  0  0  0  0  0  0  0  0
    9.6833    1.4875   -0.3596 C   0  0  0  0  0  0  0  0  0  0  0  0
    9.1022    0.8437    0.3159 H   0  0  0  0  0  0  0  0  0  0  0  0
    9.4439    2.5215   -0.0862 H   0  0  0  0  0  0  0  0  0  0  0  0
    9.3668    1.3100   -1.3960 H   0  0  0  0  0  0  0  0  0  0  0  0
   12.1212    2.0839   -0.9329 C   0  0  0  0  0  0  0  0  0  0  0  0
   12.0227    2.0049   -2.0216 H   0  0  0  0  0  0  0  0  0  0  0  0
   11.9779    3.1234   -0.6222 H   0  0  0  0  0  0  0  0  0  0  0  0
   13.1459    1.7889   -0.6798 H   0  0  0  0  0  0  0  0  0  0  0  0
   14.1900   -2.5446    1.3888 C   0  0  0  0  0  0  0  0  0  0  0  0
   14.4589   -2.2771    2.7057 N   0  0  0  0  0  0  0  0  0  0  0  0
   13.7038   -2.0875    3.3632 H   0  0  0  0  0  0  0  0  0  0  0  0
   15.4270   -2.3287    3.0292 H   0  0  0  0  0  0  0  0  0  0  0  0
   15.2071   -2.8550    0.6472 N   0  0  0  0  0  4  0  0  0  0  0  0
   16.1536   -2.9793    1.0143 H   0  0  0  0  0  0  0  0  0  0  0  0
   15.3114   -0.8425   -1.4724 C   0  0  0  0  0  0  0  0  0  0  0  0
   14.8696   -0.5024   -0.5405 H   0  0  0  0  0  0  0  0  0  0  0  0
   15.4814    1.9953   -0.7860 C   0  0  0  0  0  0  0  0  0  0  0  0
   15.3723    1.2779    0.0217 H   0  0  0  0  0  0  0  0  0  0  0  0
   15.4074    3.3658   -0.5509 C   0  0  0  0  0  0  0  0  0  0  0  0
   15.2165    3.7431    0.4462 H   0  0  0  0  0  0  0  0  0  0  0  0
  1  2  1  0
  2  3  2  0
  3  4  1  0
  4  5  1  0
  4  6  2  0
  6  7  1  0
  7  8  2  0
  8  9  1  0
  8 10  1  0
 10 11  1  0
 10 12  2  0
 12 13  1  0
 12 14  1  0
 15 14  1  6
 15 16  1  0
 16 17  2  0
 17 18  1  0
 17 19  1  0
 19 20  1  0
 19 21  2  0
 21 22  1  0
 21 23  1  0
 23 24  1  0
 23 25  2  0
 25 26  1  0
 15 27  1  0
 27 28  2  0
 27 29  1  0
 29 30  1  0
 30 31  1  0
 30 32  1  0
 32 33  1  0
 32 34  1  0
 32 35  1  0
 35 36  1  0
 35 37  1  0
 35 38  1  0
 38 39  1  0
 39 40  1  0
 39 41  1  0
 39 42  1  0
 38 43  1  0
 43 44  1  0
 43 45  1  0
 43 46  1  0
 29 47  1  0
 47 48  1  0
 48 49  1  0
 48 50  1  0
 47 51  2  0
 51 52  1  0
 14 53  2  0
 53 54  1  0
  6 55  1  0
 55 56  1  0
 55 57  2  0
 57 58  1  0
 57  2  1  0
 53  7  1  0
 51 15  1  0
 25 16  1  0
M  CHG  1  51   1
M  END
>  <score>  (497) 
5.11358

$$$$

     RDKit          3D

 62 66  0  0  0  0  0  0  0  0999 V2000
   15.4792    5.1972   -1.3116 H   0  0  0  0  0  0  0  0  0  0  0  0
   15.6359    4.1505   -1.5537 C   0  0  0  0  0  0  0  0  0  0  0  0
   15.8995    3.8169   -2.8252 N   0  0  0  0  0  0  0  0  0  0  0  0
   16.0907    2.5169   -3.1147 C   0  0  0  0  0  0  0  0  0  0  0  0
   16.2892    2.2541   -4.1498 H   0  0  0  0  0  0  0  0  0  0  0  0
   16.0296    1.4894   -2.1554 C   0  0  0  0  0  0  0  0  0  0  0  0
   16.2324    0.0793   -2.5479 C   0  0  0  0  0  0  0  0  0  0  0  0
   16.5913   -0.2484   -3.8620 C   0  0  0  0  0  0  0  0  0  0  0  0
   16.7509    0.5391   -4.5917 H   0  0  0  0  0  0  0  0  0  0  0  0
   16.7146   -1.5833   -4.2564 C   0  0  0  0  0  0  0  0  0  0  0  0
   16.9825   -1.8024   -5.2841 H   0  0  0  0  0  0  0  0  0  0  0  0
   16.4371   -2.6163   -3.3503 C   0  0  0  0  0  0  0  0  0  0  0  0
   16.4542   -3.6496   -3.6797 H   0  0  0  0  0  0  0  0  0  0  0  0
   16.0697   -2.3242   -2.0306 C   0  0  0  0  0  0  0  0  0  0  0  0
   15.5124   -3.3896   -1.0920 C   0  0  2  0  0  0  0  0  0  0  0  0
   15.8654   -4.8536   -1.3812 C   0  0  0  0  0  0  0  0  0  0  0  0
   17.0094   -5.4653   -0.8361 C   0  0  0  0  0  0  0  0  0  0  0  0
   17.7198   -4.8676   -0.2741 H   0  0  0  0  0  0  0  0  0  0  0  0
   17.2190   -6.8478   -0.9601 C   0  0  0  0  0  0  0  0  0  0  0  0
   18.0892   -7.3077   -0.4992 H   0  0  0  0  0  0  0  0  0  0  0  0
   16.2906   -7.6399   -1.6439 C   0  0  0  0  0  0  0  0  0  0  0  0
   16.4298   -8.7158   -1.7096 H   0  0  0  0  0  0  0  0  0  0  0  0
   15.1693   -7.0443   -2.2247 C   0  0  0  0  0  0  0  0  0  0  0  0
   14.4393   -7.6544   -2.7488 H   0  0  0  0  0  0  0  0  0  0  0  0
   14.9653   -5.6659   -2.1007 C   0  0  0  0  0  0  0  0  0  0  0  0
   14.0673   -5.2395   -2.5362 H   0  0  0  0  0  0  0  0  0  0  0  0
   13.9858   -3.1984   -1.0676 C   0  0  0  0  0  0  0  0  0  0  0  0
   13.2478   -3.3141   -2.0472 O   0  0  0  0  0  0  0  0  0  0  0  0
   13.5773   -2.8176    0.1994 N   0  0  0  0  0  0  0  0  0  0  0  0
   12.2279   -2.5306    0.5961 N   0  0  0  0  0  0  0  0  0  0  0  0
   11.6252   -3.4637    1.5815 C   0  0  0  0  0  0  0  0  0  0  0  0
   12.3928   -3.8436    2.2615 H   0  0  0  0  0  0  0  0  0  0  0  0
   11.1836   -4.3118    1.0460 H   0  0  0  0  0  0  0  0  0  0  0  0
   10.5535   -2.7897    2.4460 C   0  0  0  0  0  0  0  0  0  0  0  0
    9.9953   -3.5567    2.9896 H   0  0  0  0  0  0  0  0  0  0  0  0
   11.0284   -2.1282    3.1680 H   0  0  0  0  0  0  0  0  0  0  0  0
    9.6571   -1.9637    1.6205 N   0  0  0  0  0  0  0  0  0  0  0  0
    8.3730   -1.5653    2.2104 C   0  0  0  0  0  0  0  0  0  0  0  0
    7.7783   -1.0734    1.4326 H   0  0  0  0  0  0  0  0  0  0  0  0
    8.5239   -0.8520    3.0301 H   0  0  0  0  0  0  0  0  0  0  0  0
    7.6568   -2.8117    2.7363 C   0  0  0  0  0  0  0  0  0  0  0  0
    6.7503   -2.5559    3.2879 H   0  0  0  0  0  0  0  0  0  0  0  0
    7.3921   -3.4668    1.9033 H   0  0  0  0  0  0  0  0  0  0  0  0
    8.3064   -3.3659    3.4165 H   0  0  0  0  0  0  0  0  0  0  0  0
   10.3483   -0.9343    0.8015 C   0  0  0  0  0  0  0  0  0  0  0  0
   10.1300    0.0646    1.1908 H   0  0  0  0  0  0  0  0  0  0  0  0
    9.9504   -0.9967   -0.2137 H   0  0  0  0  0  0  0  0  0  0  0  0
   11.8810   -1.1076    0.7673 C   0  0  0  0  0  0  0  0  0  0  0  0
   12.3361   -0.5042   -0.0303 H   0  0  0  0  0  0  0  0  0  0  0  0
   12.2891   -0.7738    1.7240 H   0  0  0  0  0  0  0  0  0  0  0  0
   14.7346   -2.7082    0.9661 C   0  0  0  0  0  0  0  0  0  0  0  0
   14.8178   -2.2886    2.2687 N   0  0  0  0  0  0  0  0  0  0  0  0
   15.6690   -2.5280    2.7730 H   0  0  0  0  0  0  0  0  0  0  0  0
   13.9507   -2.2432    2.7964 H   0  0  0  0  0  0  0  0  0  0  0  0
   15.7965   -3.0598    0.3136 N   0  0  0  0  0  4  0  0  0  0  0  0
   16.7454   -3.0037    0.6847 H   0  0  0  0  0  0  0  0  0  0  0  0
   16.0073   -0.9693   -1.6419 C   0  0  0  0  0  0  0  0  0  0  0  0
   15.7142   -0.7236   -0.6264 H   0  0  0  0  0  0  0  0  0  0  0  0
   15.7461    1.8482   -0.8324 C   0  0  0  0  0  0  0  0  0  0  0  0
   15.6797    1.0961   -0.0492 H   0  0  0  0  0  0  0  0  0  0  0  0
   15.5515    3.1964   -0.5384 C   0  0  0  0  0  0  0  0  0  0  0  0
   15.3325    3.5137    0.4729 H   0  0  0  0  0  0  0  0  0  0  0  0
  1  2  1  0
  2  3  2  0
  3  4  1  0
  4  5  1  0
  4  6  2  0
  6  7  1  0
  7  8  2  0
  8  9  1  0
  8 10  1  0
 10 11  1  0
 10 12  2  0
 12 13  1  0
 12 14  1  0
 15 14  1  6
 15 16  1  0
 16 17  2  0
 17 18  1  0
 17 19  1  0
 19 20  1  0
 19 21  2  0
 21 22  1  0
 21 23  1  0
 23 24  1  0
 23 25  2  0
 25 26  1  0
 15 27  1  0
 27 28  2  0
 27 29  1  0
 29 30  1  0
 30 31  1  0
 31 32  1  0
 31 33  1  0
 31 34  1  0
 34 35  1  0
 34 36  1  0
 34 37  1  0
 37 38  1  0
 38 39  1  0
 38 40  1  0
 38 41  1  0
 41 42  1  0
 41 43  1  0
 41 44  1  0
 37 45  1  0
 45 46  1  0
 45 47  1  0
 45 48  1  0
 48 49  1  0
 48 50  1  0
 29 51  1  0
 51 52  1  0
 52 53  1  0
 52 54  1  0
 51 55  2  0
 55 56  1  0
 14 57  2  0
 57 58  1  0
  6 59  1  0
 59 60  1  0
 59 61  2  0
 61 62  1  0
 61  2  1  0
 57  7  1  0
 55 15  1  0
 25 16  1  0
 48 30  1  0
M  CHG  1  55   1
M  END
>  <score>  (498) 
5.09266

$$$$

     RDKit          3D

 53 56  0  0  0  0  0  0  0  0999 V2000
   15.5519    5.3501   -1.3952 H   0  0  0  0  0  0  0  0  0  0  0  0
   15.5879    4.2835   -1.6062 C   0  0  0  0  0  0  0  0  0  0  0  0
   15.8230    3.8679   -2.8611 N   0  0  0  0  0  0  0  0  0  0  0  0
   15.8802    2.5414   -3.0939 C   0  0  0  0  0  0  0  0  0  0  0  0
   16.0722    2.2012   -4.1055 H   0  0  0  0  0  0  0  0  0  0  0  0
   15.6960    1.5677   -2.0990 C   0  0  0  0  0  0  0  0  0  0  0  0
   15.7758    0.1229   -2.4072 C   0  0  0  0  0  0  0  0  0  0  0  0
   16.3292   -0.3155   -3.6144 C   0  0  0  0  0  0  0  0  0  0  0  0
   16.7105    0.4313   -4.3015 H   0  0  0  0  0  0  0  0  0  0  0  0
   16.4244   -1.6819   -3.9110 C   0  0  0  0  0  0  0  0  0  0  0  0
   16.8658   -1.9998   -4.8495 H   0  0  0  0  0  0  0  0  0  0  0  0
   15.9508   -2.6350   -3.0017 C   0  0  0  0  0  0  0  0  0  0  0  0
   16.0036   -3.6953   -3.2376 H   0  0  0  0  0  0  0  0  0  0  0  0
   15.3968   -2.2295   -1.7796 C   0  0  0  0  0  0  0  0  0  0  0  0
   14.8451   -3.2401   -0.7813 C   0  0  2  0  0  0  0  0  0  0  0  0
   15.1927   -4.7024   -1.0793 C   0  0  0  0  0  0  0  0  0  0  0  0
   16.4047   -5.2291   -0.6094 C   0  0  0  0  0  0  0  0  0  0  0  0
   17.0791   -4.5785   -0.0600 H   0  0  0  0  0  0  0  0  0  0  0  0
   16.7406   -6.5738   -0.8043 C   0  0  0  0  0  0  0  0  0  0  0  0
   17.6757   -6.9625   -0.4106 H   0  0  0  0  0  0  0  0  0  0  0  0
   15.8591   -7.4213   -1.4815 C   0  0  0  0  0  0  0  0  0  0  0  0
   16.1055   -8.4708   -1.6158 H   0  0  0  0  0  0  0  0  0  0  0  0
   14.6474   -6.9189   -1.9672 C   0  0  0  0  0  0  0  0  0  0  0  0
   13.9608   -7.5828   -2.4873 H   0  0  0  0  0  0  0  0  0  0  0  0
   14.3163   -5.5669   -1.7696 C   0  0  0  0  0  0  0  0  0  0  0  0
   13.3622   -5.1939   -2.1285 H   0  0  0  0  0  0  0  0  0  0  0  0
   13.3377   -3.0117   -0.6299 C   0  0  0  0  0  0  0  0  0  0  0  0
   12.4906   -3.1302   -1.5188 O   0  0  0  0  0  0  0  0  0  0  0  0
   13.0792   -2.6255    0.6696 N   0  0  0  0  0  0  0  0  0  0  0  0
   11.8217   -2.1978    1.1654 O   0  0  0  0  0  0  0  0  0  0  0  0
   11.1003   -3.3053    1.7086 C   0  0  0  0  0  0  0  0  0  0  0  0
   11.6788   -3.7913    2.5038 H   0  0  0  0  0  0  0  0  0  0  0  0
   10.8886   -4.0446    0.9271 H   0  0  0  0  0  0  0  0  0  0  0  0
    9.7944   -2.8014    2.2723 C   0  0  0  0  0  0  0  0  0  0  0  0
    9.9895   -2.1048    3.0985 H   0  0  0  0  0  0  0  0  0  0  0  0
    9.2366   -2.2635    1.4982 H   0  0  0  0  0  0  0  0  0  0  0  0
    9.0483   -3.9456    2.7035 O   0  0  0  0  0  0  0  0  0  0  0  0
    7.8303   -3.5557    3.3266 C   0  0  0  0  0  0  0  0  0  0  0  0
    8.0746   -2.9036    4.1651 H   0  0  0  0  0  0  0  0  0  0  0  0
    7.2039   -3.0251    2.6044 H   0  0  0  0  0  0  0  0  0  0  0  0
    7.2701   -4.4171    3.7014 H   0  0  0  0  0  0  0  0  0  0  0  0
   14.2820   -2.5909    1.3573 C   0  0  0  0  0  0  0  0  0  0  0  0
   14.4410   -2.2956    2.6875 N   0  0  0  0  0  0  0  0  0  0  0  0
   13.6211   -2.1090    3.2663 H   0  0  0  0  0  0  0  0  0  0  0  0
   15.3703   -2.3359    3.1036 H   0  0  0  0  0  0  0  0  0  0  0  0
   15.2802   -2.9081    0.5969 N   0  0  0  0  0  4  0  0  0  0  0  0
   16.2517   -2.9708    0.9148 H   0  0  0  0  0  0  0  0  0  0  0  0
   15.3140   -0.8471   -1.5026 C   0  0  0  0  0  0  0  0  0  0  0  0
   14.8661   -0.5131   -0.5714 H   0  0  0  0  0  0  0  0  0  0  0  0
   15.4468    2.0095   -0.8008 C   0  0  0  0  0  0  0  0  0  0  0  0
   15.3380    1.2706   -0.0133 H   0  0  0  0  0  0  0  0  0  0  0  0
   15.3853    3.3844   -0.5562 C   0  0  0  0  0  0  0  0  0  0  0  0
   15.1819    3.7711    0.4358 H   0  0  0  0  0  0  0  0  0  0  0  0
  1  2  1  0
  2  3  2  0
  3  4  1  0
  4  5  1  0
  4  6  2  0
  6  7  1  0
  7  8  2  0
  8  9  1  0
  8 10  1  0
 10 11  1  0
 10 12  2  0
 12 13  1  0
 12 14  1  0
 15 14  1  6
 15 16  1  0
 16 17  2  0
 17 18  1  0
 17 19  1  0
 19 20  1  0
 19 21  2  0
 21 22  1  0
 21 23  1  0
 23 24  1  0
 23 25  2  0
 25 26  1  0
 15 27  1  0
 27 28  2  0
 27 29  1  0
 29 30  1  0
 30 31  1  0
 31 32  1  0
 31 33  1  0
 31 34  1  0
 34 35  1  0
 34 36  1  0
 34 37  1  0
 37 38  1  0
 38 39  1  0
 38 40  1  0
 38 41  1  0
 29 42  1  0
 42 43  1  0
 43 44  1  0
 43 45  1  0
 42 46  2  0
 46 47  1  0
 14 48  2  0
 48 49  1  0
  6 50  1  0
 50 51  1  0
 50 52  2  0
 52 53  1  0
 52  2  1  0
 48  7  1  0
 46 15  1  0
 25 16  1  0
M  CHG  1  46   1
M  END
>  <score>  (499) 
5.01484

$$$$

     RDKit          3D

 49 52  0  0  0  0  0  0  0  0999 V2000
   15.5314    5.3256   -1.4136 H   0  0  0  0  0  0  0  0  0  0  0  0
   15.5863    4.2599   -1.6131 C   0  0  0  0  0  0  0  0  0  0  0  0
   15.8366    3.8488   -2.8651 N   0  0  0  0  0  0  0  0  0  0  0  0
   15.8987    2.5255   -3.0995 C   0  0  0  0  0  0  0  0  0  0  0  0
   16.0971    2.1971   -4.1152 H   0  0  0  0  0  0  0  0  0  0  0  0
   15.7113    1.5556   -2.0994 C   0  0  0  0  0  0  0  0  0  0  0  0
   15.7855    0.1185   -2.4059 C   0  0  0  0  0  0  0  0  0  0  0  0
   16.3327   -0.3120   -3.6189 C   0  0  0  0  0  0  0  0  0  0  0  0
   16.7029    0.4264   -4.3236 H   0  0  0  0  0  0  0  0  0  0  0  0
   16.4209   -1.6747   -3.9137 C   0  0  0  0  0  0  0  0  0  0  0  0
   16.8554   -1.9905   -4.8563 H   0  0  0  0  0  0  0  0  0  0  0  0
   15.9577   -2.6226   -2.9939 C   0  0  0  0  0  0  0  0  0  0  0  0
   16.0188   -3.6789   -3.2349 H   0  0  0  0  0  0  0  0  0  0  0  0
   15.4139   -2.2251   -1.7634 C   0  0  0  0  0  0  0  0  0  0  0  0
   14.8733   -3.2402   -0.7631 C   0  0  2  0  0  0  0  0  0  0  0  0
   15.2342   -4.6905   -1.0655 C   0  0  0  0  0  0  0  0  0  0  0  0
   16.4463   -5.2272   -0.6059 C   0  0  0  0  0  0  0  0  0  0  0  0
   17.1358   -4.5901   -0.0596 H   0  0  0  0  0  0  0  0  0  0  0  0
   16.7589   -6.5756   -0.8065 C   0  0  0  0  0  0  0  0  0  0  0  0
   17.6897   -6.9729   -0.4122 H   0  0  0  0  0  0  0  0  0  0  0  0
   15.8645   -7.4078   -1.4875 C   0  0  0  0  0  0  0  0  0  0  0  0
   16.0991   -8.4590   -1.6292 H   0  0  0  0  0  0  0  0  0  0  0  0
   14.6594   -6.8857   -1.9686 C   0  0  0  0  0  0  0  0  0  0  0  0
   13.9571   -7.5326   -2.4866 H   0  0  0  0  0  0  0  0  0  0  0  0
   14.3473   -5.5357   -1.7606 C   0  0  0  0  0  0  0  0  0  0  0  0
   13.3960   -5.1523   -2.1184 H   0  0  0  0  0  0  0  0  0  0  0  0
   13.3566   -3.0627   -0.6141 C   0  0  0  0  0  0  0  0  0  0  0  0
   12.5234   -3.2199   -1.5053 O   0  0  0  0  0  0  0  0  0  0  0  0
   13.0680   -2.6741    0.6781 N   0  0  0  0  0  0  0  0  0  0  0  0
   11.7598   -2.5962    1.2315 O   0  0  0  0  0  0  0  0  0  0  0  0
   11.2175   -1.2724    1.0968 C   0  0  0  0  0  0  0  0  0  0  0  0
   11.3553   -0.9135    0.0704 H   0  0  0  0  0  0  0  0  0  0  0  0
   11.7790   -0.5908    1.7443 H   0  0  0  0  0  0  0  0  0  0  0  0
    9.7091   -1.2420    1.4110 C   0  0  0  0  0  0  0  0  0  0  0  0
    9.4059   -1.7409    2.6390 F   0  0  0  0  0  0  0  0  0  0  0  0
    9.2608    0.0430    1.3442 F   0  0  0  0  0  0  0  0  0  0  0  0
    9.0409   -1.9984    0.4978 F   0  0  0  0  0  0  0  0  0  0  0  0
   14.2685   -2.6284    1.3718 C   0  0  0  0  0  0  0  0  0  0  0  0
   14.4528   -2.3352    2.6945 N   0  0  0  0  0  0  0  0  0  0  0  0
   15.3992   -2.3327    3.0781 H   0  0  0  0  0  0  0  0  0  0  0  0
   13.6491   -2.1551    3.2940 H   0  0  0  0  0  0  0  0  0  0  0  0
   15.2808   -2.9043    0.6144 N   0  0  0  0  0  4  0  0  0  0  0  0
   16.2451   -2.9812    0.9479 H   0  0  0  0  0  0  0  0  0  0  0  0
   15.3236   -0.8455   -1.4927 C   0  0  0  0  0  0  0  0  0  0  0  0
   14.8799   -0.5116   -0.5592 H   0  0  0  0  0  0  0  0  0  0  0  0
   15.4706    1.9938   -0.7978 C   0  0  0  0  0  0  0  0  0  0  0  0
   15.3648    1.2719    0.0065 H   0  0  0  0  0  0  0  0  0  0  0  0
   15.3997    3.3635   -0.5585 C   0  0  0  0  0  0  0  0  0  0  0  0
   15.2090    3.7398    0.4388 H   0  0  0  0  0  0  0  0  0  0  0  0
  1  2  1  0
  2  3  2  0
  3  4  1  0
  4  5  1  0
  4  6  2  0
  6  7  1  0
  7  8  2  0
  8  9  1  0
  8 10  1  0
 10 11  1  0
 10 12  2  0
 12 13  1  0
 12 14  1  0
 15 14  1  6
 15 16  1  0
 16 17  2  0
 17 18  1  0
 17 19  1  0
 19 20  1  0
 19 21  2  0
 21 22  1  0
 21 23  1  0
 23 24  1  0
 23 25  2  0
 25 26  1  0
 15 27  1  0
 27 28  2  0
 27 29  1  0
 29 30  1  0
 30 31  1  0
 31 32  1  0
 31 33  1  0
 31 34  1  0
 34 35  1  0
 34 36  1  0
 34 37  1  0
 29 38  1  0
 38 39  1  0
 39 40  1  0
 39 41  1  0
 38 42  2  0
 42 43  1  0
 14 44  2  0
 44 45  1  0
  6 46  1  0
 46 47  1  0
 46 48  2  0
 48 49  1  0
 48  2  1  0
 44  7  1  0
 42 15  1  0
 25 16  1  0
M  CHG  1  42   1
M  END
>  <score>  (500) 
4.9907

$$$$

     RDKit          3D

 51 54  0  0  0  0  0  0  0  0999 V2000
   15.5221    5.3178   -1.4226 H   0  0  0  0  0  0  0  0  0  0  0  0
   15.5861    4.2507   -1.6153 C   0  0  0  0  0  0  0  0  0  0  0  0
   15.8414    3.8381   -2.8657 N   0  0  0  0  0  0  0  0  0  0  0  0
   15.9089    2.5155   -3.1012 C   0  0  0  0  0  0  0  0  0  0  0  0
   16.1085    2.1948   -4.1201 H   0  0  0  0  0  0  0  0  0  0  0  0
   15.7190    1.5468   -2.0990 C   0  0  0  0  0  0  0  0  0  0  0  0
   15.7862    0.1131   -2.4060 C   0  0  0  0  0  0  0  0  0  0  0  0
   16.3344   -0.3127   -3.6200 C   0  0  0  0  0  0  0  0  0  0  0  0
   16.6975    0.4192   -4.3357 H   0  0  0  0  0  0  0  0  0  0  0  0
   16.4245   -1.6725   -3.9136 C   0  0  0  0  0  0  0  0  0  0  0  0
   16.8443   -1.9845   -4.8621 H   0  0  0  0  0  0  0  0  0  0  0  0
   15.9695   -2.6208   -2.9930 C   0  0  0  0  0  0  0  0  0  0  0  0
   16.0257   -3.6759   -3.2368 H   0  0  0  0  0  0  0  0  0  0  0  0
   15.4320   -2.2269   -1.7604 C   0  0  0  0  0  0  0  0  0  0  0  0
   14.9045   -3.2440   -0.7606 C   0  0  2  0  0  0  0  0  0  0  0  0
   15.2649   -4.6896   -1.0667 C   0  0  0  0  0  0  0  0  0  0  0  0
   16.4737   -5.2317   -0.6085 C   0  0  0  0  0  0  0  0  0  0  0  0
   17.1678   -4.5989   -0.0610 H   0  0  0  0  0  0  0  0  0  0  0  0
   16.7715   -6.5816   -0.8103 C   0  0  0  0  0  0  0  0  0  0  0  0
   17.6992   -6.9804   -0.4146 H   0  0  0  0  0  0  0  0  0  0  0  0
   15.8681   -7.4054   -1.4903 C   0  0  0  0  0  0  0  0  0  0  0  0
   16.0991   -8.4566   -1.6383 H   0  0  0  0  0  0  0  0  0  0  0  0
   14.6661   -6.8732   -1.9668 C   0  0  0  0  0  0  0  0  0  0  0  0
   13.9579   -7.5080   -2.4898 H   0  0  0  0  0  0  0  0  0  0  0  0
   14.3658   -5.5230   -1.7592 C   0  0  0  0  0  0  0  0  0  0  0  0
   13.4172   -5.1318   -2.1174 H   0  0  0  0  0  0  0  0  0  0  0  0
   13.3870   -3.0700   -0.6151 C   0  0  0  0  0  0  0  0  0  0  0  0
   12.5578   -3.2470   -1.5071 O   0  0  0  0  0  0  0  0  0  0  0  0
   13.0861   -2.6971    0.6773 N   0  0  0  0  0  0  0  0  0  0  0  0
   11.7604   -2.6146    1.2117 O   0  0  0  0  0  0  0  0  0  0  0  0
   11.2153   -1.2992    1.0094 C   0  0  0  0  0  0  0  0  0  0  0  0
   11.8297   -0.5973    1.5788 H   0  0  0  0  0  0  0  0  0  0  0  0
   11.2821   -1.0210   -0.0469 H   0  0  0  0  0  0  0  0  0  0  0  0
    9.7524   -1.1577    1.4724 C   0  0  0  0  0  0  0  0  0  0  0  0
    9.5154   -0.0950    1.6025 H   0  0  0  0  0  0  0  0  0  0  0  0
    9.6585   -1.6032    2.4639 H   0  0  0  0  0  0  0  0  0  0  0  0
    8.7686   -1.7694    0.5491 N   0  0  0  0  0  0  0  0  0  0  0  0
    8.7302   -1.2843   -0.3468 H   0  0  0  0  0  0  0  0  0  0  0  0
    7.8441   -1.8215    0.9771 H   0  0  0  0  0  0  0  0  0  0  0  0
   14.2886   -2.6456    1.3737 C   0  0  0  0  0  0  0  0  0  0  0  0
   14.4799   -2.3504    2.6996 N   0  0  0  0  0  0  0  0  0  0  0  0
   15.4274   -2.3191    3.0778 H   0  0  0  0  0  0  0  0  0  0  0  0
   13.6785   -2.1590    3.2968 H   0  0  0  0  0  0  0  0  0  0  0  0
   15.3081   -2.9140    0.6202 N   0  0  0  0  0  4  0  0  0  0  0  0
   16.2727   -2.9808    0.9540 H   0  0  0  0  0  0  0  0  0  0  0  0
   15.3269   -0.8497   -1.4897 C   0  0  0  0  0  0  0  0  0  0  0  0
   14.8844   -0.5201   -0.5530 H   0  0  0  0  0  0  0  0  0  0  0  0
   15.4851    1.9853   -0.7950 C   0  0  0  0  0  0  0  0  0  0  0  0
   15.3750    1.2732    0.0185 H   0  0  0  0  0  0  0  0  0  0  0  0
   15.4113    3.3541   -0.5583 C   0  0  0  0  0  0  0  0  0  0  0  0
   15.2230    3.7250    0.4411 H   0  0  0  0  0  0  0  0  0  0  0  0
  1  2  1  0
  2  3  2  0
  3  4  1  0
  4  5  1  0
  4  6  2  0
  6  7  1  0
  7  8  2  0
  8  9  1  0
  8 10  1  0
 10 11  1  0
 10 12  2  0
 12 13  1  0
 12 14  1  0
 15 14  1  6
 15 16  1  0
 16 17  2  0
 17 18  1  0
 17 19  1  0
 19 20  1  0
 19 21  2  0
 21 22  1  0
 21 23  1  0
 23 24  1  0
 23 25  2  0
 25 26  1  0
 15 27  1  0
 27 28  2  0
 27 29  1  0
 29 30  1  0
 30 31  1  0
 31 32  1  0
 31 33  1  0
 31 34  1  0
 34 35  1  0
 34 36  1  0
 34 37  1  0
 37 38  1  0
 37 39  1  0
 29 40  1  0
 40 41  1  0
 41 42  1  0
 41 43  1  0
 40 44  2  0
 44 45  1  0
 14 46  2  0
 46 47  1  0
  6 48  1  0
 48 49  1  0
 48 50  2  0
 50 51  1  0
 50  2  1  0
 46  7  1  0
 44 15  1  0
 25 16  1  0
M  CHG  1  44   1
M  END
>  <score>  (501) 
4.93656

$$$$

     RDKit          3D

 50 53  0  0  0  0  0  0  0  0999 V2000
    9.0011   -0.1885    0.7222 H   0  0  0  0  0  0  0  0  0  0  0  0
    9.8470    0.0850    1.1582 O   0  0  0  0  0  0  0  0  0  0  0  0
   10.4725   -1.0484    0.3520 P   0  0  0  0  0  0  0  0  0  0  0  0
   10.8515   -0.7872   -1.0440 O   0  0  0  0  0  0  0  0  0  0  0  0
    8.9750   -1.1363    0.7242 O   0  0  0  0  0  0  0  0  0  0  0  0
    9.1926   -0.5222    1.4745 H   0  0  0  0  0  0  0  0  0  0  0  0
   11.7501   -2.2486    1.0714 C   0  0  0  0  0  0  0  0  0  0  0  0
   11.7862   -1.9162    2.1103 H   0  0  0  0  0  0  0  0  0  0  0  0
   11.2538   -3.2228    1.0691 H   0  0  0  0  0  0  0  0  0  0  0  0
   13.1681   -2.4465    0.5447 N   0  0  0  0  0  0  0  0  0  0  0  0
   13.5306   -3.0319   -0.6710 C   0  0  0  0  0  0  0  0  0  0  0  0
   12.6901   -3.3615   -1.5028 O   0  0  0  0  0  0  0  0  0  0  0  0
   15.0544   -3.2543   -0.7653 C   0  0  1  0  0  0  0  0  0  0  0  0
   15.4225   -4.7093   -1.0568 C   0  0  0  0  0  0  0  0  0  0  0  0
   16.6269   -5.2649   -0.5909 C   0  0  0  0  0  0  0  0  0  0  0  0
   17.3248   -4.6477   -0.0332 H   0  0  0  0  0  0  0  0  0  0  0  0
   16.9409   -6.6091   -0.8335 C   0  0  0  0  0  0  0  0  0  0  0  0
   17.8651   -7.0254   -0.4442 H   0  0  0  0  0  0  0  0  0  0  0  0
   16.0604   -7.4182   -1.5588 C   0  0  0  0  0  0  0  0  0  0  0  0
   16.2950   -8.4661   -1.7300 H   0  0  0  0  0  0  0  0  0  0  0  0
   14.8720   -6.8732   -2.0517 C   0  0  0  0  0  0  0  0  0  0  0  0
   14.1849   -7.4974   -2.6146 H   0  0  0  0  0  0  0  0  0  0  0  0
   14.5573   -5.5313   -1.8043 C   0  0  0  0  0  0  0  0  0  0  0  0
   13.6278   -5.1326   -2.1983 H   0  0  0  0  0  0  0  0  0  0  0  0
   15.6280   -2.2618   -1.7715 C   0  0  0  0  0  0  0  0  0  0  0  0
   16.1102   -2.6595   -3.0293 C   0  0  0  0  0  0  0  0  0  0  0  0
   16.1517   -3.7129   -3.2879 H   0  0  0  0  0  0  0  0  0  0  0  0
   16.5181   -1.7057   -3.9686 C   0  0  0  0  0  0  0  0  0  0  0  0
   16.8743   -2.0110   -4.9460 H   0  0  0  0  0  0  0  0  0  0  0  0
   16.4485   -0.3430   -3.6634 C   0  0  0  0  0  0  0  0  0  0  0  0
   16.7581    0.3925   -4.3996 H   0  0  0  0  0  0  0  0  0  0  0  0
   15.9698    0.0841   -2.4172 C   0  0  0  0  0  0  0  0  0  0  0  0
   15.8565    1.5171   -2.0921 C   0  0  0  0  0  0  0  0  0  0  0  0
   16.0058    2.4987   -3.0865 C   0  0  0  0  0  0  0  0  0  0  0  0
   16.2120    2.1823   -4.1048 H   0  0  0  0  0  0  0  0  0  0  0  0
   15.8964    3.8178   -2.8446 N   0  0  0  0  0  0  0  0  0  0  0  0
   15.6295    4.2136   -1.5912 C   0  0  0  0  0  0  0  0  0  0  0  0
   15.5312    5.2749   -1.3865 H   0  0  0  0  0  0  0  0  0  0  0  0
   15.4710    3.3063   -0.5422 C   0  0  0  0  0  0  0  0  0  0  0  0
   15.2602    3.6721    0.4548 H   0  0  0  0  0  0  0  0  0  0  0  0
   15.5869    1.9401   -0.7864 C   0  0  0  0  0  0  0  0  0  0  0  0
   15.4801    1.2158    0.0186 H   0  0  0  0  0  0  0  0  0  0  0  0
   15.5650   -0.8857   -1.4896 C   0  0  0  0  0  0  0  0  0  0  0  0
   15.1640   -0.5602   -0.5351 H   0  0  0  0  0  0  0  0  0  0  0  0
   15.3807   -2.8787    0.6247 N   0  0  0  0  0  4  0  0  0  0  0  0
   16.2931   -3.0425    1.0539 H   0  0  0  0  0  0  0  0  0  0  0  0
   14.3487   -2.4809    1.2983 C   0  0  0  0  0  0  0  0  0  0  0  0
   14.5326   -2.1719    2.6243 N   0  0  0  0  0  0  0  0  0  0  0  0
   13.7294   -2.0309    3.2349 H   0  0  0  0  0  0  0  0  0  0  0  0
   15.4506   -2.3570    3.0304 H   0  0  0  0  0  0  0  0  0  0  0  0
  1  2  1  0
  2  3  1  0
  3  4  2  0
  3  5  1  0
  5  6  1  0
  3  7  1  0
  7  8  1  0
  7  9  1  0
  7 10  1  0
 10 11  1  0
 11 12  2  0
 11 13  1  0
 13 14  1  6
 14 15  2  0
 15 16  1  0
 15 17  1  0
 17 18  1  0
 17 19  2  0
 19 20  1  0
 19 21  1  0
 21 22  1  0
 21 23  2  0
 23 24  1  0
 13 25  1  0
 25 26  2  0
 26 27  1  0
 26 28  1  0
 28 29  1  0
 28 30  2  0
 30 31  1  0
 30 32  1  0
 32 33  1  0
 33 34  2  0
 34 35  1  0
 34 36  1  0
 36 37  2  0
 37 38  1  0
 37 39  1  0
 39 40  1  0
 39 41  2  0
 41 42  1  0
 32 43  2  0
 43 44  1  0
 13 45  1  0
 45 46  1  0
 45 47  2  0
 47 48  1  0
 48 49  1  0
 48 50  1  0
 47 10  1  0
 23 14  1  0
 43 25  1  0
 41 33  1  0
M  CHG  1  45   1
M  END
>  <score>  (502) 
4.92347

$$$$

     RDKit          3D

 47 50  0  0  0  0  0  0  0  0999 V2000
   15.5535    5.3504   -1.3956 H   0  0  0  0  0  0  0  0  0  0  0  0
   15.5875    4.2841   -1.6048 C   0  0  0  0  0  0  0  0  0  0  0  0
   15.8240    3.8688   -2.8588 N   0  0  0  0  0  0  0  0  0  0  0  0
   15.8784    2.5431   -3.0937 C   0  0  0  0  0  0  0  0  0  0  0  0
   16.0684    2.2056   -4.1075 H   0  0  0  0  0  0  0  0  0  0  0  0
   15.6956    1.5702   -2.0967 C   0  0  0  0  0  0  0  0  0  0  0  0
   15.7758    0.1243   -2.4054 C   0  0  0  0  0  0  0  0  0  0  0  0
   16.3317   -0.3173   -3.6122 C   0  0  0  0  0  0  0  0  0  0  0  0
   16.7141    0.4233   -4.3067 H   0  0  0  0  0  0  0  0  0  0  0  0
   16.4193   -1.6833   -3.9073 C   0  0  0  0  0  0  0  0  0  0  0  0
   16.8635   -2.0058   -4.8416 H   0  0  0  0  0  0  0  0  0  0  0  0
   15.9424   -2.6321   -2.9978 C   0  0  0  0  0  0  0  0  0  0  0  0
   15.9996   -3.6905   -3.2359 H   0  0  0  0  0  0  0  0  0  0  0  0
   15.3903   -2.2286   -1.7724 C   0  0  0  0  0  0  0  0  0  0  0  0
   14.8253   -3.2427   -0.7769 C   0  0  2  0  0  0  0  0  0  0  0  0
   15.1831   -4.7033   -1.0758 C   0  0  0  0  0  0  0  0  0  0  0  0
   16.3987   -5.2278   -0.6046 C   0  0  0  0  0  0  0  0  0  0  0  0
   17.0760   -4.5764   -0.0593 H   0  0  0  0  0  0  0  0  0  0  0  0
   16.7349   -6.5703   -0.8007 C   0  0  0  0  0  0  0  0  0  0  0  0
   17.6729   -6.9542   -0.4139 H   0  0  0  0  0  0  0  0  0  0  0  0
   15.8570   -7.4174   -1.4798 C   0  0  0  0  0  0  0  0  0  0  0  0
   16.1071   -8.4657   -1.6147 H   0  0  0  0  0  0  0  0  0  0  0  0
   14.6453   -6.9170   -1.9644 C   0  0  0  0  0  0  0  0  0  0  0  0
   13.9634   -7.5814   -2.4873 H   0  0  0  0  0  0  0  0  0  0  0  0
   14.3080   -5.5681   -1.7652 C   0  0  0  0  0  0  0  0  0  0  0  0
   13.3553   -5.1973   -2.1331 H   0  0  0  0  0  0  0  0  0  0  0  0
   13.3048   -3.0111   -0.5949 C   0  0  0  0  0  0  0  0  0  0  0  0
   12.3905   -3.0945   -1.4130 O   0  0  0  0  0  0  0  0  0  0  0  0
   13.0468   -2.6957    0.7129 N   0  0  0  0  0  0  0  0  0  0  0  0
   11.7918   -2.5221    1.2830 C   0  0  0  0  0  0  0  0  0  0  0  0
   11.7126   -2.8765    2.4580 O   0  0  0  0  0  0  0  0  0  0  0  0
   10.5700   -1.8436    0.5553 C   0  0  0  0  0  0  0  0  0  0  0  0
   11.0025   -0.8387   -0.2643 F   0  0  0  0  0  0  0  0  0  0  0  0
    9.8655   -2.7254   -0.2159 F   0  0  0  0  0  0  0  0  0  0  0  0
    9.6861   -1.2892    1.4330 F   0  0  0  0  0  0  0  0  0  0  0  0
   14.2417   -2.6996    1.3869 C   0  0  0  0  0  0  0  0  0  0  0  0
   14.3761   -2.4160    2.7125 N   0  0  0  0  0  0  0  0  0  0  0  0
   13.5784   -2.0612    3.2356 H   0  0  0  0  0  0  0  0  0  0  0  0
   15.3134   -2.3435    3.1034 H   0  0  0  0  0  0  0  0  0  0  0  0
   15.2449   -2.9465    0.6170 N   0  0  0  0  0  4  0  0  0  0  0  0
   16.2175   -2.9447    0.9442 H   0  0  0  0  0  0  0  0  0  0  0  0
   15.3097   -0.8441   -1.4985 C   0  0  0  0  0  0  0  0  0  0  0  0
   14.8657   -0.5022   -0.5673 H   0  0  0  0  0  0  0  0  0  0  0  0
   15.4438    2.0135   -0.7984 C   0  0  0  0  0  0  0  0  0  0  0  0
   15.3324    1.2808   -0.0056 H   0  0  0  0  0  0  0  0  0  0  0  0
   15.3823    3.3865   -0.5559 C   0  0  0  0  0  0  0  0  0  0  0  0
   15.1816    3.7706    0.4366 H   0  0  0  0  0  0  0  0  0  0  0  0
  1  2  1  0
  2  3  2  0
  3  4  1  0
  4  5  1  0
  4  6  2  0
  6  7  1  0
  7  8  2  0
  8  9  1  0
  8 10  1  0
 10 11  1  0
 10 12  2  0
 12 13  1  0
 12 14  1  0
 15 14  1  6
 15 16  1  0
 16 17  2  0
 17 18  1  0
 17 19  1  0
 19 20  1  0
 19 21  2  0
 21 22  1  0
 21 23  1  0
 23 24  1  0
 23 25  2  0
 25 26  1  0
 15 27  1  0
 27 28  2  0
 27 29  1  0
 29 30  1  0
 30 31  2  0
 30 32  1  0
 32 33  1  0
 32 34  1  0
 32 35  1  0
 29 36  1  0
 36 37  1  0
 37 38  1  0
 37 39  1  0
 36 40  2  0
 40 41  1  0
 14 42  2  0
 42 43  1  0
  6 44  1  0
 44 45  1  0
 44 46  2  0
 46 47  1  0
 46  2  1  0
 42  7  1  0
 40 15  1  0
 25 16  1  0
M  CHG  1  40   1
M  END
>  <score>  (503) 
4.88143

$$$$
CAT-4j
     RDKit          3D

 44 47  0  0  1  0  0  0  0  0999 V2000
   13.0313   -2.6523    0.7225 N   0  0  0  0  0  0  0  0  0  0  0  0
   14.2010   -2.6281    1.3773 C   0  0  0  0  0  0  0  0  0  0  0  0
   14.3777   -2.3568    2.6732 N   0  0  0  0  0  0  0  0  0  0  0  0
   15.2217   -2.9197    0.5738 N   0  0  0  0  0  0  0  0  0  0  0  0
   14.7965   -3.2519   -0.7875 C   0  0  2  0  0  0  0  0  0  0  0  0
   15.1409   -4.7334   -1.0690 C   0  0  0  0  0  0  0  0  0  0  0  0
   16.3619   -5.2517   -0.5871 C   0  0  0  0  0  0  0  0  0  0  0  0
   16.7322   -6.5909   -0.7921 C   0  0  0  0  0  0  0  0  0  0  0  0
   15.8605   -7.4582   -1.4613 C   0  0  0  0  0  0  0  0  0  0  0  0
   14.6405   -6.9706   -1.9577 C   0  0  0  0  0  0  0  0  0  0  0  0
   14.2904   -5.6173   -1.7762 C   0  0  0  0  0  0  0  0  0  0  0  0
   15.3794   -2.2443   -1.7949 C   0  0  0  0  0  0  0  0  0  0  0  0
   15.9522   -2.6550   -3.0208 C   0  0  0  0  0  0  0  0  0  0  0  0
   16.4340   -1.6937   -3.9273 C   0  0  0  0  0  0  0  0  0  0  0  0
   16.3364   -0.3224   -3.6308 C   0  0  0  0  0  0  0  0  0  0  0  0
   15.7943    0.1250   -2.4073 C   0  0  0  0  0  0  0  0  0  0  0  0
   15.6711    1.5693   -2.0915 C   0  0  0  0  0  0  0  0  0  0  0  0
   15.3832    2.0354   -0.7903 C   0  0  0  0  0  0  0  0  0  0  0  0
   15.3534    3.4188   -0.5357 C   0  0  0  0  0  0  0  0  0  0  0  0
   15.5968    4.3049   -1.5946 C   0  0  0  0  0  0  0  0  0  0  0  0
   15.8275    3.8920   -2.8511 N   0  0  0  0  0  0  0  0  0  0  0  0
   15.8598    2.5642   -3.0762 C   0  0  0  0  0  0  0  0  0  0  0  0
   15.3327   -0.8573   -1.5012 C   0  0  0  0  0  0  0  0  0  0  0  0
   13.2767   -3.0094   -0.6368 C   0  0  0  0  0  0  0  0  0  0  0  0
   12.3981   -3.0674   -1.5055 O   0  0  0  0  0  0  0  0  0  0  0  0
    0.0000    0.0000    0.0000 H   0  0  0  0  0  0  0  0  0  0  0  0
    0.0000    0.0000    0.0000 H   0  0  0  0  0  0  0  0  0  0  0  0
    0.0000    0.0000    0.0000 H   0  0  0  0  0  0  0  0  0  0  0  0
    0.0000    0.0000    0.0000 H   0  0  0  0  0  0  0  0  0  0  0  0
    0.0000    0.0000    0.0000 H   0  0  0  0  0  0  0  0  0  0  0  0
    0.0000    0.0000    0.0000 H   0  0  0  0  0  0  0  0  0  0  0  0
    0.0000    0.0000    0.0000 H   0  0  0  0  0  0  0  0  0  0  0  0
    0.0000    0.0000    0.0000 H   0  0  0  0  0  0  0  0  0  0  0  0
    0.0000    0.0000    0.0000 H   0  0  0  0  0  0  0  0  0  0  0  0
    0.0000    0.0000    0.0000 H   0  0  0  0  0  0  0  0  0  0  0  0
    0.0000    0.0000    0.0000 H   0  0  0  0  0  0  0  0  0  0  0  0
    0.0000    0.0000    0.0000 H   0  0  0  0  0  0  0  0  0  0  0  0
    0.0000    0.0000    0.0000 H   0  0  0  0  0  0  0  0  0  0  0  0
    0.0000    0.0000    0.0000 H   0  0  0  0  0  0  0  0  0  0  0  0
    0.0000    0.0000    0.0000 H   0  0  0  0  0  0  0  0  0  0  0  0
    0.0000    0.0000    0.0000 H   0  0  0  0  0  0  0  0  0  0  0  0
    6.1051   -1.2426    0.3385 N   0  0  0  0  0  4  0  0  0  0  0  0
    5.5712   -0.4214    1.0805 O   0  0  0  0  0  0  0  0  0  0  0  0
    5.3209   -1.8915   -0.5807 O   0  0  0  0  0  1  0  0  0  0  0  0
  1  2  1  0
  1 24  1  0
  2  3  1  0
  2  4  2  0
  4  5  1  0
  5  6  1  6
  5 12  1  0
  5 24  1  0
  6  7  2  0
  6 11  1  0
  7  8  1  0
  8  9  2  0
  9 10  1  0
 10 11  2  0
 12 13  2  0
 12 23  1  0
 13 14  1  0
 14 15  2  0
 15 16  1  0
 16 17  1  0
 16 23  2  0
 17 18  2  0
 17 22  1  0
 18 19  1  0
 19 20  2  0
 20 21  1  0
 21 22  2  0
 24 25  2  0
  3 26  1  0
  3 27  1  0
  4 28  1  0
  7 29  1  0
  8 30  1  0
  9 31  1  0
 10 32  1  0
 11 33  1  0
 13 34  1  0
 14 35  1  0
 15 36  1  0
 18 37  1  0
 19 38  1  0
 20 39  1  0
 22 40  1  0
 23 41  1  0
 42 43  2  0
 42 44  1  0
  1 42  1  0
M  CHG  3   4   1  42   1  44  -1
M  END
>  <attachment_point>  (504) 
25

>  <score>  (504) 
<NA>

$$$$
CAT-4j
     RDKit          3D

 46 49  0  0  1  0  0  0  0  0999 V2000
   13.0313   -2.6523    0.7225 N   0  0  0  0  0  0  0  0  0  0  0  0
   14.2010   -2.6281    1.3773 C   0  0  0  0  0  0  0  0  0  0  0  0
   14.3777   -2.3568    2.6732 N   0  0  0  0  0  0  0  0  0  0  0  0
   15.2217   -2.9197    0.5738 N   0  0  0  0  0  0  0  0  0  0  0  0
   14.7965   -3.2519   -0.7875 C   0  0  2  0  0  0  0  0  0  0  0  0
   15.1409   -4.7334   -1.0690 C   0  0  0  0  0  0  0  0  0  0  0  0
   16.3619   -5.2517   -0.5871 C   0  0  0  0  0  0  0  0  0  0  0  0
   16.7322   -6.5909   -0.7921 C   0  0  0  0  0  0  0  0  0  0  0  0
   15.8605   -7.4582   -1.4613 C   0  0  0  0  0  0  0  0  0  0  0  0
   14.6405   -6.9706   -1.9577 C   0  0  0  0  0  0  0  0  0  0  0  0
   14.2904   -5.6173   -1.7762 C   0  0  0  0  0  0  0  0  0  0  0  0
   15.3794   -2.2443   -1.7949 C   0  0  0  0  0  0  0  0  0  0  0  0
   15.9522   -2.6550   -3.0208 C   0  0  0  0  0  0  0  0  0  0  0  0
   16.4340   -1.6937   -3.9273 C   0  0  0  0  0  0  0  0  0  0  0  0
   16.3364   -0.3224   -3.6308 C   0  0  0  0  0  0  0  0  0  0  0  0
   15.7943    0.1250   -2.4073 C   0  0  0  0  0  0  0  0  0  0  0  0
   15.6711    1.5693   -2.0915 C   0  0  0  0  0  0  0  0  0  0  0  0
   15.3832    2.0354   -0.7903 C   0  0  0  0  0  0  0  0  0  0  0  0
   15.3534    3.4188   -0.5357 C   0  0  0  0  0  0  0  0  0  0  0  0
   15.5968    4.3049   -1.5946 C   0  0  0  0  0  0  0  0  0  0  0  0
   15.8275    3.8920   -2.8511 N   0  0  0  0  0  0  0  0  0  0  0  0
   15.8598    2.5642   -3.0762 C   0  0  0  0  0  0  0  0  0  0  0  0
   15.3327   -0.8573   -1.5012 C   0  0  0  0  0  0  0  0  0  0  0  0
   13.2767   -3.0094   -0.6368 C   0  0  0  0  0  0  0  0  0  0  0  0
   12.3981   -3.0674   -1.5055 O   0  0  0  0  0  0  0  0  0  0  0  0
    0.0000    0.0000    0.0000 H   0  0  0  0  0  0  0  0  0  0  0  0
    0.0000    0.0000    0.0000 H   0  0  0  0  0  0  0  0  0  0  0  0
    0.0000    0.0000    0.0000 H   0  0  0  0  0  0  0  0  0  0  0  0
    0.0000    0.0000    0.0000 H   0  0  0  0  0  0  0  0  0  0  0  0
    0.0000    0.0000    0.0000 H   0  0  0  0  0  0  0  0  0  0  0  0
    0.0000    0.0000    0.0000 H   0  0  0  0  0  0  0  0  0  0  0  0
    0.0000    0.0000    0.0000 H   0  0  0  0  0  0  0  0  0  0  0  0
    0.0000    0.0000    0.0000 H   0  0  0  0  0  0  0  0  0  0  0  0
    0.0000    0.0000    0.0000 H   0  0  0  0  0  0  0  0  0  0  0  0
    0.0000    0.0000    0.0000 H   0  0  0  0  0  0  0  0  0  0  0  0
    0.0000    0.0000    0.0000 H   0  0  0  0  0  0  0  0  0  0  0  0
    0.0000    0.0000    0.0000 H   0  0  0  0  0  0  0  0  0  0  0  0
    0.0000    0.0000    0.0000 H   0  0  0  0  0  0  0  0  0  0  0  0
    0.0000    0.0000    0.0000 H   0  0  0  0  0  0  0  0  0  0  0  0
    0.0000    0.0000    0.0000 H   0  0  0  0  0  0  0  0  0  0  0  0
    0.0000    0.0000    0.0000 H   0  0  0  0  0  0  0  0  0  0  0  0
    6.0150   -1.2243    0.3335 B   0  0  0  0  0  0  0  0  0  0  0  0
    5.2548   -2.2890   -0.3345 O   0  0  0  0  0  0  0  0  0  0  0  0
    5.8647    0.1205   -0.2232 O   0  0  0  0  0  0  0  0  0  0  0  0
    5.2015   -2.0886   -1.2906 H   0  0  0  0  0  0  0  0  0  0  0  0
    5.4809    0.6771    0.5062 H   0  0  0  0  0  0  0  0  0  0  0  0
  1  2  1  0
  1 24  1  0
  2  3  1  0
  2  4  2  0
  4  5  1  0
  5  6  1  6
  5 12  1  0
  5 24  1  0
  6  7  2  0
  6 11  1  0
  7  8  1  0
  8  9  2  0
  9 10  1  0
 10 11  2  0
 12 13  2  0
 12 23  1  0
 13 14  1  0
 14 15  2  0
 15 16  1  0
 16 17  1  0
 16 23  2  0
 17 18  2  0
 17 22  1  0
 18 19  1  0
 19 20  2  0
 20 21  1  0
 21 22  2  0
 24 25  2  0
  3 26  1  0
  3 27  1  0
  4 28  1  0
  7 29  1  0
  8 30  1  0
  9 31  1  0
 10 32  1  0
 11 33  1  0
 13 34  1  0
 14 35  1  0
 15 36  1  0
 18 37  1  0
 19 38  1  0
 20 39  1  0
 22 40  1  0
 23 41  1  0
 42 43  1  0
 42 44  1  0
 43 45  1  0
 44 46  1  0
  1 42  1  0
M  CHG  1   4   1
M  END
>  <attachment_point>  (505) 
25

>  <score>  (505) 
<NA>

$$$$
CAT-4j
     RDKit          3D

 66 72  0  0  1  0  0  0  0  0999 V2000
   13.0313   -2.6523    0.7225 N   0  0  0  0  0  0  0  0  0  0  0  0
   14.2010   -2.6281    1.3773 C   0  0  0  0  0  0  0  0  0  0  0  0
   14.3777   -2.3568    2.6732 N   0  0  0  0  0  0  0  0  0  0  0  0
   15.2217   -2.9197    0.5738 N   0  0  0  0  0  0  0  0  0  0  0  0
   14.7965   -3.2519   -0.7875 C   0  0  2  0  0  0  0  0  0  0  0  0
   15.1409   -4.7334   -1.0690 C   0  0  0  0  0  0  0  0  0  0  0  0
   16.3619   -5.2517   -0.5871 C   0  0  0  0  0  0  0  0  0  0  0  0
   16.7322   -6.5909   -0.7921 C   0  0  0  0  0  0  0  0  0  0  0  0
   15.8605   -7.4582   -1.4613 C   0  0  0  0  0  0  0  0  0  0  0  0
   14.6405   -6.9706   -1.9577 C   0  0  0  0  0  0  0  0  0  0  0  0
   14.2904   -5.6173   -1.7762 C   0  0  0  0  0  0  0  0  0  0  0  0
   15.3794   -2.2443   -1.7949 C   0  0  0  0  0  0  0  0  0  0  0  0
   15.9522   -2.6550   -3.0208 C   0  0  0  0  0  0  0  0  0  0  0  0
   16.4340   -1.6937   -3.9273 C   0  0  0  0  0  0  0  0  0  0  0  0
   16.3364   -0.3224   -3.6308 C   0  0  0  0  0  0  0  0  0  0  0  0
   15.7943    0.1250   -2.4073 C   0  0  0  0  0  0  0  0  0  0  0  0
   15.6711    1.5693   -2.0915 C   0  0  0  0  0  0  0  0  0  0  0  0
   15.3832    2.0354   -0.7903 C   0  0  0  0  0  0  0  0  0  0  0  0
   15.3534    3.4188   -0.5357 C   0  0  0  0  0  0  0  0  0  0  0  0
   15.5968    4.3049   -1.5946 C   0  0  0  0  0  0  0  0  0  0  0  0
   15.8275    3.8920   -2.8511 N   0  0  0  0  0  0  0  0  0  0  0  0
   15.8598    2.5642   -3.0762 C   0  0  0  0  0  0  0  0  0  0  0  0
   15.3327   -0.8573   -1.5012 C   0  0  0  0  0  0  0  0  0  0  0  0
   13.2767   -3.0094   -0.6368 C   0  0  0  0  0  0  0  0  0  0  0  0
   12.3981   -3.0674   -1.5055 O   0  0  0  0  0  0  0  0  0  0  0  0
    0.0000    0.0000    0.0000 H   0  0  0  0  0  0  0  0  0  0  0  0
    0.0000    0.0000    0.0000 H   0  0  0  0  0  0  0  0  0  0  0  0
    0.0000    0.0000    0.0000 H   0  0  0  0  0  0  0  0  0  0  0  0
    0.0000    0.0000    0.0000 H   0  0  0  0  0  0  0  0  0  0  0  0
    0.0000    0.0000    0.0000 H   0  0  0  0  0  0  0  0  0  0  0  0
    0.0000    0.0000    0.0000 H   0  0  0  0  0  0  0  0  0  0  0  0
    0.0000    0.0000    0.0000 H   0  0  0  0  0  0  0  0  0  0  0  0
    0.0000    0.0000    0.0000 H   0  0  0  0  0  0  0  0  0  0  0  0
    0.0000    0.0000    0.0000 H   0  0  0  0  0  0  0  0  0  0  0  0
    0.0000    0.0000    0.0000 H   0  0  0  0  0  0  0  0  0  0  0  0
    0.0000    0.0000    0.0000 H   0  0  0  0  0  0  0  0  0  0  0  0
    0.0000    0.0000    0.0000 H   0  0  0  0  0  0  0  0  0  0  0  0
    0.0000    0.0000    0.0000 H   0  0  0  0  0  0  0  0  0  0  0  0
    0.0000    0.0000    0.0000 H   0  0  0  0  0  0  0  0  0  0  0  0
    0.0000    0.0000    0.0000 H   0  0  0  0  0  0  0  0  0  0  0  0
    0.0000    0.0000    0.0000 H   0  0  0  0  0  0  0  0  0  0  0  0
    6.1028   -1.2421    0.3384 C   0  0  2  0  0  0  0  0  0  0  0  0
    5.5652   -1.4603   -1.0557 C   0  0  0  0  0  0  0  0  0  0  0  0
    4.0775   -1.2672   -1.0708 C   0  0  1  0  0  0  0  0  0  0  0  0
    3.4601   -2.2078   -0.0656 C   0  0  0  0  0  0  0  0  0  0  0  0
    3.9189   -1.8630    1.3235 C   0  0  2  0  0  0  0  0  0  0  0  0
    3.6950   -0.4298    1.6944 C   0  0  0  0  0  0  0  0  0  0  0  0
    4.3461    0.4685    0.6502 C   0  0  2  0  0  0  0  0  0  0  0  0
    3.7114    0.1373   -0.6699 C   0  0  0  0  0  0  0  0  0  0  0  0
    5.8247    0.2162    0.6861 C   0  0  0  0  0  0  0  0  0  0  0  0
    5.4244   -2.1099    1.3670 C   0  0  0  0  0  0  0  0  0  0  0  0
    5.9994   -0.6312   -1.6840 H   0  0  0  0  0  0  0  0  0  0  0  0
    5.8622   -2.4132   -1.5024 H   0  0  0  0  0  0  0  0  0  0  0  0
    3.6947   -1.5061   -2.0791 H   0  0  0  0  0  0  0  0  0  0  0  0
    2.3716   -2.3116   -0.1673 H   0  0  0  0  0  0  0  0  0  0  0  0
    3.8835   -3.2265   -0.2979 H   0  0  0  0  0  0  0  0  0  0  0  0
    3.4091   -2.5117    2.0578 H   0  0  0  0  0  0  0  0  0  0  0  0
    4.2457   -0.2383    2.6417 H   0  0  0  0  0  0  0  0  0  0  0  0
    2.6260   -0.1973    1.8400 H   0  0  0  0  0  0  0  0  0  0  0  0
    4.1795    1.5343    0.8611 H   0  0  0  0  0  0  0  0  0  0  0  0
    3.8917    0.8868   -1.4498 H   0  0  0  0  0  0  0  0  0  0  0  0
    2.5969    0.1229   -0.4801 H   0  0  0  0  0  0  0  0  0  0  0  0
    6.3956    0.8640    0.0037 H   0  0  0  0  0  0  0  0  0  0  0  0
    6.1501    0.3374    1.7463 H   0  0  0  0  0  0  0  0  0  0  0  0
    5.6605   -3.1744    1.2119 H   0  0  0  0  0  0  0  0  0  0  0  0
    5.7573   -1.7301    2.3671 H   0  0  0  0  0  0  0  0  0  0  0  0
  1  2  1  0
  1 24  1  0
  2  3  1  0
  2  4  2  0
  4  5  1  0
  5  6  1  6
  5 12  1  0
  5 24  1  0
  6  7  2  0
  6 11  1  0
  7  8  1  0
  8  9  2  0
  9 10  1  0
 10 11  2  0
 12 13  2  0
 12 23  1  0
 13 14  1  0
 14 15  2  0
 15 16  1  0
 16 17  1  0
 16 23  2  0
 17 18  2  0
 17 22  1  0
 18 19  1  0
 19 20  2  0
 20 21  1  0
 21 22  2  0
 24 25  2  0
  3 26  1  0
  3 27  1  0
  4 28  1  0
  7 29  1  0
  8 30  1  0
  9 31  1  0
 10 32  1  0
 11 33  1  0
 13 34  1  0
 14 35  1  0
 15 36  1  0
 18 37  1  0
 19 38  1  0
 20 39  1  0
 22 40  1  0
 23 41  1  0
 42 43  1  0
 43 44  1  0
 44 45  1  0
 45 46  1  0
 46 47  1  0
 47 48  1  0
 48 49  1  0
 48 50  1  0
 46 51  1  0
 50 42  1  0
 51 42  1  0
 49 44  1  0
 43 52  1  0
 43 53  1  0
 44 54  1  6
 45 55  1  0
 45 56  1  0
 46 57  1  1
 47 58  1  0
 47 59  1  0
 48 60  1  1
 49 61  1  0
 49 62  1  0
 50 63  1  0
 50 64  1  0
 51 65  1  0
 51 66  1  0
 42  1  1  1
M  CHG  1   4   1
M  END
>  <attachment_point>  (506) 
25

>  <score>  (506) 
<NA>

$$$$
CAT-4j
     RDKit          3D

 56 60  0  0  1  0  0  0  0  0999 V2000
   13.0313   -2.6523    0.7225 N   0  0  0  0  0  0  0  0  0  0  0  0
   14.2010   -2.6281    1.3773 C   0  0  0  0  0  0  0  0  0  0  0  0
   14.3777   -2.3568    2.6732 N   0  0  0  0  0  0  0  0  0  0  0  0
   15.2217   -2.9197    0.5738 N   0  0  0  0  0  0  0  0  0  0  0  0
   14.7965   -3.2519   -0.7875 C   0  0  2  0  0  0  0  0  0  0  0  0
   15.1409   -4.7334   -1.0690 C   0  0  0  0  0  0  0  0  0  0  0  0
   16.3619   -5.2517   -0.5871 C   0  0  0  0  0  0  0  0  0  0  0  0
   16.7322   -6.5909   -0.7921 C   0  0  0  0  0  0  0  0  0  0  0  0
   15.8605   -7.4582   -1.4613 C   0  0  0  0  0  0  0  0  0  0  0  0
   14.6405   -6.9706   -1.9577 C   0  0  0  0  0  0  0  0  0  0  0  0
   14.2904   -5.6173   -1.7762 C   0  0  0  0  0  0  0  0  0  0  0  0
   15.3794   -2.2443   -1.7949 C   0  0  0  0  0  0  0  0  0  0  0  0
   15.9522   -2.6550   -3.0208 C   0  0  0  0  0  0  0  0  0  0  0  0
   16.4340   -1.6937   -3.9273 C   0  0  0  0  0  0  0  0  0  0  0  0
   16.3364   -0.3224   -3.6308 C   0  0  0  0  0  0  0  0  0  0  0  0
   15.7943    0.1250   -2.4073 C   0  0  0  0  0  0  0  0  0  0  0  0
   15.6711    1.5693   -2.0915 C   0  0  0  0  0  0  0  0  0  0  0  0
   15.3832    2.0354   -0.7903 C   0  0  0  0  0  0  0  0  0  0  0  0
   15.3534    3.4188   -0.5357 C   0  0  0  0  0  0  0  0  0  0  0  0
   15.5968    4.3049   -1.5946 C   0  0  0  0  0  0  0  0  0  0  0  0
   15.8275    3.8920   -2.8511 N   0  0  0  0  0  0  0  0  0  0  0  0
   15.8598    2.5642   -3.0762 C   0  0  0  0  0  0  0  0  0  0  0  0
   15.3327   -0.8573   -1.5012 C   0  0  0  0  0  0  0  0  0  0  0  0
   13.2767   -3.0094   -0.6368 C   0  0  0  0  0  0  0  0  0  0  0  0
   12.3981   -3.0674   -1.5055 O   0  0  0  0  0  0  0  0  0  0  0  0
    0.0000    0.0000    0.0000 H   0  0  0  0  0  0  0  0  0  0  0  0
    0.0000    0.0000    0.0000 H   0  0  0  0  0  0  0  0  0  0  0  0
    0.0000    0.0000    0.0000 H   0  0  0  0  0  0  0  0  0  0  0  0
    0.0000    0.0000    0.0000 H   0  0  0  0  0  0  0  0  0  0  0  0
    0.0000    0.0000    0.0000 H   0  0  0  0  0  0  0  0  0  0  0  0
    0.0000    0.0000    0.0000 H   0  0  0  0  0  0  0  0  0  0  0  0
    0.0000    0.0000    0.0000 H   0  0  0  0  0  0  0  0  0  0  0  0
    0.0000    0.0000    0.0000 H   0  0  0  0  0  0  0  0  0  0  0  0
    0.0000    0.0000    0.0000 H   0  0  0  0  0  0  0  0  0  0  0  0
    0.0000    0.0000    0.0000 H   0  0  0  0  0  0  0  0  0  0  0  0
    0.0000    0.0000    0.0000 H   0  0  0  0  0  0  0  0  0  0  0  0
    0.0000    0.0000    0.0000 H   0  0  0  0  0  0  0  0  0  0  0  0
    0.0000    0.0000    0.0000 H   0  0  0  0  0  0  0  0  0  0  0  0
    0.0000    0.0000    0.0000 H   0  0  0  0  0  0  0  0  0  0  0  0
    0.0000    0.0000    0.0000 H   0  0  0  0  0  0  0  0  0  0  0  0
    0.0000    0.0000    0.0000 H   0  0  0  0  0  0  0  0  0  0  0  0
    6.1112   -1.2438    0.3388 C   0  0  2  0  0  0  0  0  0  0  0  0
    5.7448   -0.6278    1.5319 O   0  0  0  0  0  0  0  0  0  0  0  0
    5.3385   -2.4810    0.0841 C   0  0  0  0  0  0  0  0  0  0  0  0
    6.0154   -3.6109   -0.3472 C   0  0  0  0  0  0  0  0  0  0  0  0
    5.3310   -4.7757   -0.5932 C   0  0  0  0  0  0  0  0  0  0  0  0
    3.9625   -4.8438   -0.4167 C   0  0  0  0  0  0  0  0  0  0  0  0
    3.2738   -3.7321    0.0110 C   0  0  0  0  0  0  0  0  0  0  0  0
    3.9718   -2.5587    0.2575 C   0  0  0  0  0  0  0  0  0  0  0  0
    5.9737   -0.4947   -0.4691 H   0  0  0  0  0  0  0  0  0  0  0  0
    4.7778   -0.4337    1.4706 H   0  0  0  0  0  0  0  0  0  0  0  0
    7.0948   -3.5376   -0.4808 H   0  0  0  0  0  0  0  0  0  0  0  0
    5.9176   -5.6260   -0.9290 H   0  0  0  0  0  0  0  0  0  0  0  0
    3.4639   -5.7696   -0.6187 H   0  0  0  0  0  0  0  0  0  0  0  0
    2.1885   -3.7467    0.1627 H   0  0  0  0  0  0  0  0  0  0  0  0
    3.4146   -1.6759    0.5987 H   0  0  0  0  0  0  0  0  0  0  0  0
  1  2  1  0
  1 24  1  0
  2  3  1  0
  2  4  2  0
  4  5  1  0
  5  6  1  6
  5 12  1  0
  5 24  1  0
  6  7  2  0
  6 11  1  0
  7  8  1  0
  8  9  2  0
  9 10  1  0
 10 11  2  0
 12 13  2  0
 12 23  1  0
 13 14  1  0
 14 15  2  0
 15 16  1  0
 16 17  1  0
 16 23  2  0
 17 18  2  0
 17 22  1  0
 18 19  1  0
 19 20  2  0
 20 21  1  0
 21 22  2  0
 24 25  2  0
  3 26  1  0
  3 27  1  0
  4 28  1  0
  7 29  1  0
  8 30  1  0
  9 31  1  0
 10 32  1  0
 11 33  1  0
 13 34  1  0
 14 35  1  0
 15 36  1  0
 18 37  1  0
 19 38  1  0
 20 39  1  0
 22 40  1  0
 23 41  1  0
 42 43  1  0
 42 44  1  0
 44 45  2  0
 45 46  1  0
 46 47  2  0
 47 48  1  0
 48 49  2  0
 49 44  1  0
 42 50  1  1
 43 51  1  0
 45 52  1  0
 46 53  1  0
 47 54  1  0
 48 55  1  0
 49 56  1  0
  1 42  1  0
M  CHG  1   4   1
M  END
>  <attachment_point>  (507) 
25

>  <score>  (507) 
<NA>

$$$$
CAT-4j
     RDKit          3D

 62 66  0  0  1  0  0  0  0  0999 V2000
   13.0313   -2.6523    0.7225 N   0  0  0  0  0  0  0  0  0  0  0  0
   14.2010   -2.6281    1.3773 C   0  0  0  0  0  0  0  0  0  0  0  0
   14.3777   -2.3568    2.6732 N   0  0  0  0  0  0  0  0  0  0  0  0
   15.2217   -2.9197    0.5738 N   0  0  0  0  0  0  0  0  0  0  0  0
   14.7965   -3.2519   -0.7875 C   0  0  2  0  0  0  0  0  0  0  0  0
   15.1409   -4.7334   -1.0690 C   0  0  0  0  0  0  0  0  0  0  0  0
   16.3619   -5.2517   -0.5871 C   0  0  0  0  0  0  0  0  0  0  0  0
   16.7322   -6.5909   -0.7921 C   0  0  0  0  0  0  0  0  0  0  0  0
   15.8605   -7.4582   -1.4613 C   0  0  0  0  0  0  0  0  0  0  0  0
   14.6405   -6.9706   -1.9577 C   0  0  0  0  0  0  0  0  0  0  0  0
   14.2904   -5.6173   -1.7762 C   0  0  0  0  0  0  0  0  0  0  0  0
   15.3794   -2.2443   -1.7949 C   0  0  0  0  0  0  0  0  0  0  0  0
   15.9522   -2.6550   -3.0208 C   0  0  0  0  0  0  0  0  0  0  0  0
   16.4340   -1.6937   -3.9273 C   0  0  0  0  0  0  0  0  0  0  0  0
   16.3364   -0.3224   -3.6308 C   0  0  0  0  0  0  0  0  0  0  0  0
   15.7943    0.1250   -2.4073 C   0  0  0  0  0  0  0  0  0  0  0  0
   15.6711    1.5693   -2.0915 C   0  0  0  0  0  0  0  0  0  0  0  0
   15.3832    2.0354   -0.7903 C   0  0  0  0  0  0  0  0  0  0  0  0
   15.3534    3.4188   -0.5357 C   0  0  0  0  0  0  0  0  0  0  0  0
   15.5968    4.3049   -1.5946 C   0  0  0  0  0  0  0  0  0  0  0  0
   15.8275    3.8920   -2.8511 N   0  0  0  0  0  0  0  0  0  0  0  0
   15.8598    2.5642   -3.0762 C   0  0  0  0  0  0  0  0  0  0  0  0
   15.3327   -0.8573   -1.5012 C   0  0  0  0  0  0  0  0  0  0  0  0
   13.2767   -3.0094   -0.6368 C   0  0  0  0  0  0  0  0  0  0  0  0
   12.3981   -3.0674   -1.5055 O   0  0  0  0  0  0  0  0  0  0  0  0
    0.0000    0.0000    0.0000 H   0  0  0  0  0  0  0  0  0  0  0  0
    0.0000    0.0000    0.0000 H   0  0  0  0  0  0  0  0  0  0  0  0
    0.0000    0.0000    0.0000 H   0  0  0  0  0  0  0  0  0  0  0  0
    0.0000    0.0000    0.0000 H   0  0  0  0  0  0  0  0  0  0  0  0
    0.0000    0.0000    0.0000 H   0  0  0  0  0  0  0  0  0  0  0  0
    0.0000    0.0000    0.0000 H   0  0  0  0  0  0  0  0  0  0  0  0
    0.0000    0.0000    0.0000 H   0  0  0  0  0  0  0  0  0  0  0  0
    0.0000    0.0000    0.0000 H   0  0  0  0  0  0  0  0  0  0  0  0
    0.0000    0.0000    0.0000 H   0  0  0  0  0  0  0  0  0  0  0  0
    0.0000    0.0000    0.0000 H   0  0  0  0  0  0  0  0  0  0  0  0
    0.0000    0.0000    0.0000 H   0  0  0  0  0  0  0  0  0  0  0  0
    0.0000    0.0000    0.0000 H   0  0  0  0  0  0  0  0  0  0  0  0
    0.0000    0.0000    0.0000 H   0  0  0  0  0  0  0  0  0  0  0  0
    0.0000    0.0000    0.0000 H   0  0  0  0  0  0  0  0  0  0  0  0
    0.0000    0.0000    0.0000 H   0  0  0  0  0  0  0  0  0  0  0  0
    0.0000    0.0000    0.0000 H   0  0  0  0  0  0  0  0  0  0  0  0
    5.8564   -1.1920    0.3247 B   0  0  0  0  0  0  0  0  0  0  0  0
    5.7807   -1.1850   -1.1466 O   0  0  0  0  0  0  0  0  0  0  0  0
    5.4325    0.1641   -1.3668 C   0  0  0  0  0  0  0  0  0  0  0  0
    4.0162    0.3204   -0.8747 C   0  0  0  0  0  0  0  0  0  0  0  0
    5.6450    0.6041   -2.7671 C   0  0  0  0  0  0  0  0  0  0  0  0
    6.3592    0.8454   -0.3691 C   0  0  0  0  0  0  0  0  0  0  0  0
    6.1467    2.3221   -0.3249 C   0  0  0  0  0  0  0  0  0  0  0  0
    7.8005    0.4553   -0.5781 C   0  0  0  0  0  0  0  0  0  0  0  0
    5.9397    0.1996    0.8098 O   0  0  0  0  0  0  0  0  0  0  0  0
    4.0398    0.0419    0.2152 H   0  0  0  0  0  0  0  0  0  0  0  0
    3.3396   -0.4201   -1.3717 H   0  0  0  0  0  0  0  0  0  0  0  0
    3.5890    1.3121   -1.0490 H   0  0  0  0  0  0  0  0  0  0  0  0
    6.6461    1.0318   -2.9212 H   0  0  0  0  0  0  0  0  0  0  0  0
    5.3763   -0.1836   -3.4973 H   0  0  0  0  0  0  0  0  0  0  0  0
    4.9178    1.4442   -2.9694 H   0  0  0  0  0  0  0  0  0  0  0  0
    5.0992    2.5835   -0.5356 H   0  0  0  0  0  0  0  0  0  0  0  0
    6.7515    2.7706   -1.1478 H   0  0  0  0  0  0  0  0  0  0  0  0
    6.4130    2.7803    0.6396 H   0  0  0  0  0  0  0  0  0  0  0  0
    8.2449    0.8483   -1.4931 H   0  0  0  0  0  0  0  0  0  0  0  0
    7.8432   -0.6619   -0.4994 H   0  0  0  0  0  0  0  0  0  0  0  0
    8.3737    0.8621    0.2741 H   0  0  0  0  0  0  0  0  0  0  0  0
  1  2  1  0
  1 24  1  0
  2  3  1  0
  2  4  2  0
  4  5  1  0
  5  6  1  6
  5 12  1  0
  5 24  1  0
  6  7  2  0
  6 11  1  0
  7  8  1  0
  8  9  2  0
  9 10  1  0
 10 11  2  0
 12 13  2  0
 12 23  1  0
 13 14  1  0
 14 15  2  0
 15 16  1  0
 16 17  1  0
 16 23  2  0
 17 18  2  0
 17 22  1  0
 18 19  1  0
 19 20  2  0
 20 21  1  0
 21 22  2  0
 24 25  2  0
  3 26  1  0
  3 27  1  0
  4 28  1  0
  7 29  1  0
  8 30  1  0
  9 31  1  0
 10 32  1  0
 11 33  1  0
 13 34  1  0
 14 35  1  0
 15 36  1  0
 18 37  1  0
 19 38  1  0
 20 39  1  0
 22 40  1  0
 23 41  1  0
 42 43  1  0
 43 44  1  0
 44 45  1  0
 44 46  1  0
 44 47  1  0
 47 48  1  0
 47 49  1  0
 47 50  1  0
 50 42  1  0
 45 51  1  0
 45 52  1  0
 45 53  1  0
 46 54  1  0
 46 55  1  0
 46 56  1  0
 48 57  1  0
 48 58  1  0
 48 59  1  0
 49 60  1  0
 49 61  1  0
 49 62  1  0
  1 42  1  0
M  CHG  1   4   1
M  END
>  <attachment_point>  (508) 
25

>  <score>  (508) 
<NA>

$$$$
