4djw
  PyMOL3.0          3D                             0

 20 22  0  0  0  0  0  0  0  0999 V2000
   22.4950   11.8750   22.5810 C   0  0  0  0  0  0  0  0  0  0  0  0
   22.5380    9.4930   22.4640 N   0  0  0  0  0  0  0  0  0  0  0  0
   22.3600   13.0630   22.3480 O   0  0  0  0  0  0  0  0  0  0  0  0
   22.3390   10.6680   21.5610 C   0  0  0  0  0  0  0  0  0  0  0  0
   22.7860   11.3350   23.8120 N   0  0  0  0  0  0  0  0  0  0  0  0
   22.7800    9.9140   23.7010 C   0  0  0  0  0  0  0  0  0  0  0  0
   22.9970    9.1110   24.7490 N   0  0  0  0  0  0  0  0  0  0  0  0
   23.0220   12.1410   25.0180 C   0  0  0  0  0  0  0  0  0  0  0  0
   29.1260    9.8230   21.7090 N   0  0  0  0  0  0  0  0  0  0  0  0
   23.4880   10.6920   20.5300 C   0  0  0  0  0  0  0  0  0  0  0  0
   23.2110   10.7890   19.1730 C   0  0  0  0  0  0  0  0  0  0  0  0
   24.2350   10.8650   18.2430 C   0  0  0  0  0  0  0  0  0  0  0  0
   25.5500   10.8410   18.6560 C   0  0  0  0  0  0  0  0  0  0  0  0
   25.8710   10.7460   20.0070 C   0  0  0  0  0  0  0  0  0  0  0  0
   24.8260   10.6610   20.9430 C   0  0  0  0  0  0  0  0  0  0  0  0
   29.8540   10.9130   21.4510 C   0  0  0  0  0  0  0  0  0  0  0  0
   27.8830    9.7800   21.2080 C   0  0  0  0  0  0  0  0  0  0  0  0
   27.3000   10.8010   20.4650 C   0  0  0  0  0  0  0  0  0  0  0  0
   28.0930   11.9190   20.2200 C   0  0  0  0  0  0  0  0  0  0  0  0
   29.3850   11.9780   20.7130 C   0  0  0  0  0  0  0  0  0  0  0  0
  1  3  2  0  0  0  0
  1  4  1  0  0  0  0
  2  4  1  0  0  0  0
  1  5  1  0  0  0  0
  2  6  1  0  0  0  0
  5  6  1  0  0  0  0
  6  7  2  0  0  0  0
  5  8  1  0  0  0  0
  4 10  1  0  0  0  0
 10 11  2  0  0  0  0
 11 12  1  0  0  0  0
 12 13  2  0  0  0  0
 13 14  1  0  0  0  0
 10 15  1  0  0  0  0
 14 15  2  0  0  0  0
  9 16  1  0  0  0  0
  9 17  2  0  0  0  0
 14 18  1  0  0  0  0
 17 18  1  0  0  0  0
 18 19  2  0  0  0  0
 16 20  2  0  0  0  0
 19 20  1  0  0  0  0
M  END
$$$$
