
     RDKit          3D

 43 45  0  0  0  0  0  0  0  0999 V2000
   18.3392   -4.0837   -0.9464 H   0  0  0  0  0  0  0  0  0  0  0  0
   17.4881   -3.6463   -1.0594 O   0  0  0  0  0  0  0  0  0  0  0  0
   16.6595   -4.9053   -1.3810 P   0  0  0  0  0  0  0  0  0  0  0  0
   16.9875   -5.4924   -2.6895 O   0  0  0  0  0  0  0  0  0  0  0  0
   17.2383   -5.6626   -0.1734 O   0  0  0  0  0  0  0  0  0  0  0  0
   17.3624   -4.8718    0.3686 H   0  0  0  0  0  0  0  0  0  0  0  0
   14.9128   -4.6366   -1.3109 C   0  0  0  0  0  0  0  0  0  0  0  0
   14.5019   -4.8036   -2.3078 H   0  0  0  0  0  0  0  0  0  0  0  0
   14.5014   -5.3445   -0.5977 H   0  0  0  0  0  0  0  0  0  0  0  0
   14.6495   -3.2005   -0.8640 C   0  0  1  0  0  0  0  0  0  0  0  0
   15.3249   -2.2189   -1.8043 C   0  0  0  0  0  0  0  0  0  0  0  0
   15.9133   -2.6271   -3.0180 C   0  0  0  0  0  0  0  0  0  0  0  0
   15.9700   -3.6778   -3.2853 H   0  0  0  0  0  0  0  0  0  0  0  0
   16.4350   -1.6925   -3.9108 C   0  0  0  0  0  0  0  0  0  0  0  0
   16.8914   -2.0169   -4.8412 H   0  0  0  0  0  0  0  0  0  0  0  0
   16.3658   -0.3335   -3.6041 C   0  0  0  0  0  0  0  0  0  0  0  0
   16.7499    0.3931   -4.3099 H   0  0  0  0  0  0  0  0  0  0  0  0
   15.8279    0.1040   -2.3860 C   0  0  0  0  0  0  0  0  0  0  0  0
   15.7672    1.5408   -2.0735 C   0  0  0  0  0  0  0  0  0  0  0  0
   15.9378    2.5045   -3.0807 C   0  0  0  0  0  0  0  0  0  0  0  0
   16.1351    2.1620   -4.0916 H   0  0  0  0  0  0  0  0  0  0  0  0
   15.8531    3.8290   -2.8626 N   0  0  0  0  0  0  0  0  0  0  0  0
   15.5957    4.2450   -1.6128 C   0  0  0  0  0  0  0  0  0  0  0  0
   15.5051    5.3108   -1.4289 H   0  0  0  0  0  0  0  0  0  0  0  0
   15.4387    3.3563   -0.5449 C   0  0  0  0  0  0  0  0  0  0  0  0
   15.2425    3.7353    0.4521 H   0  0  0  0  0  0  0  0  0  0  0  0
   15.5305    1.9854   -0.7714 C   0  0  0  0  0  0  0  0  0  0  0  0
   15.4275    1.2722    0.0421 H   0  0  0  0  0  0  0  0  0  0  0  0
   15.3180   -0.8501   -1.4924 C   0  0  0  0  0  0  0  0  0  0  0  0
   14.8758   -0.5185   -0.5568 H   0  0  0  0  0  0  0  0  0  0  0  0
   13.1590   -2.8167   -0.6046 C   0  0  0  0  0  0  0  0  0  0  0  0
   12.2274   -2.7954   -1.4100 O   0  0  0  0  0  0  0  0  0  0  0  0
   13.0022   -2.5796    0.7453 N   0  0  0  0  0  0  0  0  0  0  0  0
   11.7508   -2.2289    1.4135 C   0  0  0  0  0  0  0  0  0  0  0  0
   11.7545   -1.1728    1.7087 H   0  0  0  0  0  0  0  0  0  0  0  0
   10.8993   -2.3985    0.7428 H   0  0  0  0  0  0  0  0  0  0  0  0
   11.5992   -2.8485    2.3063 H   0  0  0  0  0  0  0  0  0  0  0  0
   14.2443   -2.7015    1.3394 C   0  0  0  0  0  0  0  0  0  0  0  0
   14.4975   -2.4258    2.6589 N   0  0  0  0  0  0  0  0  0  0  0  0
   15.4641   -2.3672    2.9745 H   0  0  0  0  0  0  0  0  0  0  0  0
   13.7517   -2.0158    3.2261 H   0  0  0  0  0  0  0  0  0  0  0  0
   15.1642   -3.0903    0.5078 N   0  0  0  0  0  4  0  0  0  0  0  0
   16.1572   -3.1172    0.7333 H   0  0  0  0  0  0  0  0  0  0  0  0
  1  2  1  0
  2  3  1  0
  3  4  2  0
  3  5  1  0
  5  6  1  0
  3  7  1  0
  7  8  1  0
  7  9  1  0
 10  7  1  6
 10 11  1  0
 11 12  2  0
 12 13  1  0
 12 14  1  0
 14 15  1  0
 14 16  2  0
 16 17  1  0
 16 18  1  0
 18 19  1  0
 19 20  2  0
 20 21  1  0
 20 22  1  0
 22 23  2  0
 23 24  1  0
 23 25  1  0
 25 26  1  0
 25 27  2  0
 27 28  1  0
 18 29  2  0
 29 30  1  0
 10 31  1  0
 31 32  2  0
 31 33  1  0
 33 34  1  0
 34 35  1  0
 34 36  1  0
 34 37  1  0
 33 38  1  0
 38 39  1  0
 39 40  1  0
 39 41  1  0
 38 42  2  0
 42 43  1  0
 42 10  1  0
 29 11  1  0
 27 19  1  0
M  CHG  1  42   1
M  END
>  <score>  (1) 
5.39262

$$$$
CAT-4j
     RDKit          3D

 36 38  0  0  1  0  0  0  0  0999 V2000
   11.7106   -2.3098    1.2658 C   0  0  0  0  0  0  0  0  0  0  0  0
   13.0313   -2.6523    0.7225 N   0  0  0  0  0  0  0  0  0  0  0  0
   14.2010   -2.6281    1.3773 C   0  0  0  0  0  0  0  0  0  0  0  0
   14.3777   -2.3568    2.6732 N   0  0  0  0  0  0  0  0  0  0  0  0
   15.2217   -2.9197    0.5738 N   0  0  0  0  0  0  0  0  0  0  0  0
   14.7965   -3.2519   -0.7875 C   0  0  1  0  0  0  0  0  0  0  0  0
   15.3794   -2.2443   -1.7949 C   0  0  0  0  0  0  0  0  0  0  0  0
   15.9522   -2.6550   -3.0208 C   0  0  0  0  0  0  0  0  0  0  0  0
   16.4340   -1.6937   -3.9273 C   0  0  0  0  0  0  0  0  0  0  0  0
   16.3364   -0.3224   -3.6308 C   0  0  0  0  0  0  0  0  0  0  0  0
   15.7943    0.1250   -2.4073 C   0  0  0  0  0  0  0  0  0  0  0  0
   15.6711    1.5693   -2.0915 C   0  0  0  0  0  0  0  0  0  0  0  0
   15.3832    2.0354   -0.7903 C   0  0  0  0  0  0  0  0  0  0  0  0
   15.3534    3.4188   -0.5357 C   0  0  0  0  0  0  0  0  0  0  0  0
   15.5968    4.3049   -1.5946 C   0  0  0  0  0  0  0  0  0  0  0  0
   15.8275    3.8920   -2.8511 N   0  0  0  0  0  0  0  0  0  0  0  0
   15.8598    2.5642   -3.0762 C   0  0  0  0  0  0  0  0  0  0  0  0
   15.3327   -0.8573   -1.5012 C   0  0  0  0  0  0  0  0  0  0  0  0
   13.2767   -3.0094   -0.6368 C   0  0  0  0  0  0  0  0  0  0  0  0
   12.3981   -3.0674   -1.5055 O   0  0  0  0  0  0  0  0  0  0  0  0
    0.0000    0.0000    0.0000 H   0  0  0  0  0  0  0  0  0  0  0  0
    0.0000    0.0000    0.0000 H   0  0  0  0  0  0  0  0  0  0  0  0
    0.0000    0.0000    0.0000 H   0  0  0  0  0  0  0  0  0  0  0  0
    0.0000    0.0000    0.0000 H   0  0  0  0  0  0  0  0  0  0  0  0
    0.0000    0.0000    0.0000 H   0  0  0  0  0  0  0  0  0  0  0  0
    0.0000    0.0000    0.0000 H   0  0  0  0  0  0  0  0  0  0  0  0
    0.0000    0.0000    0.0000 H   0  0  0  0  0  0  0  0  0  0  0  0
    0.0000    0.0000    0.0000 H   0  0  0  0  0  0  0  0  0  0  0  0
    0.0000    0.0000    0.0000 H   0  0  0  0  0  0  0  0  0  0  0  0
    0.0000    0.0000    0.0000 H   0  0  0  0  0  0  0  0  0  0  0  0
    0.0000    0.0000    0.0000 H   0  0  0  0  0  0  0  0  0  0  0  0
    0.0000    0.0000    0.0000 H   0  0  0  0  0  0  0  0  0  0  0  0
    0.0000    0.0000    0.0000 H   0  0  0  0  0  0  0  0  0  0  0  0
    0.0000    0.0000    0.0000 H   0  0  0  0  0  0  0  0  0  0  0  0
    6.9681   -1.5314   -0.3709 O   0  0  0  0  0  0  0  0  0  0  0  0
    6.8000   -1.4635    0.5933 H   0  0  0  0  0  0  0  0  0  0  0  0
  1  2  1  0
  2  3  1  0
  2 19  1  0
  3  4  1  0
  3  5  2  0
  5  6  1  0
  6  7  1  0
  6 19  1  0
  7  8  2  0
  7 18  1  0
  8  9  1  0
  9 10  2  0
 10 11  1  0
 11 12  1  0
 11 18  2  0
 12 13  2  0
 12 17  1  0
 13 14  1  0
 14 15  2  0
 15 16  1  0
 16 17  2  0
 19 20  2  0
  1 21  1  0
  1 22  1  0
  1 23  1  0
  4 24  1  0
  4 25  1  0
  5 26  1  0
  8 27  1  0
  9 28  1  0
 10 29  1  0
 13 30  1  0
 14 31  1  0
 15 32  1  0
 17 33  1  0
 18 34  1  0
 35 36  1  0
  6 35  1  6
M  CHG  1   5   1
M  END
>  <attachment_point>  (2) 
26

>  <score>  (2) 
<NA>

$$$$
CAT-4j
     RDKit          3D

 39 41  0  0  1  0  0  0  0  0999 V2000
   11.7106   -2.3098    1.2658 C   0  0  0  0  0  0  0  0  0  0  0  0
   13.0313   -2.6523    0.7225 N   0  0  0  0  0  0  0  0  0  0  0  0
   14.2010   -2.6281    1.3773 C   0  0  0  0  0  0  0  0  0  0  0  0
   14.3777   -2.3568    2.6732 N   0  0  0  0  0  0  0  0  0  0  0  0
   15.2217   -2.9197    0.5738 N   0  0  0  0  0  0  0  0  0  0  0  0
   14.7965   -3.2519   -0.7875 C   0  0  1  0  0  0  0  0  0  0  0  0
   15.3794   -2.2443   -1.7949 C   0  0  0  0  0  0  0  0  0  0  0  0
   15.9522   -2.6550   -3.0208 C   0  0  0  0  0  0  0  0  0  0  0  0
   16.4340   -1.6937   -3.9273 C   0  0  0  0  0  0  0  0  0  0  0  0
   16.3364   -0.3224   -3.6308 C   0  0  0  0  0  0  0  0  0  0  0  0
   15.7943    0.1250   -2.4073 C   0  0  0  0  0  0  0  0  0  0  0  0
   15.6711    1.5693   -2.0915 C   0  0  0  0  0  0  0  0  0  0  0  0
   15.3832    2.0354   -0.7903 C   0  0  0  0  0  0  0  0  0  0  0  0
   15.3534    3.4188   -0.5357 C   0  0  0  0  0  0  0  0  0  0  0  0
   15.5968    4.3049   -1.5946 C   0  0  0  0  0  0  0  0  0  0  0  0
   15.8275    3.8920   -2.8511 N   0  0  0  0  0  0  0  0  0  0  0  0
   15.8598    2.5642   -3.0762 C   0  0  0  0  0  0  0  0  0  0  0  0
   15.3327   -0.8573   -1.5012 C   0  0  0  0  0  0  0  0  0  0  0  0
   13.2767   -3.0094   -0.6368 C   0  0  0  0  0  0  0  0  0  0  0  0
   12.3981   -3.0674   -1.5055 O   0  0  0  0  0  0  0  0  0  0  0  0
    0.0000    0.0000    0.0000 H   0  0  0  0  0  0  0  0  0  0  0  0
    0.0000    0.0000    0.0000 H   0  0  0  0  0  0  0  0  0  0  0  0
    0.0000    0.0000    0.0000 H   0  0  0  0  0  0  0  0  0  0  0  0
    0.0000    0.0000    0.0000 H   0  0  0  0  0  0  0  0  0  0  0  0
    0.0000    0.0000    0.0000 H   0  0  0  0  0  0  0  0  0  0  0  0
    0.0000    0.0000    0.0000 H   0  0  0  0  0  0  0  0  0  0  0  0
    0.0000    0.0000    0.0000 H   0  0  0  0  0  0  0  0  0  0  0  0
    0.0000    0.0000    0.0000 H   0  0  0  0  0  0  0  0  0  0  0  0
    0.0000    0.0000    0.0000 H   0  0  0  0  0  0  0  0  0  0  0  0
    0.0000    0.0000    0.0000 H   0  0  0  0  0  0  0  0  0  0  0  0
    0.0000    0.0000    0.0000 H   0  0  0  0  0  0  0  0  0  0  0  0
    0.0000    0.0000    0.0000 H   0  0  0  0  0  0  0  0  0  0  0  0
    0.0000    0.0000    0.0000 H   0  0  0  0  0  0  0  0  0  0  0  0
    0.0000    0.0000    0.0000 H   0  0  0  0  0  0  0  0  0  0  0  0
    7.1988   -1.5821   -0.3831 O   0  0  0  0  0  0  0  0  0  0  0  0
    6.0106   -0.8441   -0.2416 C   0  0  0  0  0  0  0  0  0  0  0  0
    5.7776   -0.4656   -1.2547 H   0  0  0  0  0  0  0  0  0  0  0  0
    6.1645   -0.0030    0.4559 H   0  0  0  0  0  0  0  0  0  0  0  0
    5.2355   -1.5203    0.1469 H   0  0  0  0  0  0  0  0  0  0  0  0
  1  2  1  0
  2  3  1  0
  2 19  1  0
  3  4  1  0
  3  5  2  0
  5  6  1  0
  6  7  1  0
  6 19  1  0
  7  8  2  0
  7 18  1  0
  8  9  1  0
  9 10  2  0
 10 11  1  0
 11 12  1  0
 11 18  2  0
 12 13  2  0
 12 17  1  0
 13 14  1  0
 14 15  2  0
 15 16  1  0
 16 17  2  0
 19 20  2  0
  1 21  1  0
  1 22  1  0
  1 23  1  0
  4 24  1  0
  4 25  1  0
  5 26  1  0
  8 27  1  0
  9 28  1  0
 10 29  1  0
 13 30  1  0
 14 31  1  0
 15 32  1  0
 17 33  1  0
 18 34  1  0
 35 36  1  0
 36 37  1  0
 36 38  1  0
 36 39  1  0
  6 35  1  6
M  CHG  1   5   1
M  END
>  <attachment_point>  (3) 
26

>  <score>  (3) 
<NA>

$$$$
CAT-4j
     RDKit          3D

 37 39  0  0  1  0  0  0  0  0999 V2000
   11.7106   -2.3098    1.2658 C   0  0  0  0  0  0  0  0  0  0  0  0
   13.0313   -2.6523    0.7225 N   0  0  0  0  0  0  0  0  0  0  0  0
   14.2010   -2.6281    1.3773 C   0  0  0  0  0  0  0  0  0  0  0  0
   14.3777   -2.3568    2.6732 N   0  0  0  0  0  0  0  0  0  0  0  0
   15.2217   -2.9197    0.5738 N   0  0  0  0  0  0  0  0  0  0  0  0
   14.7965   -3.2519   -0.7875 C   0  0  1  0  0  0  0  0  0  0  0  0
   15.3794   -2.2443   -1.7949 C   0  0  0  0  0  0  0  0  0  0  0  0
   15.9522   -2.6550   -3.0208 C   0  0  0  0  0  0  0  0  0  0  0  0
   16.4340   -1.6937   -3.9273 C   0  0  0  0  0  0  0  0  0  0  0  0
   16.3364   -0.3224   -3.6308 C   0  0  0  0  0  0  0  0  0  0  0  0
   15.7943    0.1250   -2.4073 C   0  0  0  0  0  0  0  0  0  0  0  0
   15.6711    1.5693   -2.0915 C   0  0  0  0  0  0  0  0  0  0  0  0
   15.3832    2.0354   -0.7903 C   0  0  0  0  0  0  0  0  0  0  0  0
   15.3534    3.4188   -0.5357 C   0  0  0  0  0  0  0  0  0  0  0  0
   15.5968    4.3049   -1.5946 C   0  0  0  0  0  0  0  0  0  0  0  0
   15.8275    3.8920   -2.8511 N   0  0  0  0  0  0  0  0  0  0  0  0
   15.8598    2.5642   -3.0762 C   0  0  0  0  0  0  0  0  0  0  0  0
   15.3327   -0.8573   -1.5012 C   0  0  0  0  0  0  0  0  0  0  0  0
   13.2767   -3.0094   -0.6368 C   0  0  0  0  0  0  0  0  0  0  0  0
   12.3981   -3.0674   -1.5055 O   0  0  0  0  0  0  0  0  0  0  0  0
    0.0000    0.0000    0.0000 H   0  0  0  0  0  0  0  0  0  0  0  0
    0.0000    0.0000    0.0000 H   0  0  0  0  0  0  0  0  0  0  0  0
    0.0000    0.0000    0.0000 H   0  0  0  0  0  0  0  0  0  0  0  0
    0.0000    0.0000    0.0000 H   0  0  0  0  0  0  0  0  0  0  0  0
    0.0000    0.0000    0.0000 H   0  0  0  0  0  0  0  0  0  0  0  0
    0.0000    0.0000    0.0000 H   0  0  0  0  0  0  0  0  0  0  0  0
    0.0000    0.0000    0.0000 H   0  0  0  0  0  0  0  0  0  0  0  0
    0.0000    0.0000    0.0000 H   0  0  0  0  0  0  0  0  0  0  0  0
    0.0000    0.0000    0.0000 H   0  0  0  0  0  0  0  0  0  0  0  0
    0.0000    0.0000    0.0000 H   0  0  0  0  0  0  0  0  0  0  0  0
    0.0000    0.0000    0.0000 H   0  0  0  0  0  0  0  0  0  0  0  0
    0.0000    0.0000    0.0000 H   0  0  0  0  0  0  0  0  0  0  0  0
    0.0000    0.0000    0.0000 H   0  0  0  0  0  0  0  0  0  0  0  0
    0.0000    0.0000    0.0000 H   0  0  0  0  0  0  0  0  0  0  0  0
    6.8647   -1.5087   -0.3654 N   0  0  0  0  0  0  0  0  0  0  0  0
    6.7193   -2.0477   -1.2585 H   0  0  0  0  0  0  0  0  0  0  0  0
    7.1100   -0.5314   -0.6092 H   0  0  0  0  0  0  0  0  0  0  0  0
  1  2  1  0
  2  3  1  0
  2 19  1  0
  3  4  1  0
  3  5  2  0
  5  6  1  0
  6  7  1  0
  6 19  1  0
  7  8  2  0
  7 18  1  0
  8  9  1  0
  9 10  2  0
 10 11  1  0
 11 12  1  0
 11 18  2  0
 12 13  2  0
 12 17  1  0
 13 14  1  0
 14 15  2  0
 15 16  1  0
 16 17  2  0
 19 20  2  0
  1 21  1  0
  1 22  1  0
  1 23  1  0
  4 24  1  0
  4 25  1  0
  5 26  1  0
  8 27  1  0
  9 28  1  0
 10 29  1  0
 13 30  1  0
 14 31  1  0
 15 32  1  0
 17 33  1  0
 18 34  1  0
 35 36  1  0
 35 37  1  0
  6 35  1  6
M  CHG  1   5   1
M  END
>  <attachment_point>  (4) 
26

>  <score>  (4) 
<NA>

$$$$
CAT-4j
     RDKit          3D

 35 37  0  0  1  0  0  0  0  0999 V2000
   11.7106   -2.3098    1.2658 C   0  0  0  0  0  0  0  0  0  0  0  0
   13.0313   -2.6523    0.7225 N   0  0  0  0  0  0  0  0  0  0  0  0
   14.2010   -2.6281    1.3773 C   0  0  0  0  0  0  0  0  0  0  0  0
   14.3777   -2.3568    2.6732 N   0  0  0  0  0  0  0  0  0  0  0  0
   15.2217   -2.9197    0.5738 N   0  0  0  0  0  0  0  0  0  0  0  0
   14.7965   -3.2519   -0.7875 C   0  0  1  0  0  0  0  0  0  0  0  0
   15.3794   -2.2443   -1.7949 C   0  0  0  0  0  0  0  0  0  0  0  0
   15.9522   -2.6550   -3.0208 C   0  0  0  0  0  0  0  0  0  0  0  0
   16.4340   -1.6937   -3.9273 C   0  0  0  0  0  0  0  0  0  0  0  0
   16.3364   -0.3224   -3.6308 C   0  0  0  0  0  0  0  0  0  0  0  0
   15.7943    0.1250   -2.4073 C   0  0  0  0  0  0  0  0  0  0  0  0
   15.6711    1.5693   -2.0915 C   0  0  0  0  0  0  0  0  0  0  0  0
   15.3832    2.0354   -0.7903 C   0  0  0  0  0  0  0  0  0  0  0  0
   15.3534    3.4188   -0.5357 C   0  0  0  0  0  0  0  0  0  0  0  0
   15.5968    4.3049   -1.5946 C   0  0  0  0  0  0  0  0  0  0  0  0
   15.8275    3.8920   -2.8511 N   0  0  0  0  0  0  0  0  0  0  0  0
   15.8598    2.5642   -3.0762 C   0  0  0  0  0  0  0  0  0  0  0  0
   15.3327   -0.8573   -1.5012 C   0  0  0  0  0  0  0  0  0  0  0  0
   13.2767   -3.0094   -0.6368 C   0  0  0  0  0  0  0  0  0  0  0  0
   12.3981   -3.0674   -1.5055 O   0  0  0  0  0  0  0  0  0  0  0  0
    0.0000    0.0000    0.0000 H   0  0  0  0  0  0  0  0  0  0  0  0
    0.0000    0.0000    0.0000 H   0  0  0  0  0  0  0  0  0  0  0  0
    0.0000    0.0000    0.0000 H   0  0  0  0  0  0  0  0  0  0  0  0
    0.0000    0.0000    0.0000 H   0  0  0  0  0  0  0  0  0  0  0  0
    0.0000    0.0000    0.0000 H   0  0  0  0  0  0  0  0  0  0  0  0
    0.0000    0.0000    0.0000 H   0  0  0  0  0  0  0  0  0  0  0  0
    0.0000    0.0000    0.0000 H   0  0  0  0  0  0  0  0  0  0  0  0
    0.0000    0.0000    0.0000 H   0  0  0  0  0  0  0  0  0  0  0  0
    0.0000    0.0000    0.0000 H   0  0  0  0  0  0  0  0  0  0  0  0
    0.0000    0.0000    0.0000 H   0  0  0  0  0  0  0  0  0  0  0  0
    0.0000    0.0000    0.0000 H   0  0  0  0  0  0  0  0  0  0  0  0
    0.0000    0.0000    0.0000 H   0  0  0  0  0  0  0  0  0  0  0  0
    0.0000    0.0000    0.0000 H   0  0  0  0  0  0  0  0  0  0  0  0
    0.0000    0.0000    0.0000 H   0  0  0  0  0  0  0  0  0  0  0  0
    7.0374   -1.5466   -0.3745 Cl  0  0  0  0  0  0  0  0  0  0  0  0
  1  2  1  0
  2  3  1  0
  2 19  1  0
  3  4  1  0
  3  5  2  0
  5  6  1  0
  6  7  1  0
  6 19  1  0
  7  8  2  0
  7 18  1  0
  8  9  1  0
  9 10  2  0
 10 11  1  0
 11 12  1  0
 11 18  2  0
 12 13  2  0
 12 17  1  0
 13 14  1  0
 14 15  2  0
 15 16  1  0
 16 17  2  0
 19 20  2  0
  1 21  1  0
  1 22  1  0
  1 23  1  0
  4 24  1  0
  4 25  1  0
  5 26  1  0
  8 27  1  0
  9 28  1  0
 10 29  1  0
 13 30  1  0
 14 31  1  0
 15 32  1  0
 17 33  1  0
 18 34  1  0
  6 35  1  6
M  CHG  1   5   1
M  END
>  <attachment_point>  (5) 
26

>  <score>  (5) 
<NA>

$$$$
CAT-4j
     RDKit          3D

 35 37  0  0  1  0  0  0  0  0999 V2000
   11.7106   -2.3098    1.2658 C   0  0  0  0  0  0  0  0  0  0  0  0
   13.0313   -2.6523    0.7225 N   0  0  0  0  0  0  0  0  0  0  0  0
   14.2010   -2.6281    1.3773 C   0  0  0  0  0  0  0  0  0  0  0  0
   14.3777   -2.3568    2.6732 N   0  0  0  0  0  0  0  0  0  0  0  0
   15.2217   -2.9197    0.5738 N   0  0  0  0  0  0  0  0  0  0  0  0
   14.7965   -3.2519   -0.7875 C   0  0  1  0  0  0  0  0  0  0  0  0
   15.3794   -2.2443   -1.7949 C   0  0  0  0  0  0  0  0  0  0  0  0
   15.9522   -2.6550   -3.0208 C   0  0  0  0  0  0  0  0  0  0  0  0
   16.4340   -1.6937   -3.9273 C   0  0  0  0  0  0  0  0  0  0  0  0
   16.3364   -0.3224   -3.6308 C   0  0  0  0  0  0  0  0  0  0  0  0
   15.7943    0.1250   -2.4073 C   0  0  0  0  0  0  0  0  0  0  0  0
   15.6711    1.5693   -2.0915 C   0  0  0  0  0  0  0  0  0  0  0  0
   15.3832    2.0354   -0.7903 C   0  0  0  0  0  0  0  0  0  0  0  0
   15.3534    3.4188   -0.5357 C   0  0  0  0  0  0  0  0  0  0  0  0
   15.5968    4.3049   -1.5946 C   0  0  0  0  0  0  0  0  0  0  0  0
   15.8275    3.8920   -2.8511 N   0  0  0  0  0  0  0  0  0  0  0  0
   15.8598    2.5642   -3.0762 C   0  0  0  0  0  0  0  0  0  0  0  0
   15.3327   -0.8573   -1.5012 C   0  0  0  0  0  0  0  0  0  0  0  0
   13.2767   -3.0094   -0.6368 C   0  0  0  0  0  0  0  0  0  0  0  0
   12.3981   -3.0674   -1.5055 O   0  0  0  0  0  0  0  0  0  0  0  0
    0.0000    0.0000    0.0000 H   0  0  0  0  0  0  0  0  0  0  0  0
    0.0000    0.0000    0.0000 H   0  0  0  0  0  0  0  0  0  0  0  0
    0.0000    0.0000    0.0000 H   0  0  0  0  0  0  0  0  0  0  0  0
    0.0000    0.0000    0.0000 H   0  0  0  0  0  0  0  0  0  0  0  0
    0.0000    0.0000    0.0000 H   0  0  0  0  0  0  0  0  0  0  0  0
    0.0000    0.0000    0.0000 H   0  0  0  0  0  0  0  0  0  0  0  0
    0.0000    0.0000    0.0000 H   0  0  0  0  0  0  0  0  0  0  0  0
    0.0000    0.0000    0.0000 H   0  0  0  0  0  0  0  0  0  0  0  0
    0.0000    0.0000    0.0000 H   0  0  0  0  0  0  0  0  0  0  0  0
    0.0000    0.0000    0.0000 H   0  0  0  0  0  0  0  0  0  0  0  0
    0.0000    0.0000    0.0000 H   0  0  0  0  0  0  0  0  0  0  0  0
    0.0000    0.0000    0.0000 H   0  0  0  0  0  0  0  0  0  0  0  0
    0.0000    0.0000    0.0000 H   0  0  0  0  0  0  0  0  0  0  0  0
    0.0000    0.0000    0.0000 H   0  0  0  0  0  0  0  0  0  0  0  0
    7.0635   -1.5524   -0.3759 F   0  0  0  0  0  0  0  0  0  0  0  0
  1  2  1  0
  2  3  1  0
  2 19  1  0
  3  4  1  0
  3  5  2  0
  5  6  1  0
  6  7  1  0
  6 19  1  0
  7  8  2  0
  7 18  1  0
  8  9  1  0
  9 10  2  0
 10 11  1  0
 11 12  1  0
 11 18  2  0
 12 13  2  0
 12 17  1  0
 13 14  1  0
 14 15  2  0
 15 16  1  0
 16 17  2  0
 19 20  2  0
  1 21  1  0
  1 22  1  0
  1 23  1  0
  4 24  1  0
  4 25  1  0
  5 26  1  0
  8 27  1  0
  9 28  1  0
 10 29  1  0
 13 30  1  0
 14 31  1  0
 15 32  1  0
 17 33  1  0
 18 34  1  0
  6 35  1  6
M  CHG  1   5   1
M  END
>  <attachment_point>  (6) 
26

>  <score>  (6) 
<NA>

$$$$
CAT-4j
     RDKit          3D

 41 43  0  0  1  0  0  0  0  0999 V2000
   11.7106   -2.3098    1.2658 C   0  0  0  0  0  0  0  0  0  0  0  0
   13.0313   -2.6523    0.7225 N   0  0  0  0  0  0  0  0  0  0  0  0
   14.2010   -2.6281    1.3773 C   0  0  0  0  0  0  0  0  0  0  0  0
   14.3777   -2.3568    2.6732 N   0  0  0  0  0  0  0  0  0  0  0  0
   15.2217   -2.9197    0.5738 N   0  0  0  0  0  0  0  0  0  0  0  0
   14.7965   -3.2519   -0.7875 C   0  0  1  0  0  0  0  0  0  0  0  0
   15.3794   -2.2443   -1.7949 C   0  0  0  0  0  0  0  0  0  0  0  0
   15.9522   -2.6550   -3.0208 C   0  0  0  0  0  0  0  0  0  0  0  0
   16.4340   -1.6937   -3.9273 C   0  0  0  0  0  0  0  0  0  0  0  0
   16.3364   -0.3224   -3.6308 C   0  0  0  0  0  0  0  0  0  0  0  0
   15.7943    0.1250   -2.4073 C   0  0  0  0  0  0  0  0  0  0  0  0
   15.6711    1.5693   -2.0915 C   0  0  0  0  0  0  0  0  0  0  0  0
   15.3832    2.0354   -0.7903 C   0  0  0  0  0  0  0  0  0  0  0  0
   15.3534    3.4188   -0.5357 C   0  0  0  0  0  0  0  0  0  0  0  0
   15.5968    4.3049   -1.5946 C   0  0  0  0  0  0  0  0  0  0  0  0
   15.8275    3.8920   -2.8511 N   0  0  0  0  0  0  0  0  0  0  0  0
   15.8598    2.5642   -3.0762 C   0  0  0  0  0  0  0  0  0  0  0  0
   15.3327   -0.8573   -1.5012 C   0  0  0  0  0  0  0  0  0  0  0  0
   13.2767   -3.0094   -0.6368 C   0  0  0  0  0  0  0  0  0  0  0  0
   12.3981   -3.0674   -1.5055 O   0  0  0  0  0  0  0  0  0  0  0  0
    0.0000    0.0000    0.0000 H   0  0  0  0  0  0  0  0  0  0  0  0
    0.0000    0.0000    0.0000 H   0  0  0  0  0  0  0  0  0  0  0  0
    0.0000    0.0000    0.0000 H   0  0  0  0  0  0  0  0  0  0  0  0
    0.0000    0.0000    0.0000 H   0  0  0  0  0  0  0  0  0  0  0  0
    0.0000    0.0000    0.0000 H   0  0  0  0  0  0  0  0  0  0  0  0
    0.0000    0.0000    0.0000 H   0  0  0  0  0  0  0  0  0  0  0  0
    0.0000    0.0000    0.0000 H   0  0  0  0  0  0  0  0  0  0  0  0
    0.0000    0.0000    0.0000 H   0  0  0  0  0  0  0  0  0  0  0  0
    0.0000    0.0000    0.0000 H   0  0  0  0  0  0  0  0  0  0  0  0
    0.0000    0.0000    0.0000 H   0  0  0  0  0  0  0  0  0  0  0  0
    0.0000    0.0000    0.0000 H   0  0  0  0  0  0  0  0  0  0  0  0
    0.0000    0.0000    0.0000 H   0  0  0  0  0  0  0  0  0  0  0  0
    0.0000    0.0000    0.0000 H   0  0  0  0  0  0  0  0  0  0  0  0
    0.0000    0.0000    0.0000 H   0  0  0  0  0  0  0  0  0  0  0  0
    6.9476   -1.5269   -0.3698 C   0  0  0  0  0  0  0  0  0  0  0  0
    6.9511   -0.0261   -0.2628 C   0  0  0  0  0  0  0  0  0  0  0  0
    6.5336   -2.0440    0.4956 H   0  0  0  0  0  0  0  0  0  0  0  0
    6.4993   -1.8391   -1.3265 H   0  0  0  0  0  0  0  0  0  0  0  0
    7.0520    0.3649   -1.3159 H   0  0  0  0  0  0  0  0  0  0  0  0
    7.8472    0.3696    0.2733 H   0  0  0  0  0  0  0  0  0  0  0  0
    6.0415    0.3948    0.1619 H   0  0  0  0  0  0  0  0  0  0  0  0
  1  2  1  0
  2  3  1  0
  2 19  1  0
  3  4  1  0
  3  5  2  0
  5  6  1  0
  6  7  1  0
  6 19  1  0
  7  8  2  0
  7 18  1  0
  8  9  1  0
  9 10  2  0
 10 11  1  0
 11 12  1  0
 11 18  2  0
 12 13  2  0
 12 17  1  0
 13 14  1  0
 14 15  2  0
 15 16  1  0
 16 17  2  0
 19 20  2  0
  1 21  1  0
  1 22  1  0
  1 23  1  0
  4 24  1  0
  4 25  1  0
  5 26  1  0
  8 27  1  0
  9 28  1  0
 10 29  1  0
 13 30  1  0
 14 31  1  0
 15 32  1  0
 17 33  1  0
 18 34  1  0
 35 36  1  0
 35 37  1  0
 35 38  1  0
 36 39  1  0
 36 40  1  0
 36 41  1  0
  6 35  1  6
M  CHG  1   5   1
M  END
>  <attachment_point>  (7) 
26

>  <score>  (7) 
<NA>

$$$$
CAT-4j
     RDKit          3D

 36 38  0  0  1  0  0  0  0  0999 V2000
   11.7106   -2.3098    1.2658 C   0  0  0  0  0  0  0  0  0  0  0  0
   13.0313   -2.6523    0.7225 N   0  0  0  0  0  0  0  0  0  0  0  0
   14.2010   -2.6281    1.3773 C   0  0  0  0  0  0  0  0  0  0  0  0
   14.3777   -2.3568    2.6732 N   0  0  0  0  0  0  0  0  0  0  0  0
   15.2217   -2.9197    0.5738 N   0  0  0  0  0  0  0  0  0  0  0  0
   14.7965   -3.2519   -0.7875 C   0  0  1  0  0  0  0  0  0  0  0  0
   15.3794   -2.2443   -1.7949 C   0  0  0  0  0  0  0  0  0  0  0  0
   15.9522   -2.6550   -3.0208 C   0  0  0  0  0  0  0  0  0  0  0  0
   16.4340   -1.6937   -3.9273 C   0  0  0  0  0  0  0  0  0  0  0  0
   16.3364   -0.3224   -3.6308 C   0  0  0  0  0  0  0  0  0  0  0  0
   15.7943    0.1250   -2.4073 C   0  0  0  0  0  0  0  0  0  0  0  0
   15.6711    1.5693   -2.0915 C   0  0  0  0  0  0  0  0  0  0  0  0
   15.3832    2.0354   -0.7903 C   0  0  0  0  0  0  0  0  0  0  0  0
   15.3534    3.4188   -0.5357 C   0  0  0  0  0  0  0  0  0  0  0  0
   15.5968    4.3049   -1.5946 C   0  0  0  0  0  0  0  0  0  0  0  0
   15.8275    3.8920   -2.8511 N   0  0  0  0  0  0  0  0  0  0  0  0
   15.8598    2.5642   -3.0762 C   0  0  0  0  0  0  0  0  0  0  0  0
   15.3327   -0.8573   -1.5012 C   0  0  0  0  0  0  0  0  0  0  0  0
   13.2767   -3.0094   -0.6368 C   0  0  0  0  0  0  0  0  0  0  0  0
   12.3981   -3.0674   -1.5055 O   0  0  0  0  0  0  0  0  0  0  0  0
    0.0000    0.0000    0.0000 H   0  0  0  0  0  0  0  0  0  0  0  0
    0.0000    0.0000    0.0000 H   0  0  0  0  0  0  0  0  0  0  0  0
    0.0000    0.0000    0.0000 H   0  0  0  0  0  0  0  0  0  0  0  0
    0.0000    0.0000    0.0000 H   0  0  0  0  0  0  0  0  0  0  0  0
    0.0000    0.0000    0.0000 H   0  0  0  0  0  0  0  0  0  0  0  0
    0.0000    0.0000    0.0000 H   0  0  0  0  0  0  0  0  0  0  0  0
    0.0000    0.0000    0.0000 H   0  0  0  0  0  0  0  0  0  0  0  0
    0.0000    0.0000    0.0000 H   0  0  0  0  0  0  0  0  0  0  0  0
    0.0000    0.0000    0.0000 H   0  0  0  0  0  0  0  0  0  0  0  0
    0.0000    0.0000    0.0000 H   0  0  0  0  0  0  0  0  0  0  0  0
    0.0000    0.0000    0.0000 H   0  0  0  0  0  0  0  0  0  0  0  0
    0.0000    0.0000    0.0000 H   0  0  0  0  0  0  0  0  0  0  0  0
    0.0000    0.0000    0.0000 H   0  0  0  0  0  0  0  0  0  0  0  0
    0.0000    0.0000    0.0000 H   0  0  0  0  0  0  0  0  0  0  0  0
    6.9582   -1.5292   -0.3703 C   0  0  0  0  0  0  0  0  0  0  0  0
    5.8413   -1.2860   -0.3110 N   0  0  0  0  0  0  0  0  0  0  0  0
  1  2  1  0
  2  3  1  0
  2 19  1  0
  3  4  1  0
  3  5  2  0
  5  6  1  0
  6  7  1  0
  6 19  1  0
  7  8  2  0
  7 18  1  0
  8  9  1  0
  9 10  2  0
 10 11  1  0
 11 12  1  0
 11 18  2  0
 12 13  2  0
 12 17  1  0
 13 14  1  0
 14 15  2  0
 15 16  1  0
 16 17  2  0
 19 20  2  0
  1 21  1  0
  1 22  1  0
  1 23  1  0
  4 24  1  0
  4 25  1  0
  5 26  1  0
  8 27  1  0
  9 28  1  0
 10 29  1  0
 13 30  1  0
 14 31  1  0
 15 32  1  0
 17 33  1  0
 18 34  1  0
 35 36  3  0
  6 35  1  6
M  CHG  1   5   1
M  END
>  <attachment_point>  (8) 
26

>  <score>  (8) 
<NA>

$$$$
CAT-4j
     RDKit          3D

 38 40  0  0  1  0  0  0  0  0999 V2000
   11.7106   -2.3098    1.2658 C   0  0  0  0  0  0  0  0  0  0  0  0
   13.0313   -2.6523    0.7225 N   0  0  0  0  0  0  0  0  0  0  0  0
   14.2010   -2.6281    1.3773 C   0  0  0  0  0  0  0  0  0  0  0  0
   14.3777   -2.3568    2.6732 N   0  0  0  0  0  0  0  0  0  0  0  0
   15.2217   -2.9197    0.5738 N   0  0  0  0  0  0  0  0  0  0  0  0
   14.7965   -3.2519   -0.7875 C   0  0  1  0  0  0  0  0  0  0  0  0
   15.3794   -2.2443   -1.7949 C   0  0  0  0  0  0  0  0  0  0  0  0
   15.9522   -2.6550   -3.0208 C   0  0  0  0  0  0  0  0  0  0  0  0
   16.4340   -1.6937   -3.9273 C   0  0  0  0  0  0  0  0  0  0  0  0
   16.3364   -0.3224   -3.6308 C   0  0  0  0  0  0  0  0  0  0  0  0
   15.7943    0.1250   -2.4073 C   0  0  0  0  0  0  0  0  0  0  0  0
   15.6711    1.5693   -2.0915 C   0  0  0  0  0  0  0  0  0  0  0  0
   15.3832    2.0354   -0.7903 C   0  0  0  0  0  0  0  0  0  0  0  0
   15.3534    3.4188   -0.5357 C   0  0  0  0  0  0  0  0  0  0  0  0
   15.5968    4.3049   -1.5946 C   0  0  0  0  0  0  0  0  0  0  0  0
   15.8275    3.8920   -2.8511 N   0  0  0  0  0  0  0  0  0  0  0  0
   15.8598    2.5642   -3.0762 C   0  0  0  0  0  0  0  0  0  0  0  0
   15.3327   -0.8573   -1.5012 C   0  0  0  0  0  0  0  0  0  0  0  0
   13.2767   -3.0094   -0.6368 C   0  0  0  0  0  0  0  0  0  0  0  0
   12.3981   -3.0674   -1.5055 O   0  0  0  0  0  0  0  0  0  0  0  0
    0.0000    0.0000    0.0000 H   0  0  0  0  0  0  0  0  0  0  0  0
    0.0000    0.0000    0.0000 H   0  0  0  0  0  0  0  0  0  0  0  0
    0.0000    0.0000    0.0000 H   0  0  0  0  0  0  0  0  0  0  0  0
    0.0000    0.0000    0.0000 H   0  0  0  0  0  0  0  0  0  0  0  0
    0.0000    0.0000    0.0000 H   0  0  0  0  0  0  0  0  0  0  0  0
    0.0000    0.0000    0.0000 H   0  0  0  0  0  0  0  0  0  0  0  0
    0.0000    0.0000    0.0000 H   0  0  0  0  0  0  0  0  0  0  0  0
    0.0000    0.0000    0.0000 H   0  0  0  0  0  0  0  0  0  0  0  0
    0.0000    0.0000    0.0000 H   0  0  0  0  0  0  0  0  0  0  0  0
    0.0000    0.0000    0.0000 H   0  0  0  0  0  0  0  0  0  0  0  0
    0.0000    0.0000    0.0000 H   0  0  0  0  0  0  0  0  0  0  0  0
    0.0000    0.0000    0.0000 H   0  0  0  0  0  0  0  0  0  0  0  0
    0.0000    0.0000    0.0000 H   0  0  0  0  0  0  0  0  0  0  0  0
    0.0000    0.0000    0.0000 H   0  0  0  0  0  0  0  0  0  0  0  0
    6.9432   -1.5259   -0.3695 C   0  0  0  0  0  0  0  0  0  0  0  0
    6.6309   -0.5647    0.3316 O   0  0  0  0  0  0  0  0  0  0  0  0
    6.0123   -2.2612   -1.0405 O   0  0  0  0  0  0  0  0  0  0  0  0
    5.0820   -2.3293   -0.6293 H   0  0  0  0  0  0  0  0  0  0  0  0
  1  2  1  0
  2  3  1  0
  2 19  1  0
  3  4  1  0
  3  5  2  0
  5  6  1  0
  6  7  1  0
  6 19  1  0
  7  8  2  0
  7 18  1  0
  8  9  1  0
  9 10  2  0
 10 11  1  0
 11 12  1  0
 11 18  2  0
 12 13  2  0
 12 17  1  0
 13 14  1  0
 14 15  2  0
 15 16  1  0
 16 17  2  0
 19 20  2  0
  1 21  1  0
  1 22  1  0
  1 23  1  0
  4 24  1  0
  4 25  1  0
  5 26  1  0
  8 27  1  0
  9 28  1  0
 10 29  1  0
 13 30  1  0
 14 31  1  0
 15 32  1  0
 17 33  1  0
 18 34  1  0
 35 36  2  0
 35 37  1  0
 37 38  1  0
  6 35  1  6
M  CHG  1   5   1
M  END
>  <attachment_point>  (9) 
26

>  <score>  (9) 
<NA>

$$$$
CAT-4j
     RDKit          3D

 35 37  0  0  1  0  0  0  0  0999 V2000
   11.7106   -2.3098    1.2658 C   0  0  0  0  0  0  0  0  0  0  0  0
   13.0313   -2.6523    0.7225 N   0  0  0  0  0  0  0  0  0  0  0  0
   14.2010   -2.6281    1.3773 C   0  0  0  0  0  0  0  0  0  0  0  0
   14.3777   -2.3568    2.6732 N   0  0  0  0  0  0  0  0  0  0  0  0
   15.2217   -2.9197    0.5738 N   0  0  0  0  0  0  0  0  0  0  0  0
   14.7965   -3.2519   -0.7875 C   0  0  1  0  0  0  0  0  0  0  0  0
   15.3794   -2.2443   -1.7949 C   0  0  0  0  0  0  0  0  0  0  0  0
   15.9522   -2.6550   -3.0208 C   0  0  0  0  0  0  0  0  0  0  0  0
   16.4340   -1.6937   -3.9273 C   0  0  0  0  0  0  0  0  0  0  0  0
   16.3364   -0.3224   -3.6308 C   0  0  0  0  0  0  0  0  0  0  0  0
   15.7943    0.1250   -2.4073 C   0  0  0  0  0  0  0  0  0  0  0  0
   15.6711    1.5693   -2.0915 C   0  0  0  0  0  0  0  0  0  0  0  0
   15.3832    2.0354   -0.7903 C   0  0  0  0  0  0  0  0  0  0  0  0
   15.3534    3.4188   -0.5357 C   0  0  0  0  0  0  0  0  0  0  0  0
   15.5968    4.3049   -1.5946 C   0  0  0  0  0  0  0  0  0  0  0  0
   15.8275    3.8920   -2.8511 N   0  0  0  0  0  0  0  0  0  0  0  0
   15.8598    2.5642   -3.0762 C   0  0  0  0  0  0  0  0  0  0  0  0
   15.3327   -0.8573   -1.5012 C   0  0  0  0  0  0  0  0  0  0  0  0
   13.2767   -3.0094   -0.6368 C   0  0  0  0  0  0  0  0  0  0  0  0
   12.3981   -3.0674   -1.5055 O   0  0  0  0  0  0  0  0  0  0  0  0
    0.0000    0.0000    0.0000 H   0  0  0  0  0  0  0  0  0  0  0  0
    0.0000    0.0000    0.0000 H   0  0  0  0  0  0  0  0  0  0  0  0
    0.0000    0.0000    0.0000 H   0  0  0  0  0  0  0  0  0  0  0  0
    0.0000    0.0000    0.0000 H   0  0  0  0  0  0  0  0  0  0  0  0
    0.0000    0.0000    0.0000 H   0  0  0  0  0  0  0  0  0  0  0  0
    0.0000    0.0000    0.0000 H   0  0  0  0  0  0  0  0  0  0  0  0
    0.0000    0.0000    0.0000 H   0  0  0  0  0  0  0  0  0  0  0  0
    0.0000    0.0000    0.0000 H   0  0  0  0  0  0  0  0  0  0  0  0
    0.0000    0.0000    0.0000 H   0  0  0  0  0  0  0  0  0  0  0  0
    0.0000    0.0000    0.0000 H   0  0  0  0  0  0  0  0  0  0  0  0
    0.0000    0.0000    0.0000 H   0  0  0  0  0  0  0  0  0  0  0  0
    0.0000    0.0000    0.0000 H   0  0  0  0  0  0  0  0  0  0  0  0
    0.0000    0.0000    0.0000 H   0  0  0  0  0  0  0  0  0  0  0  0
    0.0000    0.0000    0.0000 H   0  0  0  0  0  0  0  0  0  0  0  0
    7.1591   -1.5734   -0.3810 Br  0  0  0  0  0  0  0  0  0  0  0  0
  1  2  1  0
  2  3  1  0
  2 19  1  0
  3  4  1  0
  3  5  2  0
  5  6  1  0
  6  7  1  0
  6 19  1  0
  7  8  2  0
  7 18  1  0
  8  9  1  0
  9 10  2  0
 10 11  1  0
 11 12  1  0
 11 18  2  0
 12 13  2  0
 12 17  1  0
 13 14  1  0
 14 15  2  0
 15 16  1  0
 16 17  2  0
 19 20  2  0
  1 21  1  0
  1 22  1  0
  1 23  1  0
  4 24  1  0
  4 25  1  0
  5 26  1  0
  8 27  1  0
  9 28  1  0
 10 29  1  0
 13 30  1  0
 14 31  1  0
 15 32  1  0
 17 33  1  0
 18 34  1  0
  6 35  1  6
M  CHG  1   5   1
M  END
>  <attachment_point>  (10) 
26

>  <score>  (10) 
<NA>

$$$$
CAT-4j
     RDKit          3D

 38 40  0  0  1  0  0  0  0  0999 V2000
   11.7106   -2.3098    1.2658 C   0  0  0  0  0  0  0  0  0  0  0  0
   13.0313   -2.6523    0.7225 N   0  0  0  0  0  0  0  0  0  0  0  0
   14.2010   -2.6281    1.3773 C   0  0  0  0  0  0  0  0  0  0  0  0
   14.3777   -2.3568    2.6732 N   0  0  0  0  0  0  0  0  0  0  0  0
   15.2217   -2.9197    0.5738 N   0  0  0  0  0  0  0  0  0  0  0  0
   14.7965   -3.2519   -0.7875 C   0  0  1  0  0  0  0  0  0  0  0  0
   15.3794   -2.2443   -1.7949 C   0  0  0  0  0  0  0  0  0  0  0  0
   15.9522   -2.6550   -3.0208 C   0  0  0  0  0  0  0  0  0  0  0  0
   16.4340   -1.6937   -3.9273 C   0  0  0  0  0  0  0  0  0  0  0  0
   16.3364   -0.3224   -3.6308 C   0  0  0  0  0  0  0  0  0  0  0  0
   15.7943    0.1250   -2.4073 C   0  0  0  0  0  0  0  0  0  0  0  0
   15.6711    1.5693   -2.0915 C   0  0  0  0  0  0  0  0  0  0  0  0
   15.3832    2.0354   -0.7903 C   0  0  0  0  0  0  0  0  0  0  0  0
   15.3534    3.4188   -0.5357 C   0  0  0  0  0  0  0  0  0  0  0  0
   15.5968    4.3049   -1.5946 C   0  0  0  0  0  0  0  0  0  0  0  0
   15.8275    3.8920   -2.8511 N   0  0  0  0  0  0  0  0  0  0  0  0
   15.8598    2.5642   -3.0762 C   0  0  0  0  0  0  0  0  0  0  0  0
   15.3327   -0.8573   -1.5012 C   0  0  0  0  0  0  0  0  0  0  0  0
   13.2767   -3.0094   -0.6368 C   0  0  0  0  0  0  0  0  0  0  0  0
   12.3981   -3.0674   -1.5055 O   0  0  0  0  0  0  0  0  0  0  0  0
    0.0000    0.0000    0.0000 H   0  0  0  0  0  0  0  0  0  0  0  0
    0.0000    0.0000    0.0000 H   0  0  0  0  0  0  0  0  0  0  0  0
    0.0000    0.0000    0.0000 H   0  0  0  0  0  0  0  0  0  0  0  0
    0.0000    0.0000    0.0000 H   0  0  0  0  0  0  0  0  0  0  0  0
    0.0000    0.0000    0.0000 H   0  0  0  0  0  0  0  0  0  0  0  0
    0.0000    0.0000    0.0000 H   0  0  0  0  0  0  0  0  0  0  0  0
    0.0000    0.0000    0.0000 H   0  0  0  0  0  0  0  0  0  0  0  0
    0.0000    0.0000    0.0000 H   0  0  0  0  0  0  0  0  0  0  0  0
    0.0000    0.0000    0.0000 H   0  0  0  0  0  0  0  0  0  0  0  0
    0.0000    0.0000    0.0000 H   0  0  0  0  0  0  0  0  0  0  0  0
    0.0000    0.0000    0.0000 H   0  0  0  0  0  0  0  0  0  0  0  0
    0.0000    0.0000    0.0000 H   0  0  0  0  0  0  0  0  0  0  0  0
    0.0000    0.0000    0.0000 H   0  0  0  0  0  0  0  0  0  0  0  0
    0.0000    0.0000    0.0000 H   0  0  0  0  0  0  0  0  0  0  0  0
    6.9367   -1.5245   -0.3692 C   0  0  0  0  0  0  0  0  0  0  0  0
    6.8340   -0.2017   -0.0487 F   0  0  0  0  0  0  0  0  0  0  0  0
    6.4376   -2.3697    0.5882 F   0  0  0  0  0  0  0  0  0  0  0  0
    6.4376   -1.8099   -1.6375 F   0  0  0  0  0  0  0  0  0  0  0  0
  1  2  1  0
  2  3  1  0
  2 19  1  0
  3  4  1  0
  3  5  2  0
  5  6  1  0
  6  7  1  0
  6 19  1  0
  7  8  2  0
  7 18  1  0
  8  9  1  0
  9 10  2  0
 10 11  1  0
 11 12  1  0
 11 18  2  0
 12 13  2  0
 12 17  1  0
 13 14  1  0
 14 15  2  0
 15 16  1  0
 16 17  2  0
 19 20  2  0
  1 21  1  0
  1 22  1  0
  1 23  1  0
  4 24  1  0
  4 25  1  0
  5 26  1  0
  8 27  1  0
  9 28  1  0
 10 29  1  0
 13 30  1  0
 14 31  1  0
 15 32  1  0
 17 33  1  0
 18 34  1  0
 35 36  1  0
 35 37  1  0
 35 38  1  0
  6 35  1  6
M  CHG  1   5   1
M  END
>  <attachment_point>  (11) 
26

>  <score>  (11) 
<NA>

$$$$
CAT-4j
     RDKit          3D

 44 46  0  0  1  0  0  0  0  0999 V2000
   11.7106   -2.3098    1.2658 C   0  0  0  0  0  0  0  0  0  0  0  0
   13.0313   -2.6523    0.7225 N   0  0  0  0  0  0  0  0  0  0  0  0
   14.2010   -2.6281    1.3773 C   0  0  0  0  0  0  0  0  0  0  0  0
   14.3777   -2.3568    2.6732 N   0  0  0  0  0  0  0  0  0  0  0  0
   15.2217   -2.9197    0.5738 N   0  0  0  0  0  0  0  0  0  0  0  0
   14.7965   -3.2519   -0.7875 C   0  0  1  0  0  0  0  0  0  0  0  0
   15.3794   -2.2443   -1.7949 C   0  0  0  0  0  0  0  0  0  0  0  0
   15.9522   -2.6550   -3.0208 C   0  0  0  0  0  0  0  0  0  0  0  0
   16.4340   -1.6937   -3.9273 C   0  0  0  0  0  0  0  0  0  0  0  0
   16.3364   -0.3224   -3.6308 C   0  0  0  0  0  0  0  0  0  0  0  0
   15.7943    0.1250   -2.4073 C   0  0  0  0  0  0  0  0  0  0  0  0
   15.6711    1.5693   -2.0915 C   0  0  0  0  0  0  0  0  0  0  0  0
   15.3832    2.0354   -0.7903 C   0  0  0  0  0  0  0  0  0  0  0  0
   15.3534    3.4188   -0.5357 C   0  0  0  0  0  0  0  0  0  0  0  0
   15.5968    4.3049   -1.5946 C   0  0  0  0  0  0  0  0  0  0  0  0
   15.8275    3.8920   -2.8511 N   0  0  0  0  0  0  0  0  0  0  0  0
   15.8598    2.5642   -3.0762 C   0  0  0  0  0  0  0  0  0  0  0  0
   15.3327   -0.8573   -1.5012 C   0  0  0  0  0  0  0  0  0  0  0  0
   13.2767   -3.0094   -0.6368 C   0  0  0  0  0  0  0  0  0  0  0  0
   12.3981   -3.0674   -1.5055 O   0  0  0  0  0  0  0  0  0  0  0  0
    0.0000    0.0000    0.0000 H   0  0  0  0  0  0  0  0  0  0  0  0
    0.0000    0.0000    0.0000 H   0  0  0  0  0  0  0  0  0  0  0  0
    0.0000    0.0000    0.0000 H   0  0  0  0  0  0  0  0  0  0  0  0
    0.0000    0.0000    0.0000 H   0  0  0  0  0  0  0  0  0  0  0  0
    0.0000    0.0000    0.0000 H   0  0  0  0  0  0  0  0  0  0  0  0
    0.0000    0.0000    0.0000 H   0  0  0  0  0  0  0  0  0  0  0  0
    0.0000    0.0000    0.0000 H   0  0  0  0  0  0  0  0  0  0  0  0
    0.0000    0.0000    0.0000 H   0  0  0  0  0  0  0  0  0  0  0  0
    0.0000    0.0000    0.0000 H   0  0  0  0  0  0  0  0  0  0  0  0
    0.0000    0.0000    0.0000 H   0  0  0  0  0  0  0  0  0  0  0  0
    0.0000    0.0000    0.0000 H   0  0  0  0  0  0  0  0  0  0  0  0
    0.0000    0.0000    0.0000 H   0  0  0  0  0  0  0  0  0  0  0  0
    0.0000    0.0000    0.0000 H   0  0  0  0  0  0  0  0  0  0  0  0
    0.0000    0.0000    0.0000 H   0  0  0  0  0  0  0  0  0  0  0  0
    6.9817   -1.5344   -0.3716 C   0  0  0  0  0  0  0  0  0  0  0  0
    6.5802   -0.3726   -1.2481 C   0  0  0  0  0  0  0  0  0  0  0  0
    6.1103   -2.7153   -0.7605 C   0  0  0  0  0  0  0  0  0  0  0  0
    6.8181   -1.2695    0.7070 H   0  0  0  0  0  0  0  0  0  0  0  0
    6.1854   -0.7154   -2.2326 H   0  0  0  0  0  0  0  0  0  0  0  0
    5.7566    0.1615   -0.7236 H   0  0  0  0  0  0  0  0  0  0  0  0
    7.4277    0.2831   -1.4356 H   0  0  0  0  0  0  0  0  0  0  0  0
    6.7678   -3.4620   -1.2682 H   0  0  0  0  0  0  0  0  0  0  0  0
    5.6064   -3.1306    0.1351 H   0  0  0  0  0  0  0  0  0  0  0  0
    5.2866   -2.4128   -1.4535 H   0  0  0  0  0  0  0  0  0  0  0  0
  1  2  1  0
  2  3  1  0
  2 19  1  0
  3  4  1  0
  3  5  2  0
  5  6  1  0
  6  7  1  0
  6 19  1  0
  7  8  2  0
  7 18  1  0
  8  9  1  0
  9 10  2  0
 10 11  1  0
 11 12  1  0
 11 18  2  0
 12 13  2  0
 12 17  1  0
 13 14  1  0
 14 15  2  0
 15 16  1  0
 16 17  2  0
 19 20  2  0
  1 21  1  0
  1 22  1  0
  1 23  1  0
  4 24  1  0
  4 25  1  0
  5 26  1  0
  8 27  1  0
  9 28  1  0
 10 29  1  0
 13 30  1  0
 14 31  1  0
 15 32  1  0
 17 33  1  0
 18 34  1  0
 35 36  1  0
 35 37  1  0
 35 38  1  0
 36 39  1  0
 36 40  1  0
 36 41  1  0
 37 42  1  0
 37 43  1  0
 37 44  1  0
  6 35  1  6
M  CHG  1   5   1
M  END
>  <attachment_point>  (12) 
26

>  <score>  (12) 
<NA>

$$$$
CAT-4j
     RDKit          3D

 48 51  0  0  1  0  0  0  0  0999 V2000
   11.7106   -2.3098    1.2658 C   0  0  0  0  0  0  0  0  0  0  0  0
   13.0313   -2.6523    0.7225 N   0  0  0  0  0  0  0  0  0  0  0  0
   14.2010   -2.6281    1.3773 C   0  0  0  0  0  0  0  0  0  0  0  0
   14.3777   -2.3568    2.6732 N   0  0  0  0  0  0  0  0  0  0  0  0
   15.2217   -2.9197    0.5738 N   0  0  0  0  0  0  0  0  0  0  0  0
   14.7965   -3.2519   -0.7875 C   0  0  1  0  0  0  0  0  0  0  0  0
   15.3794   -2.2443   -1.7949 C   0  0  0  0  0  0  0  0  0  0  0  0
   15.9522   -2.6550   -3.0208 C   0  0  0  0  0  0  0  0  0  0  0  0
   16.4340   -1.6937   -3.9273 C   0  0  0  0  0  0  0  0  0  0  0  0
   16.3364   -0.3224   -3.6308 C   0  0  0  0  0  0  0  0  0  0  0  0
   15.7943    0.1250   -2.4073 C   0  0  0  0  0  0  0  0  0  0  0  0
   15.6711    1.5693   -2.0915 C   0  0  0  0  0  0  0  0  0  0  0  0
   15.3832    2.0354   -0.7903 C   0  0  0  0  0  0  0  0  0  0  0  0
   15.3534    3.4188   -0.5357 C   0  0  0  0  0  0  0  0  0  0  0  0
   15.5968    4.3049   -1.5946 C   0  0  0  0  0  0  0  0  0  0  0  0
   15.8275    3.8920   -2.8511 N   0  0  0  0  0  0  0  0  0  0  0  0
   15.8598    2.5642   -3.0762 C   0  0  0  0  0  0  0  0  0  0  0  0
   15.3327   -0.8573   -1.5012 C   0  0  0  0  0  0  0  0  0  0  0  0
   13.2767   -3.0094   -0.6368 C   0  0  0  0  0  0  0  0  0  0  0  0
   12.3981   -3.0674   -1.5055 O   0  0  0  0  0  0  0  0  0  0  0  0
    0.0000    0.0000    0.0000 H   0  0  0  0  0  0  0  0  0  0  0  0
    0.0000    0.0000    0.0000 H   0  0  0  0  0  0  0  0  0  0  0  0
    0.0000    0.0000    0.0000 H   0  0  0  0  0  0  0  0  0  0  0  0
    0.0000    0.0000    0.0000 H   0  0  0  0  0  0  0  0  0  0  0  0
    0.0000    0.0000    0.0000 H   0  0  0  0  0  0  0  0  0  0  0  0
    0.0000    0.0000    0.0000 H   0  0  0  0  0  0  0  0  0  0  0  0
    0.0000    0.0000    0.0000 H   0  0  0  0  0  0  0  0  0  0  0  0
    0.0000    0.0000    0.0000 H   0  0  0  0  0  0  0  0  0  0  0  0
    0.0000    0.0000    0.0000 H   0  0  0  0  0  0  0  0  0  0  0  0
    0.0000    0.0000    0.0000 H   0  0  0  0  0  0  0  0  0  0  0  0
    0.0000    0.0000    0.0000 H   0  0  0  0  0  0  0  0  0  0  0  0
    0.0000    0.0000    0.0000 H   0  0  0  0  0  0  0  0  0  0  0  0
    0.0000    0.0000    0.0000 H   0  0  0  0  0  0  0  0  0  0  0  0
    0.0000    0.0000    0.0000 H   0  0  0  0  0  0  0  0  0  0  0  0
    6.9540   -1.5283   -0.3701 C   0  0  0  0  0  0  0  0  0  0  0  0
    6.4374   -1.2881   -1.7318 C   0  0  0  0  0  0  0  0  0  0  0  0
    6.4733    0.0024   -2.2301 C   0  0  0  0  0  0  0  0  0  0  0  0
    5.9866    0.1998   -3.5001 C   0  0  0  0  0  0  0  0  0  0  0  0
    5.4745   -0.8234   -4.2779 C   0  0  0  0  0  0  0  0  0  0  0  0
    5.4415   -2.1109   -3.7738 C   0  0  0  0  0  0  0  0  0  0  0  0
    5.9289   -2.3211   -2.4966 C   0  0  0  0  0  0  0  0  0  0  0  0
    6.5613   -2.4921    0.0616 H   0  0  0  0  0  0  0  0  0  0  0  0
    6.7972   -0.6720    0.3001 H   0  0  0  0  0  0  0  0  0  0  0  0
    6.8751    0.8195   -1.6263 H   0  0  0  0  0  0  0  0  0  0  0  0
    5.9933    1.1960   -3.9355 H   0  0  0  0  0  0  0  0  0  0  0  0
    5.1037   -0.5880   -5.2840 H   0  0  0  0  0  0  0  0  0  0  0  0
    5.0375   -2.9224   -4.3858 H   0  0  0  0  0  0  0  0  0  0  0  0
    5.8918   -3.3494   -2.1203 H   0  0  0  0  0  0  0  0  0  0  0  0
  1  2  1  0
  2  3  1  0
  2 19  1  0
  3  4  1  0
  3  5  2  0
  5  6  1  0
  6  7  1  0
  6 19  1  0
  7  8  2  0
  7 18  1  0
  8  9  1  0
  9 10  2  0
 10 11  1  0
 11 12  1  0
 11 18  2  0
 12 13  2  0
 12 17  1  0
 13 14  1  0
 14 15  2  0
 15 16  1  0
 16 17  2  0
 19 20  2  0
  1 21  1  0
  1 22  1  0
  1 23  1  0
  4 24  1  0
  4 25  1  0
  5 26  1  0
  8 27  1  0
  9 28  1  0
 10 29  1  0
 13 30  1  0
 14 31  1  0
 15 32  1  0
 17 33  1  0
 18 34  1  0
 35 36  1  0
 36 37  2  0
 37 38  1  0
 38 39  2  0
 39 40  1  0
 40 41  2  0
 41 36  1  0
 35 42  1  0
 35 43  1  0
 37 44  1  0
 38 45  1  0
 39 46  1  0
 40 47  1  0
 41 48  1  0
  6 35  1  6
M  CHG  1   5   1
M  END
>  <attachment_point>  (13) 
26

>  <score>  (13) 
<NA>

$$$$
CAT-4j
     RDKit          3D

 44 47  0  0  1  0  0  0  0  0999 V2000
   11.7106   -2.3098    1.2658 C   0  0  0  0  0  0  0  0  0  0  0  0
   13.0313   -2.6523    0.7225 N   0  0  0  0  0  0  0  0  0  0  0  0
   14.2010   -2.6281    1.3773 C   0  0  0  0  0  0  0  0  0  0  0  0
   14.3777   -2.3568    2.6732 N   0  0  0  0  0  0  0  0  0  0  0  0
   15.2217   -2.9197    0.5738 N   0  0  0  0  0  0  0  0  0  0  0  0
   14.7965   -3.2519   -0.7875 C   0  0  1  0  0  0  0  0  0  0  0  0
   15.3794   -2.2443   -1.7949 C   0  0  0  0  0  0  0  0  0  0  0  0
   15.9522   -2.6550   -3.0208 C   0  0  0  0  0  0  0  0  0  0  0  0
   16.4340   -1.6937   -3.9273 C   0  0  0  0  0  0  0  0  0  0  0  0
   16.3364   -0.3224   -3.6308 C   0  0  0  0  0  0  0  0  0  0  0  0
   15.7943    0.1250   -2.4073 C   0  0  0  0  0  0  0  0  0  0  0  0
   15.6711    1.5693   -2.0915 C   0  0  0  0  0  0  0  0  0  0  0  0
   15.3832    2.0354   -0.7903 C   0  0  0  0  0  0  0  0  0  0  0  0
   15.3534    3.4188   -0.5357 C   0  0  0  0  0  0  0  0  0  0  0  0
   15.5968    4.3049   -1.5946 C   0  0  0  0  0  0  0  0  0  0  0  0
   15.8275    3.8920   -2.8511 N   0  0  0  0  0  0  0  0  0  0  0  0
   15.8598    2.5642   -3.0762 C   0  0  0  0  0  0  0  0  0  0  0  0
   15.3327   -0.8573   -1.5012 C   0  0  0  0  0  0  0  0  0  0  0  0
   13.2767   -3.0094   -0.6368 C   0  0  0  0  0  0  0  0  0  0  0  0
   12.3981   -3.0674   -1.5055 O   0  0  0  0  0  0  0  0  0  0  0  0
    0.0000    0.0000    0.0000 H   0  0  0  0  0  0  0  0  0  0  0  0
    0.0000    0.0000    0.0000 H   0  0  0  0  0  0  0  0  0  0  0  0
    0.0000    0.0000    0.0000 H   0  0  0  0  0  0  0  0  0  0  0  0
    0.0000    0.0000    0.0000 H   0  0  0  0  0  0  0  0  0  0  0  0
    0.0000    0.0000    0.0000 H   0  0  0  0  0  0  0  0  0  0  0  0
    0.0000    0.0000    0.0000 H   0  0  0  0  0  0  0  0  0  0  0  0
    0.0000    0.0000    0.0000 H   0  0  0  0  0  0  0  0  0  0  0  0
    0.0000    0.0000    0.0000 H   0  0  0  0  0  0  0  0  0  0  0  0
    0.0000    0.0000    0.0000 H   0  0  0  0  0  0  0  0  0  0  0  0
    0.0000    0.0000    0.0000 H   0  0  0  0  0  0  0  0  0  0  0  0
    0.0000    0.0000    0.0000 H   0  0  0  0  0  0  0  0  0  0  0  0
    0.0000    0.0000    0.0000 H   0  0  0  0  0  0  0  0  0  0  0  0
    0.0000    0.0000    0.0000 H   0  0  0  0  0  0  0  0  0  0  0  0
    0.0000    0.0000    0.0000 H   0  0  0  0  0  0  0  0  0  0  0  0
    6.9167   -1.5201   -0.3681 C   0  0  0  0  0  0  0  0  0  0  0  0
    5.9979   -2.4692   -0.5416 C   0  0  0  0  0  0  0  0  0  0  0  0
    4.6524   -2.0694   -0.4499 C   0  0  0  0  0  0  0  0  0  0  0  0
    4.3011   -0.7638   -0.1936 C   0  0  0  0  0  0  0  0  0  0  0  0
    5.2748    0.1453   -0.0284 N   0  0  0  0  0  0  0  0  0  0  0  0
    6.5915   -0.2234   -0.1138 C   0  0  0  0  0  0  0  0  0  0  0  0
    6.2402   -3.4881   -0.7414 H   0  0  0  0  0  0  0  0  0  0  0  0
    3.8724   -2.7882   -0.5805 H   0  0  0  0  0  0  0  0  0  0  0  0
    3.2485   -0.4615   -0.1238 H   0  0  0  0  0  0  0  0  0  0  0  0
    7.3953    0.4879    0.0150 H   0  0  0  0  0  0  0  0  0  0  0  0
  1  2  1  0
  2  3  1  0
  2 19  1  0
  3  4  1  0
  3  5  2  0
  5  6  1  0
  6  7  1  1
  6 19  1  0
  7  8  2  0
  7 18  1  0
  8  9  1  0
  9 10  2  0
 10 11  1  0
 11 12  1  0
 11 18  2  0
 12 13  2  0
 12 17  1  0
 13 14  1  0
 14 15  2  0
 15 16  1  0
 16 17  2  0
 19 20  2  0
  1 21  1  0
  1 22  1  0
  1 23  1  0
  4 24  1  0
  4 25  1  0
  5 26  1  0
  8 27  1  0
  9 28  1  0
 10 29  1  0
 13 30  1  0
 14 31  1  0
 15 32  1  0
 17 33  1  0
 18 34  1  0
 35 36  2  0
 36 37  1  0
 37 38  2  0
 38 39  1  0
 39 40  2  0
 40 35  1  0
 36 41  1  0
 37 42  1  0
 38 43  1  0
 40 44  1  0
  6 35  1  0
M  CHG  1   5   1
M  END
>  <attachment_point>  (14) 
26

>  <score>  (14) 
<NA>

$$$$
CAT-4j
     RDKit          3D

 44 47  0  0  1  0  0  0  0  0999 V2000
   11.7106   -2.3098    1.2658 C   0  0  0  0  0  0  0  0  0  0  0  0
   13.0313   -2.6523    0.7225 N   0  0  0  0  0  0  0  0  0  0  0  0
   14.2010   -2.6281    1.3773 C   0  0  0  0  0  0  0  0  0  0  0  0
   14.3777   -2.3568    2.6732 N   0  0  0  0  0  0  0  0  0  0  0  0
   15.2217   -2.9197    0.5738 N   0  0  0  0  0  0  0  0  0  0  0  0
   14.7965   -3.2519   -0.7875 C   0  0  1  0  0  0  0  0  0  0  0  0
   15.3794   -2.2443   -1.7949 C   0  0  0  0  0  0  0  0  0  0  0  0
   15.9522   -2.6550   -3.0208 C   0  0  0  0  0  0  0  0  0  0  0  0
   16.4340   -1.6937   -3.9273 C   0  0  0  0  0  0  0  0  0  0  0  0
   16.3364   -0.3224   -3.6308 C   0  0  0  0  0  0  0  0  0  0  0  0
   15.7943    0.1250   -2.4073 C   0  0  0  0  0  0  0  0  0  0  0  0
   15.6711    1.5693   -2.0915 C   0  0  0  0  0  0  0  0  0  0  0  0
   15.3832    2.0354   -0.7903 C   0  0  0  0  0  0  0  0  0  0  0  0
   15.3534    3.4188   -0.5357 C   0  0  0  0  0  0  0  0  0  0  0  0
   15.5968    4.3049   -1.5946 C   0  0  0  0  0  0  0  0  0  0  0  0
   15.8275    3.8920   -2.8511 N   0  0  0  0  0  0  0  0  0  0  0  0
   15.8598    2.5642   -3.0762 C   0  0  0  0  0  0  0  0  0  0  0  0
   15.3327   -0.8573   -1.5012 C   0  0  0  0  0  0  0  0  0  0  0  0
   13.2767   -3.0094   -0.6368 C   0  0  0  0  0  0  0  0  0  0  0  0
   12.3981   -3.0674   -1.5055 O   0  0  0  0  0  0  0  0  0  0  0  0
    0.0000    0.0000    0.0000 H   0  0  0  0  0  0  0  0  0  0  0  0
    0.0000    0.0000    0.0000 H   0  0  0  0  0  0  0  0  0  0  0  0
    0.0000    0.0000    0.0000 H   0  0  0  0  0  0  0  0  0  0  0  0
    0.0000    0.0000    0.0000 H   0  0  0  0  0  0  0  0  0  0  0  0
    0.0000    0.0000    0.0000 H   0  0  0  0  0  0  0  0  0  0  0  0
    0.0000    0.0000    0.0000 H   0  0  0  0  0  0  0  0  0  0  0  0
    0.0000    0.0000    0.0000 H   0  0  0  0  0  0  0  0  0  0  0  0
    0.0000    0.0000    0.0000 H   0  0  0  0  0  0  0  0  0  0  0  0
    0.0000    0.0000    0.0000 H   0  0  0  0  0  0  0  0  0  0  0  0
    0.0000    0.0000    0.0000 H   0  0  0  0  0  0  0  0  0  0  0  0
    0.0000    0.0000    0.0000 H   0  0  0  0  0  0  0  0  0  0  0  0
    0.0000    0.0000    0.0000 H   0  0  0  0  0  0  0  0  0  0  0  0
    0.0000    0.0000    0.0000 H   0  0  0  0  0  0  0  0  0  0  0  0
    0.0000    0.0000    0.0000 H   0  0  0  0  0  0  0  0  0  0  0  0
    6.9839   -1.5349   -0.3717 C   0  0  0  0  0  0  0  0  0  0  0  0
    6.5473   -0.2850   -0.7320 C   0  0  0  0  0  0  0  0  0  0  0  0
    5.2097    0.0282   -0.6673 C   0  0  0  0  0  0  0  0  0  0  0  0
    4.3601   -0.9138   -0.2470 N   0  0  0  0  0  0  0  0  0  0  0  0
    4.7154   -2.1527    0.1199 C   0  0  0  0  0  0  0  0  0  0  0  0
    6.0598   -2.4653    0.0541 C   0  0  0  0  0  0  0  0  0  0  0  0
    7.2603    0.4764   -1.0750 H   0  0  0  0  0  0  0  0  0  0  0  0
    4.8882    1.0298   -0.9596 H   0  0  0  0  0  0  0  0  0  0  0  0
    4.0228   -2.9049    0.4573 H   0  0  0  0  0  0  0  0  0  0  0  0
    6.3934   -3.4703    0.3461 H   0  0  0  0  0  0  0  0  0  0  0  0
  1  2  1  0
  2  3  1  0
  2 19  1  0
  3  4  1  0
  3  5  2  0
  5  6  1  0
  6  7  1  1
  6 19  1  0
  7  8  2  0
  7 18  1  0
  8  9  1  0
  9 10  2  0
 10 11  1  0
 11 12  1  0
 11 18  2  0
 12 13  2  0
 12 17  1  0
 13 14  1  0
 14 15  2  0
 15 16  1  0
 16 17  2  0
 19 20  2  0
  1 21  1  0
  1 22  1  0
  1 23  1  0
  4 24  1  0
  4 25  1  0
  5 26  1  0
  8 27  1  0
  9 28  1  0
 10 29  1  0
 13 30  1  0
 14 31  1  0
 15 32  1  0
 17 33  1  0
 18 34  1  0
 35 36  2  0
 36 37  1  0
 37 38  2  0
 38 39  1  0
 39 40  2  0
 40 35  1  0
 36 41  1  0
 37 42  1  0
 39 43  1  0
 40 44  1  0
  6 35  1  0
M  CHG  1   5   1
M  END
>  <attachment_point>  (15) 
26

>  <score>  (15) 
<NA>

$$$$
CAT-4j
     RDKit          3D

 44 46  0  0  1  0  0  0  0  0999 V2000
   11.7106   -2.3098    1.2658 C   0  0  0  0  0  0  0  0  0  0  0  0
   13.0313   -2.6523    0.7225 N   0  0  0  0  0  0  0  0  0  0  0  0
   14.2010   -2.6281    1.3773 C   0  0  0  0  0  0  0  0  0  0  0  0
   14.3777   -2.3568    2.6732 N   0  0  0  0  0  0  0  0  0  0  0  0
   15.2217   -2.9197    0.5738 N   0  0  0  0  0  0  0  0  0  0  0  0
   14.7965   -3.2519   -0.7875 C   0  0  1  0  0  0  0  0  0  0  0  0
   15.3794   -2.2443   -1.7949 C   0  0  0  0  0  0  0  0  0  0  0  0
   15.9522   -2.6550   -3.0208 C   0  0  0  0  0  0  0  0  0  0  0  0
   16.4340   -1.6937   -3.9273 C   0  0  0  0  0  0  0  0  0  0  0  0
   16.3364   -0.3224   -3.6308 C   0  0  0  0  0  0  0  0  0  0  0  0
   15.7943    0.1250   -2.4073 C   0  0  0  0  0  0  0  0  0  0  0  0
   15.6711    1.5693   -2.0915 C   0  0  0  0  0  0  0  0  0  0  0  0
   15.3832    2.0354   -0.7903 C   0  0  0  0  0  0  0  0  0  0  0  0
   15.3534    3.4188   -0.5357 C   0  0  0  0  0  0  0  0  0  0  0  0
   15.5968    4.3049   -1.5946 C   0  0  0  0  0  0  0  0  0  0  0  0
   15.8275    3.8920   -2.8511 N   0  0  0  0  0  0  0  0  0  0  0  0
   15.8598    2.5642   -3.0762 C   0  0  0  0  0  0  0  0  0  0  0  0
   15.3327   -0.8573   -1.5012 C   0  0  0  0  0  0  0  0  0  0  0  0
   13.2767   -3.0094   -0.6368 C   0  0  0  0  0  0  0  0  0  0  0  0
   12.3981   -3.0674   -1.5055 O   0  0  0  0  0  0  0  0  0  0  0  0
    0.0000    0.0000    0.0000 H   0  0  0  0  0  0  0  0  0  0  0  0
    0.0000    0.0000    0.0000 H   0  0  0  0  0  0  0  0  0  0  0  0
    0.0000    0.0000    0.0000 H   0  0  0  0  0  0  0  0  0  0  0  0
    0.0000    0.0000    0.0000 H   0  0  0  0  0  0  0  0  0  0  0  0
    0.0000    0.0000    0.0000 H   0  0  0  0  0  0  0  0  0  0  0  0
    0.0000    0.0000    0.0000 H   0  0  0  0  0  0  0  0  0  0  0  0
    0.0000    0.0000    0.0000 H   0  0  0  0  0  0  0  0  0  0  0  0
    0.0000    0.0000    0.0000 H   0  0  0  0  0  0  0  0  0  0  0  0
    0.0000    0.0000    0.0000 H   0  0  0  0  0  0  0  0  0  0  0  0
    0.0000    0.0000    0.0000 H   0  0  0  0  0  0  0  0  0  0  0  0
    0.0000    0.0000    0.0000 H   0  0  0  0  0  0  0  0  0  0  0  0
    0.0000    0.0000    0.0000 H   0  0  0  0  0  0  0  0  0  0  0  0
    0.0000    0.0000    0.0000 H   0  0  0  0  0  0  0  0  0  0  0  0
    0.0000    0.0000    0.0000 H   0  0  0  0  0  0  0  0  0  0  0  0
    6.9945   -1.5372   -0.3723 C   0  0  0  0  0  0  0  0  0  0  0  0
    6.7940   -0.4605    0.6839 C   0  0  0  0  0  0  0  0  0  0  0  0
    7.2786   -0.9507    2.0324 C   0  0  0  0  0  0  0  0  0  0  0  0
    6.4235   -2.4318   -0.0602 H   0  0  0  0  0  0  0  0  0  0  0  0
    6.6437   -1.2317   -1.3544 H   0  0  0  0  0  0  0  0  0  0  0  0
    5.7231   -0.1529    0.7241 H   0  0  0  0  0  0  0  0  0  0  0  0
    7.3758    0.4351    0.3956 H   0  0  0  0  0  0  0  0  0  0  0  0
    6.4646   -0.8932    2.8054 H   0  0  0  0  0  0  0  0  0  0  0  0
    8.1742   -0.3687    2.3581 H   0  0  0  0  0  0  0  0  0  0  0  0
    7.5951   -2.0092    1.9238 H   0  0  0  0  0  0  0  0  0  0  0  0
  1  2  1  0
  2  3  1  0
  2 19  1  0
  3  4  1  0
  3  5  2  0
  5  6  1  0
  6  7  1  0
  6 19  1  0
  7  8  2  0
  7 18  1  0
  8  9  1  0
  9 10  2  0
 10 11  1  0
 11 12  1  0
 11 18  2  0
 12 13  2  0
 12 17  1  0
 13 14  1  0
 14 15  2  0
 15 16  1  0
 16 17  2  0
 19 20  2  0
  1 21  1  0
  1 22  1  0
  1 23  1  0
  4 24  1  0
  4 25  1  0
  5 26  1  0
  8 27  1  0
  9 28  1  0
 10 29  1  0
 13 30  1  0
 14 31  1  0
 15 32  1  0
 17 33  1  0
 18 34  1  0
 35 36  1  0
 36 37  1  0
 35 38  1  0
 35 39  1  0
 36 40  1  0
 36 41  1  0
 37 42  1  0
 37 43  1  0
 37 44  1  0
  6 35  1  6
M  CHG  1   5   1
M  END
>  <attachment_point>  (16) 
26

>  <score>  (16) 
<NA>

$$$$
CAT-4j
     RDKit          3D

 43 45  0  0  1  0  0  0  0  0999 V2000
   11.7106   -2.3098    1.2658 C   0  0  0  0  0  0  0  0  0  0  0  0
   13.0313   -2.6523    0.7225 N   0  0  0  0  0  0  0  0  0  0  0  0
   14.2010   -2.6281    1.3773 C   0  0  0  0  0  0  0  0  0  0  0  0
   14.3777   -2.3568    2.6732 N   0  0  0  0  0  0  0  0  0  0  0  0
   15.2217   -2.9197    0.5738 N   0  0  0  0  0  0  0  0  0  0  0  0
   14.7965   -3.2519   -0.7875 C   0  0  1  0  0  0  0  0  0  0  0  0
   15.3794   -2.2443   -1.7949 C   0  0  0  0  0  0  0  0  0  0  0  0
   15.9522   -2.6550   -3.0208 C   0  0  0  0  0  0  0  0  0  0  0  0
   16.4340   -1.6937   -3.9273 C   0  0  0  0  0  0  0  0  0  0  0  0
   16.3364   -0.3224   -3.6308 C   0  0  0  0  0  0  0  0  0  0  0  0
   15.7943    0.1250   -2.4073 C   0  0  0  0  0  0  0  0  0  0  0  0
   15.6711    1.5693   -2.0915 C   0  0  0  0  0  0  0  0  0  0  0  0
   15.3832    2.0354   -0.7903 C   0  0  0  0  0  0  0  0  0  0  0  0
   15.3534    3.4188   -0.5357 C   0  0  0  0  0  0  0  0  0  0  0  0
   15.5968    4.3049   -1.5946 C   0  0  0  0  0  0  0  0  0  0  0  0
   15.8275    3.8920   -2.8511 N   0  0  0  0  0  0  0  0  0  0  0  0
   15.8598    2.5642   -3.0762 C   0  0  0  0  0  0  0  0  0  0  0  0
   15.3327   -0.8573   -1.5012 C   0  0  0  0  0  0  0  0  0  0  0  0
   13.2767   -3.0094   -0.6368 C   0  0  0  0  0  0  0  0  0  0  0  0
   12.3981   -3.0674   -1.5055 O   0  0  0  0  0  0  0  0  0  0  0  0
    0.0000    0.0000    0.0000 H   0  0  0  0  0  0  0  0  0  0  0  0
    0.0000    0.0000    0.0000 H   0  0  0  0  0  0  0  0  0  0  0  0
    0.0000    0.0000    0.0000 H   0  0  0  0  0  0  0  0  0  0  0  0
    0.0000    0.0000    0.0000 H   0  0  0  0  0  0  0  0  0  0  0  0
    0.0000    0.0000    0.0000 H   0  0  0  0  0  0  0  0  0  0  0  0
    0.0000    0.0000    0.0000 H   0  0  0  0  0  0  0  0  0  0  0  0
    0.0000    0.0000    0.0000 H   0  0  0  0  0  0  0  0  0  0  0  0
    0.0000    0.0000    0.0000 H   0  0  0  0  0  0  0  0  0  0  0  0
    0.0000    0.0000    0.0000 H   0  0  0  0  0  0  0  0  0  0  0  0
    0.0000    0.0000    0.0000 H   0  0  0  0  0  0  0  0  0  0  0  0
    0.0000    0.0000    0.0000 H   0  0  0  0  0  0  0  0  0  0  0  0
    0.0000    0.0000    0.0000 H   0  0  0  0  0  0  0  0  0  0  0  0
    0.0000    0.0000    0.0000 H   0  0  0  0  0  0  0  0  0  0  0  0
    0.0000    0.0000    0.0000 H   0  0  0  0  0  0  0  0  0  0  0  0
    7.0943   -1.5592   -0.3776 N   0  0  0  0  0  0  0  0  0  0  0  0
    6.7077   -0.1590   -0.6010 C   0  0  0  0  0  0  0  0  0  0  0  0
    6.0134   -2.2137    0.3204 C   0  0  0  0  0  0  0  0  0  0  0  0
    7.5027    0.3666   -1.1293 H   0  0  0  0  0  0  0  0  0  0  0  0
    5.7445   -0.2135   -1.1463 H   0  0  0  0  0  0  0  0  0  0  0  0
    6.5151    0.3172    0.3751 H   0  0  0  0  0  0  0  0  0  0  0  0
    5.8406   -3.2560   -0.0217 H   0  0  0  0  0  0  0  0  0  0  0  0
    6.2690   -2.2069    1.4039 H   0  0  0  0  0  0  0  0  0  0  0  0
    5.0779   -1.6047    0.2275 H   0  0  0  0  0  0  0  0  0  0  0  0
  1  2  1  0
  2  3  1  0
  2 19  1  0
  3  4  1  0
  3  5  2  0
  5  6  1  0
  6  7  1  0
  6 19  1  0
  7  8  2  0
  7 18  1  0
  8  9  1  0
  9 10  2  0
 10 11  1  0
 11 12  1  0
 11 18  2  0
 12 13  2  0
 12 17  1  0
 13 14  1  0
 14 15  2  0
 15 16  1  0
 16 17  2  0
 19 20  2  0
  1 21  1  0
  1 22  1  0
  1 23  1  0
  4 24  1  0
  4 25  1  0
  5 26  1  0
  8 27  1  0
  9 28  1  0
 10 29  1  0
 13 30  1  0
 14 31  1  0
 15 32  1  0
 17 33  1  0
 18 34  1  0
 35 36  1  0
 35 37  1  0
 36 38  1  0
 36 39  1  0
 36 40  1  0
 37 41  1  0
 37 42  1  0
 37 43  1  0
  6 35  1  6
M  CHG  1   5   1
M  END
>  <attachment_point>  (17) 
26

>  <score>  (17) 
<NA>

$$$$
CAT-4j
     RDKit          3D

 42 44  0  0  1  0  0  0  0  0999 V2000
   11.7106   -2.3098    1.2658 C   0  0  0  0  0  0  0  0  0  0  0  0
   13.0313   -2.6523    0.7225 N   0  0  0  0  0  0  0  0  0  0  0  0
   14.2010   -2.6281    1.3773 C   0  0  0  0  0  0  0  0  0  0  0  0
   14.3777   -2.3568    2.6732 N   0  0  0  0  0  0  0  0  0  0  0  0
   15.2217   -2.9197    0.5738 N   0  0  0  0  0  0  0  0  0  0  0  0
   14.7965   -3.2519   -0.7875 C   0  0  1  0  0  0  0  0  0  0  0  0
   15.3794   -2.2443   -1.7949 C   0  0  0  0  0  0  0  0  0  0  0  0
   15.9522   -2.6550   -3.0208 C   0  0  0  0  0  0  0  0  0  0  0  0
   16.4340   -1.6937   -3.9273 C   0  0  0  0  0  0  0  0  0  0  0  0
   16.3364   -0.3224   -3.6308 C   0  0  0  0  0  0  0  0  0  0  0  0
   15.7943    0.1250   -2.4073 C   0  0  0  0  0  0  0  0  0  0  0  0
   15.6711    1.5693   -2.0915 C   0  0  0  0  0  0  0  0  0  0  0  0
   15.3832    2.0354   -0.7903 C   0  0  0  0  0  0  0  0  0  0  0  0
   15.3534    3.4188   -0.5357 C   0  0  0  0  0  0  0  0  0  0  0  0
   15.5968    4.3049   -1.5946 C   0  0  0  0  0  0  0  0  0  0  0  0
   15.8275    3.8920   -2.8511 N   0  0  0  0  0  0  0  0  0  0  0  0
   15.8598    2.5642   -3.0762 C   0  0  0  0  0  0  0  0  0  0  0  0
   15.3327   -0.8573   -1.5012 C   0  0  0  0  0  0  0  0  0  0  0  0
   13.2767   -3.0094   -0.6368 C   0  0  0  0  0  0  0  0  0  0  0  0
   12.3981   -3.0674   -1.5055 O   0  0  0  0  0  0  0  0  0  0  0  0
    0.0000    0.0000    0.0000 H   0  0  0  0  0  0  0  0  0  0  0  0
    0.0000    0.0000    0.0000 H   0  0  0  0  0  0  0  0  0  0  0  0
    0.0000    0.0000    0.0000 H   0  0  0  0  0  0  0  0  0  0  0  0
    0.0000    0.0000    0.0000 H   0  0  0  0  0  0  0  0  0  0  0  0
    0.0000    0.0000    0.0000 H   0  0  0  0  0  0  0  0  0  0  0  0
    0.0000    0.0000    0.0000 H   0  0  0  0  0  0  0  0  0  0  0  0
    0.0000    0.0000    0.0000 H   0  0  0  0  0  0  0  0  0  0  0  0
    0.0000    0.0000    0.0000 H   0  0  0  0  0  0  0  0  0  0  0  0
    0.0000    0.0000    0.0000 H   0  0  0  0  0  0  0  0  0  0  0  0
    0.0000    0.0000    0.0000 H   0  0  0  0  0  0  0  0  0  0  0  0
    0.0000    0.0000    0.0000 H   0  0  0  0  0  0  0  0  0  0  0  0
    0.0000    0.0000    0.0000 H   0  0  0  0  0  0  0  0  0  0  0  0
    0.0000    0.0000    0.0000 H   0  0  0  0  0  0  0  0  0  0  0  0
    0.0000    0.0000    0.0000 H   0  0  0  0  0  0  0  0  0  0  0  0
    7.0686   -1.5535   -0.3762 O   0  0  0  0  0  0  0  0  0  0  0  0
    6.2345   -2.6319   -0.6964 C   0  0  0  0  0  0  0  0  0  0  0  0
    4.7725   -2.2092   -0.5906 C   0  0  0  0  0  0  0  0  0  0  0  0
    6.3659   -3.4194    0.0966 H   0  0  0  0  0  0  0  0  0  0  0  0
    6.4732   -3.0714   -1.6751 H   0  0  0  0  0  0  0  0  0  0  0  0
    4.4027   -1.7449   -1.5122 H   0  0  0  0  0  0  0  0  0  0  0  0
    4.7569   -1.4111    0.1975 H   0  0  0  0  0  0  0  0  0  0  0  0
    4.1517   -3.0859   -0.3091 H   0  0  0  0  0  0  0  0  0  0  0  0
  1  2  1  0
  2  3  1  0
  2 19  1  0
  3  4  1  0
  3  5  2  0
  5  6  1  0
  6  7  1  0
  6 19  1  0
  7  8  2  0
  7 18  1  0
  8  9  1  0
  9 10  2  0
 10 11  1  0
 11 12  1  0
 11 18  2  0
 12 13  2  0
 12 17  1  0
 13 14  1  0
 14 15  2  0
 15 16  1  0
 16 17  2  0
 19 20  2  0
  1 21  1  0
  1 22  1  0
  1 23  1  0
  4 24  1  0
  4 25  1  0
  5 26  1  0
  8 27  1  0
  9 28  1  0
 10 29  1  0
 13 30  1  0
 14 31  1  0
 15 32  1  0
 17 33  1  0
 18 34  1  0
 35 36  1  0
 36 37  1  0
 36 38  1  0
 36 39  1  0
 37 40  1  0
 37 41  1  0
 37 42  1  0
  6 35  1  6
M  CHG  1   5   1
M  END
>  <attachment_point>  (18) 
26

>  <score>  (18) 
<NA>

$$$$
CAT-4j
     RDKit          3D

 39 41  0  0  1  0  0  0  0  0999 V2000
   11.7106   -2.3098    1.2658 C   0  0  0  0  0  0  0  0  0  0  0  0
   13.0313   -2.6523    0.7225 N   0  0  0  0  0  0  0  0  0  0  0  0
   14.2010   -2.6281    1.3773 C   0  0  0  0  0  0  0  0  0  0  0  0
   14.3777   -2.3568    2.6732 N   0  0  0  0  0  0  0  0  0  0  0  0
   15.2217   -2.9197    0.5738 N   0  0  0  0  0  0  0  0  0  0  0  0
   14.7965   -3.2519   -0.7875 C   0  0  1  0  0  0  0  0  0  0  0  0
   15.3794   -2.2443   -1.7949 C   0  0  0  0  0  0  0  0  0  0  0  0
   15.9522   -2.6550   -3.0208 C   0  0  0  0  0  0  0  0  0  0  0  0
   16.4340   -1.6937   -3.9273 C   0  0  0  0  0  0  0  0  0  0  0  0
   16.3364   -0.3224   -3.6308 C   0  0  0  0  0  0  0  0  0  0  0  0
   15.7943    0.1250   -2.4073 C   0  0  0  0  0  0  0  0  0  0  0  0
   15.6711    1.5693   -2.0915 C   0  0  0  0  0  0  0  0  0  0  0  0
   15.3832    2.0354   -0.7903 C   0  0  0  0  0  0  0  0  0  0  0  0
   15.3534    3.4188   -0.5357 C   0  0  0  0  0  0  0  0  0  0  0  0
   15.5968    4.3049   -1.5946 C   0  0  0  0  0  0  0  0  0  0  0  0
   15.8275    3.8920   -2.8511 N   0  0  0  0  0  0  0  0  0  0  0  0
   15.8598    2.5642   -3.0762 C   0  0  0  0  0  0  0  0  0  0  0  0
   15.3327   -0.8573   -1.5012 C   0  0  0  0  0  0  0  0  0  0  0  0
   13.2767   -3.0094   -0.6368 C   0  0  0  0  0  0  0  0  0  0  0  0
   12.3981   -3.0674   -1.5055 O   0  0  0  0  0  0  0  0  0  0  0  0
    0.0000    0.0000    0.0000 H   0  0  0  0  0  0  0  0  0  0  0  0
    0.0000    0.0000    0.0000 H   0  0  0  0  0  0  0  0  0  0  0  0
    0.0000    0.0000    0.0000 H   0  0  0  0  0  0  0  0  0  0  0  0
    0.0000    0.0000    0.0000 H   0  0  0  0  0  0  0  0  0  0  0  0
    0.0000    0.0000    0.0000 H   0  0  0  0  0  0  0  0  0  0  0  0
    0.0000    0.0000    0.0000 H   0  0  0  0  0  0  0  0  0  0  0  0
    0.0000    0.0000    0.0000 H   0  0  0  0  0  0  0  0  0  0  0  0
    0.0000    0.0000    0.0000 H   0  0  0  0  0  0  0  0  0  0  0  0
    0.0000    0.0000    0.0000 H   0  0  0  0  0  0  0  0  0  0  0  0
    0.0000    0.0000    0.0000 H   0  0  0  0  0  0  0  0  0  0  0  0
    0.0000    0.0000    0.0000 H   0  0  0  0  0  0  0  0  0  0  0  0
    0.0000    0.0000    0.0000 H   0  0  0  0  0  0  0  0  0  0  0  0
    0.0000    0.0000    0.0000 H   0  0  0  0  0  0  0  0  0  0  0  0
    0.0000    0.0000    0.0000 H   0  0  0  0  0  0  0  0  0  0  0  0
    6.9653   -1.5308   -0.3707 C   0  0  0  0  0  0  0  0  0  0  0  0
    6.5872   -0.2447    0.0231 N   0  0  0  0  0  0  0  0  0  0  0  0
    6.2188   -2.4714   -0.6741 O   0  0  0  0  0  0  0  0  0  0  0  0
    6.8245    0.5710   -0.5620 H   0  0  0  0  0  0  0  0  0  0  0  0
    6.0675   -0.1031    0.9034 H   0  0  0  0  0  0  0  0  0  0  0  0
  1  2  1  0
  2  3  1  0
  2 19  1  0
  3  4  1  0
  3  5  2  0
  5  6  1  0
  6  7  1  0
  6 19  1  0
  7  8  2  0
  7 18  1  0
  8  9  1  0
  9 10  2  0
 10 11  1  0
 11 12  1  0
 11 18  2  0
 12 13  2  0
 12 17  1  0
 13 14  1  0
 14 15  2  0
 15 16  1  0
 16 17  2  0
 19 20  2  0
  1 21  1  0
  1 22  1  0
  1 23  1  0
  4 24  1  0
  4 25  1  0
  5 26  1  0
  8 27  1  0
  9 28  1  0
 10 29  1  0
 13 30  1  0
 14 31  1  0
 15 32  1  0
 17 33  1  0
 18 34  1  0
 35 36  1  0
 35 37  2  0
 36 38  1  0
 36 39  1  0
  6 35  1  6
M  CHG  1   5   1
M  END
>  <attachment_point>  (19) 
26

>  <score>  (19) 
<NA>

$$$$
CAT-4j
     RDKit          3D

 39 41  0  0  1  0  0  0  0  0999 V2000
   11.7106   -2.3098    1.2658 C   0  0  0  0  0  0  0  0  0  0  0  0
   13.0313   -2.6523    0.7225 N   0  0  0  0  0  0  0  0  0  0  0  0
   14.2010   -2.6281    1.3773 C   0  0  0  0  0  0  0  0  0  0  0  0
   14.3777   -2.3568    2.6732 N   0  0  0  0  0  0  0  0  0  0  0  0
   15.2217   -2.9197    0.5738 N   0  0  0  0  0  0  0  0  0  0  0  0
   14.7965   -3.2519   -0.7875 C   0  0  1  0  0  0  0  0  0  0  0  0
   15.3794   -2.2443   -1.7949 C   0  0  0  0  0  0  0  0  0  0  0  0
   15.9522   -2.6550   -3.0208 C   0  0  0  0  0  0  0  0  0  0  0  0
   16.4340   -1.6937   -3.9273 C   0  0  0  0  0  0  0  0  0  0  0  0
   16.3364   -0.3224   -3.6308 C   0  0  0  0  0  0  0  0  0  0  0  0
   15.7943    0.1250   -2.4073 C   0  0  0  0  0  0  0  0  0  0  0  0
   15.6711    1.5693   -2.0915 C   0  0  0  0  0  0  0  0  0  0  0  0
   15.3832    2.0354   -0.7903 C   0  0  0  0  0  0  0  0  0  0  0  0
   15.3534    3.4188   -0.5357 C   0  0  0  0  0  0  0  0  0  0  0  0
   15.5968    4.3049   -1.5946 C   0  0  0  0  0  0  0  0  0  0  0  0
   15.8275    3.8920   -2.8511 N   0  0  0  0  0  0  0  0  0  0  0  0
   15.8598    2.5642   -3.0762 C   0  0  0  0  0  0  0  0  0  0  0  0
   15.3327   -0.8573   -1.5012 C   0  0  0  0  0  0  0  0  0  0  0  0
   13.2767   -3.0094   -0.6368 C   0  0  0  0  0  0  0  0  0  0  0  0
   12.3981   -3.0674   -1.5055 O   0  0  0  0  0  0  0  0  0  0  0  0
    0.0000    0.0000    0.0000 H   0  0  0  0  0  0  0  0  0  0  0  0
    0.0000    0.0000    0.0000 H   0  0  0  0  0  0  0  0  0  0  0  0
    0.0000    0.0000    0.0000 H   0  0  0  0  0  0  0  0  0  0  0  0
    0.0000    0.0000    0.0000 H   0  0  0  0  0  0  0  0  0  0  0  0
    0.0000    0.0000    0.0000 H   0  0  0  0  0  0  0  0  0  0  0  0
    0.0000    0.0000    0.0000 H   0  0  0  0  0  0  0  0  0  0  0  0
    0.0000    0.0000    0.0000 H   0  0  0  0  0  0  0  0  0  0  0  0
    0.0000    0.0000    0.0000 H   0  0  0  0  0  0  0  0  0  0  0  0
    0.0000    0.0000    0.0000 H   0  0  0  0  0  0  0  0  0  0  0  0
    0.0000    0.0000    0.0000 H   0  0  0  0  0  0  0  0  0  0  0  0
    0.0000    0.0000    0.0000 H   0  0  0  0  0  0  0  0  0  0  0  0
    0.0000    0.0000    0.0000 H   0  0  0  0  0  0  0  0  0  0  0  0
    0.0000    0.0000    0.0000 H   0  0  0  0  0  0  0  0  0  0  0  0
    0.0000    0.0000    0.0000 H   0  0  0  0  0  0  0  0  0  0  0  0
    7.0289   -1.5448   -0.3741 C   0  0  0  0  0  0  0  0  0  0  0  0
    6.5518   -1.1096   -1.6275 O   0  0  0  0  0  0  0  0  0  0  0  0
    6.3605   -2.3954   -0.0834 H   0  0  0  0  0  0  0  0  0  0  0  0
    6.8013   -0.7357    0.3645 H   0  0  0  0  0  0  0  0  0  0  0  0
    5.5574   -1.1591   -1.5941 H   0  0  0  0  0  0  0  0  0  0  0  0
  1  2  1  0
  2  3  1  0
  2 19  1  0
  3  4  1  0
  3  5  2  0
  5  6  1  0
  6  7  1  0
  6 19  1  0
  7  8  2  0
  7 18  1  0
  8  9  1  0
  9 10  2  0
 10 11  1  0
 11 12  1  0
 11 18  2  0
 12 13  2  0
 12 17  1  0
 13 14  1  0
 14 15  2  0
 15 16  1  0
 16 17  2  0
 19 20  2  0
  1 21  1  0
  1 22  1  0
  1 23  1  0
  4 24  1  0
  4 25  1  0
  5 26  1  0
  8 27  1  0
  9 28  1  0
 10 29  1  0
 13 30  1  0
 14 31  1  0
 15 32  1  0
 17 33  1  0
 18 34  1  0
 35 36  1  0
 35 37  1  0
 35 38  1  0
 36 39  1  0
  6 35  1  6
M  CHG  1   5   1
M  END
>  <attachment_point>  (20) 
26

>  <score>  (20) 
<NA>

$$$$
CAT-4j
     RDKit          3D

 48 51  0  0  1  0  0  0  0  0999 V2000
   11.7106   -2.3098    1.2658 C   0  0  0  0  0  0  0  0  0  0  0  0
   13.0313   -2.6523    0.7225 N   0  0  0  0  0  0  0  0  0  0  0  0
   14.2010   -2.6281    1.3773 C   0  0  0  0  0  0  0  0  0  0  0  0
   14.3777   -2.3568    2.6732 N   0  0  0  0  0  0  0  0  0  0  0  0
   15.2217   -2.9197    0.5738 N   0  0  0  0  0  0  0  0  0  0  0  0
   14.7965   -3.2519   -0.7875 C   0  0  1  0  0  0  0  0  0  0  0  0
   15.3794   -2.2443   -1.7949 C   0  0  0  0  0  0  0  0  0  0  0  0
   15.9522   -2.6550   -3.0208 C   0  0  0  0  0  0  0  0  0  0  0  0
   16.4340   -1.6937   -3.9273 C   0  0  0  0  0  0  0  0  0  0  0  0
   16.3364   -0.3224   -3.6308 C   0  0  0  0  0  0  0  0  0  0  0  0
   15.7943    0.1250   -2.4073 C   0  0  0  0  0  0  0  0  0  0  0  0
   15.6711    1.5693   -2.0915 C   0  0  0  0  0  0  0  0  0  0  0  0
   15.3832    2.0354   -0.7903 C   0  0  0  0  0  0  0  0  0  0  0  0
   15.3534    3.4188   -0.5357 C   0  0  0  0  0  0  0  0  0  0  0  0
   15.5968    4.3049   -1.5946 C   0  0  0  0  0  0  0  0  0  0  0  0
   15.8275    3.8920   -2.8511 N   0  0  0  0  0  0  0  0  0  0  0  0
   15.8598    2.5642   -3.0762 C   0  0  0  0  0  0  0  0  0  0  0  0
   15.3327   -0.8573   -1.5012 C   0  0  0  0  0  0  0  0  0  0  0  0
   13.2767   -3.0094   -0.6368 C   0  0  0  0  0  0  0  0  0  0  0  0
   12.3981   -3.0674   -1.5055 O   0  0  0  0  0  0  0  0  0  0  0  0
    0.0000    0.0000    0.0000 H   0  0  0  0  0  0  0  0  0  0  0  0
    0.0000    0.0000    0.0000 H   0  0  0  0  0  0  0  0  0  0  0  0
    0.0000    0.0000    0.0000 H   0  0  0  0  0  0  0  0  0  0  0  0
    0.0000    0.0000    0.0000 H   0  0  0  0  0  0  0  0  0  0  0  0
    0.0000    0.0000    0.0000 H   0  0  0  0  0  0  0  0  0  0  0  0
    0.0000    0.0000    0.0000 H   0  0  0  0  0  0  0  0  0  0  0  0
    0.0000    0.0000    0.0000 H   0  0  0  0  0  0  0  0  0  0  0  0
    0.0000    0.0000    0.0000 H   0  0  0  0  0  0  0  0  0  0  0  0
    0.0000    0.0000    0.0000 H   0  0  0  0  0  0  0  0  0  0  0  0
    0.0000    0.0000    0.0000 H   0  0  0  0  0  0  0  0  0  0  0  0
    0.0000    0.0000    0.0000 H   0  0  0  0  0  0  0  0  0  0  0  0
    0.0000    0.0000    0.0000 H   0  0  0  0  0  0  0  0  0  0  0  0
    0.0000    0.0000    0.0000 H   0  0  0  0  0  0  0  0  0  0  0  0
    0.0000    0.0000    0.0000 H   0  0  0  0  0  0  0  0  0  0  0  0
    7.1055   -1.5616   -0.3782 N   0  0  0  0  0  0  0  0  0  0  0  0
    6.2857   -1.0162   -1.4713 C   0  0  0  0  0  0  0  0  0  0  0  0
    6.1112    0.4548   -1.1654 C   0  0  0  0  0  0  0  0  0  0  0  0
    7.0129    0.8943   -0.1846 O   0  0  0  0  0  0  0  0  0  0  0  0
    6.6066    0.2985    1.0261 C   0  0  0  0  0  0  0  0  0  0  0  0
    6.3656   -1.1893    0.8394 C   0  0  0  0  0  0  0  0  0  0  0  0
    6.7243   -1.2118   -2.4547 H   0  0  0  0  0  0  0  0  0  0  0  0
    5.3045   -1.5669   -1.3699 H   0  0  0  0  0  0  0  0  0  0  0  0
    6.2486    1.0651   -2.0786 H   0  0  0  0  0  0  0  0  0  0  0  0
    5.0960    0.6102   -0.7250 H   0  0  0  0  0  0  0  0  0  0  0  0
    5.6474    0.7865    1.3376 H   0  0  0  0  0  0  0  0  0  0  0  0
    7.3814    0.4821    1.8137 H   0  0  0  0  0  0  0  0  0  0  0  0
    5.2933   -1.3771    0.6039 H   0  0  0  0  0  0  0  0  0  0  0  0
    6.7197   -1.7959    1.6733 H   0  0  0  0  0  0  0  0  0  0  0  0
  1  2  1  0
  2  3  1  0
  2 19  1  0
  3  4  1  0
  3  5  2  0
  5  6  1  0
  6  7  1  0
  6 19  1  0
  7  8  2  0
  7 18  1  0
  8  9  1  0
  9 10  2  0
 10 11  1  0
 11 12  1  0
 11 18  2  0
 12 13  2  0
 12 17  1  0
 13 14  1  0
 14 15  2  0
 15 16  1  0
 16 17  2  0
 19 20  2  0
  1 21  1  0
  1 22  1  0
  1 23  1  0
  4 24  1  0
  4 25  1  0
  5 26  1  0
  8 27  1  0
  9 28  1  0
 10 29  1  0
 13 30  1  0
 14 31  1  0
 15 32  1  0
 17 33  1  0
 18 34  1  0
 35 36  1  0
 36 37  1  0
 37 38  1  0
 38 39  1  0
 39 40  1  0
 40 35  1  0
 36 41  1  0
 36 42  1  0
 37 43  1  0
 37 44  1  0
 39 45  1  0
 39 46  1  0
 40 47  1  0
 40 48  1  0
  6 35  1  6
M  CHG  1   5   1
M  END
>  <attachment_point>  (21) 
26

>  <score>  (21) 
<NA>

$$$$
CAT-4j
     RDKit          3D

 37 39  0  0  1  0  0  0  0  0999 V2000
   11.7106   -2.3098    1.2658 C   0  0  0  0  0  0  0  0  0  0  0  0
   13.0313   -2.6523    0.7225 N   0  0  0  0  0  0  0  0  0  0  0  0
   14.2010   -2.6281    1.3773 C   0  0  0  0  0  0  0  0  0  0  0  0
   14.3777   -2.3568    2.6732 N   0  0  0  0  0  0  0  0  0  0  0  0
   15.2217   -2.9197    0.5738 N   0  0  0  0  0  0  0  0  0  0  0  0
   14.7965   -3.2519   -0.7875 C   0  0  1  0  0  0  0  0  0  0  0  0
   15.3794   -2.2443   -1.7949 C   0  0  0  0  0  0  0  0  0  0  0  0
   15.9522   -2.6550   -3.0208 C   0  0  0  0  0  0  0  0  0  0  0  0
   16.4340   -1.6937   -3.9273 C   0  0  0  0  0  0  0  0  0  0  0  0
   16.3364   -0.3224   -3.6308 C   0  0  0  0  0  0  0  0  0  0  0  0
   15.7943    0.1250   -2.4073 C   0  0  0  0  0  0  0  0  0  0  0  0
   15.6711    1.5693   -2.0915 C   0  0  0  0  0  0  0  0  0  0  0  0
   15.3832    2.0354   -0.7903 C   0  0  0  0  0  0  0  0  0  0  0  0
   15.3534    3.4188   -0.5357 C   0  0  0  0  0  0  0  0  0  0  0  0
   15.5968    4.3049   -1.5946 C   0  0  0  0  0  0  0  0  0  0  0  0
   15.8275    3.8920   -2.8511 N   0  0  0  0  0  0  0  0  0  0  0  0
   15.8598    2.5642   -3.0762 C   0  0  0  0  0  0  0  0  0  0  0  0
   15.3327   -0.8573   -1.5012 C   0  0  0  0  0  0  0  0  0  0  0  0
   13.2767   -3.0094   -0.6368 C   0  0  0  0  0  0  0  0  0  0  0  0
   12.3981   -3.0674   -1.5055 O   0  0  0  0  0  0  0  0  0  0  0  0
    0.0000    0.0000    0.0000 H   0  0  0  0  0  0  0  0  0  0  0  0
    0.0000    0.0000    0.0000 H   0  0  0  0  0  0  0  0  0  0  0  0
    0.0000    0.0000    0.0000 H   0  0  0  0  0  0  0  0  0  0  0  0
    0.0000    0.0000    0.0000 H   0  0  0  0  0  0  0  0  0  0  0  0
    0.0000    0.0000    0.0000 H   0  0  0  0  0  0  0  0  0  0  0  0
    0.0000    0.0000    0.0000 H   0  0  0  0  0  0  0  0  0  0  0  0
    0.0000    0.0000    0.0000 H   0  0  0  0  0  0  0  0  0  0  0  0
    0.0000    0.0000    0.0000 H   0  0  0  0  0  0  0  0  0  0  0  0
    0.0000    0.0000    0.0000 H   0  0  0  0  0  0  0  0  0  0  0  0
    0.0000    0.0000    0.0000 H   0  0  0  0  0  0  0  0  0  0  0  0
    0.0000    0.0000    0.0000 H   0  0  0  0  0  0  0  0  0  0  0  0
    0.0000    0.0000    0.0000 H   0  0  0  0  0  0  0  0  0  0  0  0
    0.0000    0.0000    0.0000 H   0  0  0  0  0  0  0  0  0  0  0  0
    0.0000    0.0000    0.0000 H   0  0  0  0  0  0  0  0  0  0  0  0
    6.9890   -1.5360   -0.3720 N   0  0  0  0  0  4  0  0  0  0  0  0
    6.2085   -2.2316    0.2738 O   0  0  0  0  0  0  0  0  0  0  0  0
    6.4891   -0.4421   -1.0311 O   0  0  0  0  0  1  0  0  0  0  0  0
  1  2  1  0
  2  3  1  0
  2 19  1  0
  3  4  1  0
  3  5  2  0
  5  6  1  0
  6  7  1  0
  6 19  1  0
  7  8  2  0
  7 18  1  0
  8  9  1  0
  9 10  2  0
 10 11  1  0
 11 12  1  0
 11 18  2  0
 12 13  2  0
 12 17  1  0
 13 14  1  0
 14 15  2  0
 15 16  1  0
 16 17  2  0
 19 20  2  0
  1 21  1  0
  1 22  1  0
  1 23  1  0
  4 24  1  0
  4 25  1  0
  5 26  1  0
  8 27  1  0
  9 28  1  0
 10 29  1  0
 13 30  1  0
 14 31  1  0
 15 32  1  0
 17 33  1  0
 18 34  1  0
 35 36  2  0
 35 37  1  0
  6 35  1  6
M  CHG  3   5   1  35   1  37  -1
M  END
>  <attachment_point>  (22) 
26

>  <score>  (22) 
<NA>

$$$$
CAT-4j
     RDKit          3D

 47 49  0  0  1  0  0  0  0  0999 V2000
   11.7106   -2.3098    1.2658 C   0  0  0  0  0  0  0  0  0  0  0  0
   13.0313   -2.6523    0.7225 N   0  0  0  0  0  0  0  0  0  0  0  0
   14.2010   -2.6281    1.3773 C   0  0  0  0  0  0  0  0  0  0  0  0
   14.3777   -2.3568    2.6732 N   0  0  0  0  0  0  0  0  0  0  0  0
   15.2217   -2.9197    0.5738 N   0  0  0  0  0  0  0  0  0  0  0  0
   14.7965   -3.2519   -0.7875 C   0  0  1  0  0  0  0  0  0  0  0  0
   15.3794   -2.2443   -1.7949 C   0  0  0  0  0  0  0  0  0  0  0  0
   15.9522   -2.6550   -3.0208 C   0  0  0  0  0  0  0  0  0  0  0  0
   16.4340   -1.6937   -3.9273 C   0  0  0  0  0  0  0  0  0  0  0  0
   16.3364   -0.3224   -3.6308 C   0  0  0  0  0  0  0  0  0  0  0  0
   15.7943    0.1250   -2.4073 C   0  0  0  0  0  0  0  0  0  0  0  0
   15.6711    1.5693   -2.0915 C   0  0  0  0  0  0  0  0  0  0  0  0
   15.3832    2.0354   -0.7903 C   0  0  0  0  0  0  0  0  0  0  0  0
   15.3534    3.4188   -0.5357 C   0  0  0  0  0  0  0  0  0  0  0  0
   15.5968    4.3049   -1.5946 C   0  0  0  0  0  0  0  0  0  0  0  0
   15.8275    3.8920   -2.8511 N   0  0  0  0  0  0  0  0  0  0  0  0
   15.8598    2.5642   -3.0762 C   0  0  0  0  0  0  0  0  0  0  0  0
   15.3327   -0.8573   -1.5012 C   0  0  0  0  0  0  0  0  0  0  0  0
   13.2767   -3.0094   -0.6368 C   0  0  0  0  0  0  0  0  0  0  0  0
   12.3981   -3.0674   -1.5055 O   0  0  0  0  0  0  0  0  0  0  0  0
    0.0000    0.0000    0.0000 H   0  0  0  0  0  0  0  0  0  0  0  0
    0.0000    0.0000    0.0000 H   0  0  0  0  0  0  0  0  0  0  0  0
    0.0000    0.0000    0.0000 H   0  0  0  0  0  0  0  0  0  0  0  0
    0.0000    0.0000    0.0000 H   0  0  0  0  0  0  0  0  0  0  0  0
    0.0000    0.0000    0.0000 H   0  0  0  0  0  0  0  0  0  0  0  0
    0.0000    0.0000    0.0000 H   0  0  0  0  0  0  0  0  0  0  0  0
    0.0000    0.0000    0.0000 H   0  0  0  0  0  0  0  0  0  0  0  0
    0.0000    0.0000    0.0000 H   0  0  0  0  0  0  0  0  0  0  0  0
    0.0000    0.0000    0.0000 H   0  0  0  0  0  0  0  0  0  0  0  0
    0.0000    0.0000    0.0000 H   0  0  0  0  0  0  0  0  0  0  0  0
    0.0000    0.0000    0.0000 H   0  0  0  0  0  0  0  0  0  0  0  0
    0.0000    0.0000    0.0000 H   0  0  0  0  0  0  0  0  0  0  0  0
    0.0000    0.0000    0.0000 H   0  0  0  0  0  0  0  0  0  0  0  0
    0.0000    0.0000    0.0000 H   0  0  0  0  0  0  0  0  0  0  0  0
    6.9452   -1.5264   -0.3696 C   0  0  0  0  0  0  0  0  0  0  0  0
    6.8847   -0.4990    0.7186 C   0  0  0  0  0  0  0  0  0  0  0  0
    6.3279   -2.8368    0.0009 C   0  0  0  0  0  0  0  0  0  0  0  0
    6.5611   -1.0169   -1.7124 C   0  0  0  0  0  0  0  0  0  0  0  0
    5.8778   -0.4109    1.1564 H   0  0  0  0  0  0  0  0  0  0  0  0
    7.2558    0.4622    0.2817 H   0  0  0  0  0  0  0  0  0  0  0  0
    7.6058   -0.7257    1.5505 H   0  0  0  0  0  0  0  0  0  0  0  0
    6.7272   -3.1268    0.9975 H   0  0  0  0  0  0  0  0  0  0  0  0
    6.6914   -3.6214   -0.7086 H   0  0  0  0  0  0  0  0  0  0  0  0
    5.2275   -2.7474   -0.0169 H   0  0  0  0  0  0  0  0  0  0  0  0
    6.2367   -1.8345   -2.3831 H   0  0  0  0  0  0  0  0  0  0  0  0
    7.3732   -0.4293   -2.2158 H   0  0  0  0  0  0  0  0  0  0  0  0
    5.7114   -0.3067   -1.6006 H   0  0  0  0  0  0  0  0  0  0  0  0
  1  2  1  0
  2  3  1  0
  2 19  1  0
  3  4  1  0
  3  5  2  0
  5  6  1  0
  6  7  1  0
  6 19  1  0
  7  8  2  0
  7 18  1  0
  8  9  1  0
  9 10  2  0
 10 11  1  0
 11 12  1  0
 11 18  2  0
 12 13  2  0
 12 17  1  0
 13 14  1  0
 14 15  2  0
 15 16  1  0
 16 17  2  0
 19 20  2  0
  1 21  1  0
  1 22  1  0
  1 23  1  0
  4 24  1  0
  4 25  1  0
  5 26  1  0
  8 27  1  0
  9 28  1  0
 10 29  1  0
 13 30  1  0
 14 31  1  0
 15 32  1  0
 17 33  1  0
 18 34  1  0
 35 36  1  0
 35 37  1  0
 35 38  1  0
 36 39  1  0
 36 40  1  0
 36 41  1  0
 37 42  1  0
 37 43  1  0
 37 44  1  0
 38 45  1  0
 38 46  1  0
 38 47  1  0
  6 35  1  6
M  CHG  1   5   1
M  END
>  <attachment_point>  (23) 
26

>  <score>  (23) 
<NA>

$$$$
CAT-4j
     RDKit          3D

 49 52  0  0  1  0  0  0  0  0999 V2000
   11.7106   -2.3098    1.2658 C   0  0  0  0  0  0  0  0  0  0  0  0
   13.0313   -2.6523    0.7225 N   0  0  0  0  0  0  0  0  0  0  0  0
   14.2010   -2.6281    1.3773 C   0  0  0  0  0  0  0  0  0  0  0  0
   14.3777   -2.3568    2.6732 N   0  0  0  0  0  0  0  0  0  0  0  0
   15.2217   -2.9197    0.5738 N   0  0  0  0  0  0  0  0  0  0  0  0
   14.7965   -3.2519   -0.7875 C   0  0  1  0  0  0  0  0  0  0  0  0
   15.3794   -2.2443   -1.7949 C   0  0  0  0  0  0  0  0  0  0  0  0
   15.9522   -2.6550   -3.0208 C   0  0  0  0  0  0  0  0  0  0  0  0
   16.4340   -1.6937   -3.9273 C   0  0  0  0  0  0  0  0  0  0  0  0
   16.3364   -0.3224   -3.6308 C   0  0  0  0  0  0  0  0  0  0  0  0
   15.7943    0.1250   -2.4073 C   0  0  0  0  0  0  0  0  0  0  0  0
   15.6711    1.5693   -2.0915 C   0  0  0  0  0  0  0  0  0  0  0  0
   15.3832    2.0354   -0.7903 C   0  0  0  0  0  0  0  0  0  0  0  0
   15.3534    3.4188   -0.5357 C   0  0  0  0  0  0  0  0  0  0  0  0
   15.5968    4.3049   -1.5946 C   0  0  0  0  0  0  0  0  0  0  0  0
   15.8275    3.8920   -2.8511 N   0  0  0  0  0  0  0  0  0  0  0  0
   15.8598    2.5642   -3.0762 C   0  0  0  0  0  0  0  0  0  0  0  0
   15.3327   -0.8573   -1.5012 C   0  0  0  0  0  0  0  0  0  0  0  0
   13.2767   -3.0094   -0.6368 C   0  0  0  0  0  0  0  0  0  0  0  0
   12.3981   -3.0674   -1.5055 O   0  0  0  0  0  0  0  0  0  0  0  0
    0.0000    0.0000    0.0000 H   0  0  0  0  0  0  0  0  0  0  0  0
    0.0000    0.0000    0.0000 H   0  0  0  0  0  0  0  0  0  0  0  0
    0.0000    0.0000    0.0000 H   0  0  0  0  0  0  0  0  0  0  0  0
    0.0000    0.0000    0.0000 H   0  0  0  0  0  0  0  0  0  0  0  0
    0.0000    0.0000    0.0000 H   0  0  0  0  0  0  0  0  0  0  0  0
    0.0000    0.0000    0.0000 H   0  0  0  0  0  0  0  0  0  0  0  0
    0.0000    0.0000    0.0000 H   0  0  0  0  0  0  0  0  0  0  0  0
    0.0000    0.0000    0.0000 H   0  0  0  0  0  0  0  0  0  0  0  0
    0.0000    0.0000    0.0000 H   0  0  0  0  0  0  0  0  0  0  0  0
    0.0000    0.0000    0.0000 H   0  0  0  0  0  0  0  0  0  0  0  0
    0.0000    0.0000    0.0000 H   0  0  0  0  0  0  0  0  0  0  0  0
    0.0000    0.0000    0.0000 H   0  0  0  0  0  0  0  0  0  0  0  0
    0.0000    0.0000    0.0000 H   0  0  0  0  0  0  0  0  0  0  0  0
    0.0000    0.0000    0.0000 H   0  0  0  0  0  0  0  0  0  0  0  0
    6.9853   -1.5352   -0.3718 C   0  0  0  0  0  0  0  0  0  0  0  0
    6.0122   -2.4639   -0.0710 C   0  0  0  0  0  0  0  0  0  0  0  0
    4.6747   -2.0752   -0.0204 C   0  0  0  0  0  0  0  0  0  0  0  0
    4.2890   -0.7757   -0.2647 C   0  0  0  0  0  0  0  0  0  0  0  0
    2.9395   -0.4195   -0.2060 O   0  0  0  0  0  0  0  0  0  0  0  0
    1.9291   -1.3306    0.0948 C   0  0  0  0  0  0  0  0  0  0  0  0
    5.2521    0.1568   -0.5654 C   0  0  0  0  0  0  0  0  0  0  0  0
    6.5804   -0.2372   -0.6138 C   0  0  0  0  0  0  0  0  0  0  0  0
    6.2754   -3.4936    0.1269 H   0  0  0  0  0  0  0  0  0  0  0  0
    3.9231   -2.8121    0.2162 H   0  0  0  0  0  0  0  0  0  0  0  0
    1.7164   -2.0648   -0.6990 H   0  0  0  0  0  0  0  0  0  0  0  0
    2.2556   -1.9214    0.9890 H   0  0  0  0  0  0  0  0  0  0  0  0
    1.0139   -0.7695    0.3623 H   0  0  0  0  0  0  0  0  0  0  0  0
    4.9267    1.1670   -0.7527 H   0  0  0  0  0  0  0  0  0  0  0  0
    7.3188    0.5024   -0.8497 H   0  0  0  0  0  0  0  0  0  0  0  0
  1  2  1  0
  2  3  1  0
  2 19  1  0
  3  4  1  0
  3  5  2  0
  5  6  1  0
  6  7  1  1
  6 19  1  0
  7  8  2  0
  7 18  1  0
  8  9  1  0
  9 10  2  0
 10 11  1  0
 11 12  1  0
 11 18  2  0
 12 13  2  0
 12 17  1  0
 13 14  1  0
 14 15  2  0
 15 16  1  0
 16 17  2  0
 19 20  2  0
  1 21  1  0
  1 22  1  0
  1 23  1  0
  4 24  1  0
  4 25  1  0
  5 26  1  0
  8 27  1  0
  9 28  1  0
 10 29  1  0
 13 30  1  0
 14 31  1  0
 15 32  1  0
 17 33  1  0
 18 34  1  0
 35 36  2  0
 36 37  1  0
 37 38  2  0
 38 39  1  0
 39 40  1  0
 38 41  1  0
 41 42  2  0
 42 35  1  0
 36 43  1  0
 37 44  1  0
 40 45  1  0
 40 46  1  0
 40 47  1  0
 41 48  1  0
 42 49  1  0
  6 35  1  0
M  CHG  1   5   1
M  END
>  <attachment_point>  (24) 
26

>  <score>  (24) 
<NA>

$$$$
CAT-4j
     RDKit          3D

 45 48  0  0  1  0  0  0  0  0999 V2000
   11.7106   -2.3098    1.2658 C   0  0  0  0  0  0  0  0  0  0  0  0
   13.0313   -2.6523    0.7225 N   0  0  0  0  0  0  0  0  0  0  0  0
   14.2010   -2.6281    1.3773 C   0  0  0  0  0  0  0  0  0  0  0  0
   14.3777   -2.3568    2.6732 N   0  0  0  0  0  0  0  0  0  0  0  0
   15.2217   -2.9197    0.5738 N   0  0  0  0  0  0  0  0  0  0  0  0
   14.7965   -3.2519   -0.7875 C   0  0  1  0  0  0  0  0  0  0  0  0
   15.3794   -2.2443   -1.7949 C   0  0  0  0  0  0  0  0  0  0  0  0
   15.9522   -2.6550   -3.0208 C   0  0  0  0  0  0  0  0  0  0  0  0
   16.4340   -1.6937   -3.9273 C   0  0  0  0  0  0  0  0  0  0  0  0
   16.3364   -0.3224   -3.6308 C   0  0  0  0  0  0  0  0  0  0  0  0
   15.7943    0.1250   -2.4073 C   0  0  0  0  0  0  0  0  0  0  0  0
   15.6711    1.5693   -2.0915 C   0  0  0  0  0  0  0  0  0  0  0  0
   15.3832    2.0354   -0.7903 C   0  0  0  0  0  0  0  0  0  0  0  0
   15.3534    3.4188   -0.5357 C   0  0  0  0  0  0  0  0  0  0  0  0
   15.5968    4.3049   -1.5946 C   0  0  0  0  0  0  0  0  0  0  0  0
   15.8275    3.8920   -2.8511 N   0  0  0  0  0  0  0  0  0  0  0  0
   15.8598    2.5642   -3.0762 C   0  0  0  0  0  0  0  0  0  0  0  0
   15.3327   -0.8573   -1.5012 C   0  0  0  0  0  0  0  0  0  0  0  0
   13.2767   -3.0094   -0.6368 C   0  0  0  0  0  0  0  0  0  0  0  0
   12.3981   -3.0674   -1.5055 O   0  0  0  0  0  0  0  0  0  0  0  0
    0.0000    0.0000    0.0000 H   0  0  0  0  0  0  0  0  0  0  0  0
    0.0000    0.0000    0.0000 H   0  0  0  0  0  0  0  0  0  0  0  0
    0.0000    0.0000    0.0000 H   0  0  0  0  0  0  0  0  0  0  0  0
    0.0000    0.0000    0.0000 H   0  0  0  0  0  0  0  0  0  0  0  0
    0.0000    0.0000    0.0000 H   0  0  0  0  0  0  0  0  0  0  0  0
    0.0000    0.0000    0.0000 H   0  0  0  0  0  0  0  0  0  0  0  0
    0.0000    0.0000    0.0000 H   0  0  0  0  0  0  0  0  0  0  0  0
    0.0000    0.0000    0.0000 H   0  0  0  0  0  0  0  0  0  0  0  0
    0.0000    0.0000    0.0000 H   0  0  0  0  0  0  0  0  0  0  0  0
    0.0000    0.0000    0.0000 H   0  0  0  0  0  0  0  0  0  0  0  0
    0.0000    0.0000    0.0000 H   0  0  0  0  0  0  0  0  0  0  0  0
    0.0000    0.0000    0.0000 H   0  0  0  0  0  0  0  0  0  0  0  0
    0.0000    0.0000    0.0000 H   0  0  0  0  0  0  0  0  0  0  0  0
    0.0000    0.0000    0.0000 H   0  0  0  0  0  0  0  0  0  0  0  0
    6.9641   -1.5305   -0.3706 C   0  0  0  0  0  0  0  0  0  0  0  0
    6.0587   -2.1445   -1.2078 C   0  0  0  0  0  0  0  0  0  0  0  0
    4.7079   -1.8071   -1.0917 C   0  0  0  0  0  0  0  0  0  0  0  0
    4.3068   -0.8797   -0.1565 C   0  0  0  0  0  0  0  0  0  0  0  0
    2.9735   -0.5732   -0.0708 F   0  0  0  0  0  0  0  0  0  0  0  0
    5.2277   -0.2801    0.6679 C   0  0  0  0  0  0  0  0  0  0  0  0
    6.5637   -0.6015    0.5665 C   0  0  0  0  0  0  0  0  0  0  0  0
    6.3947   -2.8704   -1.9358 H   0  0  0  0  0  0  0  0  0  0  0  0
    3.9932   -2.2810   -1.7408 H   0  0  0  0  0  0  0  0  0  0  0  0
    4.8594    0.4401    1.3837 H   0  0  0  0  0  0  0  0  0  0  0  0
    7.2945   -0.1321    1.2137 H   0  0  0  0  0  0  0  0  0  0  0  0
  1  2  1  0
  2  3  1  0
  2 19  1  0
  3  4  1  0
  3  5  2  0
  5  6  1  0
  6  7  1  1
  6 19  1  0
  7  8  2  0
  7 18  1  0
  8  9  1  0
  9 10  2  0
 10 11  1  0
 11 12  1  0
 11 18  2  0
 12 13  2  0
 12 17  1  0
 13 14  1  0
 14 15  2  0
 15 16  1  0
 16 17  2  0
 19 20  2  0
  1 21  1  0
  1 22  1  0
  1 23  1  0
  4 24  1  0
  4 25  1  0
  5 26  1  0
  8 27  1  0
  9 28  1  0
 10 29  1  0
 13 30  1  0
 14 31  1  0
 15 32  1  0
 17 33  1  0
 18 34  1  0
 35 36  2  0
 36 37  1  0
 37 38  2  0
 38 39  1  0
 38 40  1  0
 40 41  2  0
 41 35  1  0
 36 42  1  0
 37 43  1  0
 40 44  1  0
 41 45  1  0
  6 35  1  0
M  CHG  1   5   1
M  END
>  <attachment_point>  (25) 
26

>  <score>  (25) 
<NA>

$$$$
CAT-4j
     RDKit          3D

 51 54  0  0  1  0  0  0  0  0999 V2000
   11.7106   -2.3098    1.2658 C   0  0  0  0  0  0  0  0  0  0  0  0
   13.0313   -2.6523    0.7225 N   0  0  0  0  0  0  0  0  0  0  0  0
   14.2010   -2.6281    1.3773 C   0  0  0  0  0  0  0  0  0  0  0  0
   14.3777   -2.3568    2.6732 N   0  0  0  0  0  0  0  0  0  0  0  0
   15.2217   -2.9197    0.5738 N   0  0  0  0  0  0  0  0  0  0  0  0
   14.7965   -3.2519   -0.7875 C   0  0  1  0  0  0  0  0  0  0  0  0
   15.3794   -2.2443   -1.7949 C   0  0  0  0  0  0  0  0  0  0  0  0
   15.9522   -2.6550   -3.0208 C   0  0  0  0  0  0  0  0  0  0  0  0
   16.4340   -1.6937   -3.9273 C   0  0  0  0  0  0  0  0  0  0  0  0
   16.3364   -0.3224   -3.6308 C   0  0  0  0  0  0  0  0  0  0  0  0
   15.7943    0.1250   -2.4073 C   0  0  0  0  0  0  0  0  0  0  0  0
   15.6711    1.5693   -2.0915 C   0  0  0  0  0  0  0  0  0  0  0  0
   15.3832    2.0354   -0.7903 C   0  0  0  0  0  0  0  0  0  0  0  0
   15.3534    3.4188   -0.5357 C   0  0  0  0  0  0  0  0  0  0  0  0
   15.5968    4.3049   -1.5946 C   0  0  0  0  0  0  0  0  0  0  0  0
   15.8275    3.8920   -2.8511 N   0  0  0  0  0  0  0  0  0  0  0  0
   15.8598    2.5642   -3.0762 C   0  0  0  0  0  0  0  0  0  0  0  0
   15.3327   -0.8573   -1.5012 C   0  0  0  0  0  0  0  0  0  0  0  0
   13.2767   -3.0094   -0.6368 C   0  0  0  0  0  0  0  0  0  0  0  0
   12.3981   -3.0674   -1.5055 O   0  0  0  0  0  0  0  0  0  0  0  0
    0.0000    0.0000    0.0000 H   0  0  0  0  0  0  0  0  0  0  0  0
    0.0000    0.0000    0.0000 H   0  0  0  0  0  0  0  0  0  0  0  0
    0.0000    0.0000    0.0000 H   0  0  0  0  0  0  0  0  0  0  0  0
    0.0000    0.0000    0.0000 H   0  0  0  0  0  0  0  0  0  0  0  0
    0.0000    0.0000    0.0000 H   0  0  0  0  0  0  0  0  0  0  0  0
    0.0000    0.0000    0.0000 H   0  0  0  0  0  0  0  0  0  0  0  0
    0.0000    0.0000    0.0000 H   0  0  0  0  0  0  0  0  0  0  0  0
    0.0000    0.0000    0.0000 H   0  0  0  0  0  0  0  0  0  0  0  0
    0.0000    0.0000    0.0000 H   0  0  0  0  0  0  0  0  0  0  0  0
    0.0000    0.0000    0.0000 H   0  0  0  0  0  0  0  0  0  0  0  0
    0.0000    0.0000    0.0000 H   0  0  0  0  0  0  0  0  0  0  0  0
    0.0000    0.0000    0.0000 H   0  0  0  0  0  0  0  0  0  0  0  0
    0.0000    0.0000    0.0000 H   0  0  0  0  0  0  0  0  0  0  0  0
    0.0000    0.0000    0.0000 H   0  0  0  0  0  0  0  0  0  0  0  0
    6.9702   -1.5319   -0.3710 C   0  0  0  0  0  0  0  0  0  0  0  0
    6.6228   -1.7282    1.0925 C   0  0  0  0  0  0  0  0  0  0  0  0
    7.2338   -3.0013    1.5533 C   0  0  0  0  0  0  0  0  0  0  0  0
    7.0462   -4.1692    0.6663 C   0  0  0  0  0  0  0  0  0  0  0  0
    6.8920   -3.8996   -0.7745 C   0  0  0  0  0  0  0  0  0  0  0  0
    6.1756   -2.6086   -1.0995 C   0  0  0  0  0  0  0  0  0  0  0  0
    6.7795   -0.5291   -0.7398 H   0  0  0  0  0  0  0  0  0  0  0  0
    5.5187   -1.7523    1.1694 H   0  0  0  0  0  0  0  0  0  0  0  0
    7.0453   -0.8933    1.6625 H   0  0  0  0  0  0  0  0  0  0  0  0
    8.3271   -2.8191    1.7699 H   0  0  0  0  0  0  0  0  0  0  0  0
    6.7688   -3.2564    2.5509 H   0  0  0  0  0  0  0  0  0  0  0  0
    6.1896   -4.8305    0.9918 H   0  0  0  0  0  0  0  0  0  0  0  0
    7.9514   -4.8338    0.7996 H   0  0  0  0  0  0  0  0  0  0  0  0
    6.3467   -4.7398   -1.2597 H   0  0  0  0  0  0  0  0  0  0  0  0
    7.9171   -3.8021   -1.2363 H   0  0  0  0  0  0  0  0  0  0  0  0
    5.1558   -2.6839   -0.6334 H   0  0  0  0  0  0  0  0  0  0  0  0
    6.1200   -2.4575   -2.1697 H   0  0  0  0  0  0  0  0  0  0  0  0
  1  2  1  0
  2  3  1  0
  2 19  1  0
  3  4  1  0
  3  5  2  0
  5  6  1  0
  6  7  1  0
  6 19  1  0
  7  8  2  0
  7 18  1  0
  8  9  1  0
  9 10  2  0
 10 11  1  0
 11 12  1  0
 11 18  2  0
 12 13  2  0
 12 17  1  0
 13 14  1  0
 14 15  2  0
 15 16  1  0
 16 17  2  0
 19 20  2  0
  1 21  1  0
  1 22  1  0
  1 23  1  0
  4 24  1  0
  4 25  1  0
  5 26  1  0
  8 27  1  0
  9 28  1  0
 10 29  1  0
 13 30  1  0
 14 31  1  0
 15 32  1  0
 17 33  1  0
 18 34  1  0
 35 36  1  0
 36 37  1  0
 37 38  1  0
 38 39  1  0
 39 40  1  0
 40 35  1  0
 35 41  1  0
 36 42  1  0
 36 43  1  0
 37 44  1  0
 37 45  1  0
 38 46  1  0
 38 47  1  0
 39 48  1  0
 39 49  1  0
 40 50  1  0
 40 51  1  0
  6 35  1  6
M  CHG  1   5   1
M  END
>  <attachment_point>  (26) 
26

>  <score>  (26) 
<NA>

$$$$
CAT-4j
     RDKit          3D

 41 43  0  0  1  0  0  0  0  0999 V2000
   11.7106   -2.3098    1.2658 C   0  0  0  0  0  0  0  0  0  0  0  0
   13.0313   -2.6523    0.7225 N   0  0  0  0  0  0  0  0  0  0  0  0
   14.2010   -2.6281    1.3773 C   0  0  0  0  0  0  0  0  0  0  0  0
   14.3777   -2.3568    2.6732 N   0  0  0  0  0  0  0  0  0  0  0  0
   15.2217   -2.9197    0.5738 N   0  0  0  0  0  0  0  0  0  0  0  0
   14.7965   -3.2519   -0.7875 C   0  0  1  0  0  0  0  0  0  0  0  0
   15.3794   -2.2443   -1.7949 C   0  0  0  0  0  0  0  0  0  0  0  0
   15.9522   -2.6550   -3.0208 C   0  0  0  0  0  0  0  0  0  0  0  0
   16.4340   -1.6937   -3.9273 C   0  0  0  0  0  0  0  0  0  0  0  0
   16.3364   -0.3224   -3.6308 C   0  0  0  0  0  0  0  0  0  0  0  0
   15.7943    0.1250   -2.4073 C   0  0  0  0  0  0  0  0  0  0  0  0
   15.6711    1.5693   -2.0915 C   0  0  0  0  0  0  0  0  0  0  0  0
   15.3832    2.0354   -0.7903 C   0  0  0  0  0  0  0  0  0  0  0  0
   15.3534    3.4188   -0.5357 C   0  0  0  0  0  0  0  0  0  0  0  0
   15.5968    4.3049   -1.5946 C   0  0  0  0  0  0  0  0  0  0  0  0
   15.8275    3.8920   -2.8511 N   0  0  0  0  0  0  0  0  0  0  0  0
   15.8598    2.5642   -3.0762 C   0  0  0  0  0  0  0  0  0  0  0  0
   15.3327   -0.8573   -1.5012 C   0  0  0  0  0  0  0  0  0  0  0  0
   13.2767   -3.0094   -0.6368 C   0  0  0  0  0  0  0  0  0  0  0  0
   12.3981   -3.0674   -1.5055 O   0  0  0  0  0  0  0  0  0  0  0  0
    0.0000    0.0000    0.0000 H   0  0  0  0  0  0  0  0  0  0  0  0
    0.0000    0.0000    0.0000 H   0  0  0  0  0  0  0  0  0  0  0  0
    0.0000    0.0000    0.0000 H   0  0  0  0  0  0  0  0  0  0  0  0
    0.0000    0.0000    0.0000 H   0  0  0  0  0  0  0  0  0  0  0  0
    0.0000    0.0000    0.0000 H   0  0  0  0  0  0  0  0  0  0  0  0
    0.0000    0.0000    0.0000 H   0  0  0  0  0  0  0  0  0  0  0  0
    0.0000    0.0000    0.0000 H   0  0  0  0  0  0  0  0  0  0  0  0
    0.0000    0.0000    0.0000 H   0  0  0  0  0  0  0  0  0  0  0  0
    0.0000    0.0000    0.0000 H   0  0  0  0  0  0  0  0  0  0  0  0
    0.0000    0.0000    0.0000 H   0  0  0  0  0  0  0  0  0  0  0  0
    0.0000    0.0000    0.0000 H   0  0  0  0  0  0  0  0  0  0  0  0
    0.0000    0.0000    0.0000 H   0  0  0  0  0  0  0  0  0  0  0  0
    0.0000    0.0000    0.0000 H   0  0  0  0  0  0  0  0  0  0  0  0
    0.0000    0.0000    0.0000 H   0  0  0  0  0  0  0  0  0  0  0  0
    6.9372   -1.5246   -0.3692 C   0  0  0  0  0  0  0  0  0  0  0  0
    6.8228   -0.1637   -0.9228 C   0  0  0  0  0  0  0  0  0  0  0  0
    6.9273    0.7964   -0.1135 O   0  0  0  0  0  0  0  0  0  0  0  0
    6.6089    0.0728   -2.2751 O   0  0  0  0  0  0  0  0  0  0  0  0
    6.4277   -2.2888   -0.9843 H   0  0  0  0  0  0  0  0  0  0  0  0
    6.6595   -1.5903    0.6896 H   0  0  0  0  0  0  0  0  0  0  0  0
    6.8558    0.9810   -2.6604 H   0  0  0  0  0  0  0  0  0  0  0  0
  1  2  1  0
  2  3  1  0
  2 19  1  0
  3  4  1  0
  3  5  2  0
  5  6  1  0
  6  7  1  0
  6 19  1  0
  7  8  2  0
  7 18  1  0
  8  9  1  0
  9 10  2  0
 10 11  1  0
 11 12  1  0
 11 18  2  0
 12 13  2  0
 12 17  1  0
 13 14  1  0
 14 15  2  0
 15 16  1  0
 16 17  2  0
 19 20  2  0
  1 21  1  0
  1 22  1  0
  1 23  1  0
  4 24  1  0
  4 25  1  0
  5 26  1  0
  8 27  1  0
  9 28  1  0
 10 29  1  0
 13 30  1  0
 14 31  1  0
 15 32  1  0
 17 33  1  0
 18 34  1  0
 35 36  1  0
 36 37  2  0
 36 38  1  0
 35 39  1  0
 35 40  1  0
 38 41  1  0
  6 35  1  6
M  CHG  1   5   1
M  END
>  <attachment_point>  (27) 
26

>  <score>  (27) 
<NA>

$$$$
CAT-4j
     RDKit          3D

 44 47  0  0  1  0  0  0  0  0999 V2000
   11.7106   -2.3098    1.2658 C   0  0  0  0  0  0  0  0  0  0  0  0
   13.0313   -2.6523    0.7225 N   0  0  0  0  0  0  0  0  0  0  0  0
   14.2010   -2.6281    1.3773 C   0  0  0  0  0  0  0  0  0  0  0  0
   14.3777   -2.3568    2.6732 N   0  0  0  0  0  0  0  0  0  0  0  0
   15.2217   -2.9197    0.5738 N   0  0  0  0  0  0  0  0  0  0  0  0
   14.7965   -3.2519   -0.7875 C   0  0  1  0  0  0  0  0  0  0  0  0
   15.3794   -2.2443   -1.7949 C   0  0  0  0  0  0  0  0  0  0  0  0
   15.9522   -2.6550   -3.0208 C   0  0  0  0  0  0  0  0  0  0  0  0
   16.4340   -1.6937   -3.9273 C   0  0  0  0  0  0  0  0  0  0  0  0
   16.3364   -0.3224   -3.6308 C   0  0  0  0  0  0  0  0  0  0  0  0
   15.7943    0.1250   -2.4073 C   0  0  0  0  0  0  0  0  0  0  0  0
   15.6711    1.5693   -2.0915 C   0  0  0  0  0  0  0  0  0  0  0  0
   15.3832    2.0354   -0.7903 C   0  0  0  0  0  0  0  0  0  0  0  0
   15.3534    3.4188   -0.5357 C   0  0  0  0  0  0  0  0  0  0  0  0
   15.5968    4.3049   -1.5946 C   0  0  0  0  0  0  0  0  0  0  0  0
   15.8275    3.8920   -2.8511 N   0  0  0  0  0  0  0  0  0  0  0  0
   15.8598    2.5642   -3.0762 C   0  0  0  0  0  0  0  0  0  0  0  0
   15.3327   -0.8573   -1.5012 C   0  0  0  0  0  0  0  0  0  0  0  0
   13.2767   -3.0094   -0.6368 C   0  0  0  0  0  0  0  0  0  0  0  0
   12.3981   -3.0674   -1.5055 O   0  0  0  0  0  0  0  0  0  0  0  0
    0.0000    0.0000    0.0000 H   0  0  0  0  0  0  0  0  0  0  0  0
    0.0000    0.0000    0.0000 H   0  0  0  0  0  0  0  0  0  0  0  0
    0.0000    0.0000    0.0000 H   0  0  0  0  0  0  0  0  0  0  0  0
    0.0000    0.0000    0.0000 H   0  0  0  0  0  0  0  0  0  0  0  0
    0.0000    0.0000    0.0000 H   0  0  0  0  0  0  0  0  0  0  0  0
    0.0000    0.0000    0.0000 H   0  0  0  0  0  0  0  0  0  0  0  0
    0.0000    0.0000    0.0000 H   0  0  0  0  0  0  0  0  0  0  0  0
    0.0000    0.0000    0.0000 H   0  0  0  0  0  0  0  0  0  0  0  0
    0.0000    0.0000    0.0000 H   0  0  0  0  0  0  0  0  0  0  0  0
    0.0000    0.0000    0.0000 H   0  0  0  0  0  0  0  0  0  0  0  0
    0.0000    0.0000    0.0000 H   0  0  0  0  0  0  0  0  0  0  0  0
    0.0000    0.0000    0.0000 H   0  0  0  0  0  0  0  0  0  0  0  0
    0.0000    0.0000    0.0000 H   0  0  0  0  0  0  0  0  0  0  0  0
    0.0000    0.0000    0.0000 H   0  0  0  0  0  0  0  0  0  0  0  0
    6.9777   -1.5335   -0.3714 C   0  0  0  0  0  0  0  0  0  0  0  0
    6.0965   -2.5895   -0.2344 C   0  0  0  0  0  0  0  0  0  0  0  0
    4.7348   -2.3663   -0.1564 C   0  0  0  0  0  0  0  0  0  0  0  0
    4.2715   -1.0627   -0.2182 C   0  0  0  0  0  0  0  0  0  0  0  0
    5.1617   -0.0204   -0.3548 C   0  0  0  0  0  0  0  0  0  0  0  0
    6.4675   -0.3083   -0.4242 N   0  0  0  0  0  0  0  0  0  0  0  0
    6.4693   -3.6254   -0.1856 H   0  0  0  0  0  0  0  0  0  0  0  0
    4.0293   -3.1705   -0.0499 H   0  0  0  0  0  0  0  0  0  0  0  0
    3.1927   -0.8623   -0.1582 H   0  0  0  0  0  0  0  0  0  0  0  0
    4.7549    0.9751   -0.3983 H   0  0  0  0  0  0  0  0  0  0  0  0
  1  2  1  0
  2  3  1  0
  2 19  1  0
  3  4  1  0
  3  5  2  0
  5  6  1  0
  6  7  1  1
  6 19  1  0
  7  8  2  0
  7 18  1  0
  8  9  1  0
  9 10  2  0
 10 11  1  0
 11 12  1  0
 11 18  2  0
 12 13  2  0
 12 17  1  0
 13 14  1  0
 14 15  2  0
 15 16  1  0
 16 17  2  0
 19 20  2  0
  1 21  1  0
  1 22  1  0
  1 23  1  0
  4 24  1  0
  4 25  1  0
  5 26  1  0
  8 27  1  0
  9 28  1  0
 10 29  1  0
 13 30  1  0
 14 31  1  0
 15 32  1  0
 17 33  1  0
 18 34  1  0
 35 36  2  0
 36 37  1  0
 37 38  2  0
 38 39  1  0
 39 40  2  0
 40 35  1  0
 36 41  1  0
 37 42  1  0
 38 43  1  0
 39 44  1  0
  6 35  1  0
M  CHG  1   5   1
M  END
>  <attachment_point>  (28) 
26

>  <score>  (28) 
<NA>

$$$$
CAT-4j
     RDKit          3D

 41 43  0  0  1  0  0  0  0  0999 V2000
   11.7106   -2.3098    1.2658 C   0  0  0  0  0  0  0  0  0  0  0  0
   13.0313   -2.6523    0.7225 N   0  0  0  0  0  0  0  0  0  0  0  0
   14.2010   -2.6281    1.3773 C   0  0  0  0  0  0  0  0  0  0  0  0
   14.3777   -2.3568    2.6732 N   0  0  0  0  0  0  0  0  0  0  0  0
   15.2217   -2.9197    0.5738 N   0  0  0  0  0  0  0  0  0  0  0  0
   14.7965   -3.2519   -0.7875 C   0  0  1  0  0  0  0  0  0  0  0  0
   15.3794   -2.2443   -1.7949 C   0  0  0  0  0  0  0  0  0  0  0  0
   15.9522   -2.6550   -3.0208 C   0  0  0  0  0  0  0  0  0  0  0  0
   16.4340   -1.6937   -3.9273 C   0  0  0  0  0  0  0  0  0  0  0  0
   16.3364   -0.3224   -3.6308 C   0  0  0  0  0  0  0  0  0  0  0  0
   15.7943    0.1250   -2.4073 C   0  0  0  0  0  0  0  0  0  0  0  0
   15.6711    1.5693   -2.0915 C   0  0  0  0  0  0  0  0  0  0  0  0
   15.3832    2.0354   -0.7903 C   0  0  0  0  0  0  0  0  0  0  0  0
   15.3534    3.4188   -0.5357 C   0  0  0  0  0  0  0  0  0  0  0  0
   15.5968    4.3049   -1.5946 C   0  0  0  0  0  0  0  0  0  0  0  0
   15.8275    3.8920   -2.8511 N   0  0  0  0  0  0  0  0  0  0  0  0
   15.8598    2.5642   -3.0762 C   0  0  0  0  0  0  0  0  0  0  0  0
   15.3327   -0.8573   -1.5012 C   0  0  0  0  0  0  0  0  0  0  0  0
   13.2767   -3.0094   -0.6368 C   0  0  0  0  0  0  0  0  0  0  0  0
   12.3981   -3.0674   -1.5055 O   0  0  0  0  0  0  0  0  0  0  0  0
    0.0000    0.0000    0.0000 H   0  0  0  0  0  0  0  0  0  0  0  0
    0.0000    0.0000    0.0000 H   0  0  0  0  0  0  0  0  0  0  0  0
    0.0000    0.0000    0.0000 H   0  0  0  0  0  0  0  0  0  0  0  0
    0.0000    0.0000    0.0000 H   0  0  0  0  0  0  0  0  0  0  0  0
    0.0000    0.0000    0.0000 H   0  0  0  0  0  0  0  0  0  0  0  0
    0.0000    0.0000    0.0000 H   0  0  0  0  0  0  0  0  0  0  0  0
    0.0000    0.0000    0.0000 H   0  0  0  0  0  0  0  0  0  0  0  0
    0.0000    0.0000    0.0000 H   0  0  0  0  0  0  0  0  0  0  0  0
    0.0000    0.0000    0.0000 H   0  0  0  0  0  0  0  0  0  0  0  0
    0.0000    0.0000    0.0000 H   0  0  0  0  0  0  0  0  0  0  0  0
    0.0000    0.0000    0.0000 H   0  0  0  0  0  0  0  0  0  0  0  0
    0.0000    0.0000    0.0000 H   0  0  0  0  0  0  0  0  0  0  0  0
    0.0000    0.0000    0.0000 H   0  0  0  0  0  0  0  0  0  0  0  0
    0.0000    0.0000    0.0000 H   0  0  0  0  0  0  0  0  0  0  0  0
    6.8940   -1.5151   -0.3669 C   0  0  0  0  0  0  0  0  0  0  0  0
    6.5930   -0.3919   -0.0717 O   0  0  0  0  0  0  0  0  0  0  0  0
    6.0799   -2.5357   -0.6403 O   0  0  0  0  0  0  0  0  0  0  0  0
    4.6746   -2.3868   -0.6077 C   0  0  0  0  0  0  0  0  0  0  0  0
    4.3040   -3.0290    0.2172 H   0  0  0  0  0  0  0  0  0  0  0  0
    4.1854   -2.7779   -1.5299 H   0  0  0  0  0  0  0  0  0  0  0  0
    4.3368   -1.3662   -0.4309 H   0  0  0  0  0  0  0  0  0  0  0  0
  1  2  1  0
  2  3  1  0
  2 19  1  0
  3  4  1  0
  3  5  2  0
  5  6  1  0
  6  7  1  0
  6 19  1  0
  7  8  2  0
  7 18  1  0
  8  9  1  0
  9 10  2  0
 10 11  1  0
 11 12  1  0
 11 18  2  0
 12 13  2  0
 12 17  1  0
 13 14  1  0
 14 15  2  0
 15 16  1  0
 16 17  2  0
 19 20  2  0
  1 21  1  0
  1 22  1  0
  1 23  1  0
  4 24  1  0
  4 25  1  0
  5 26  1  0
  8 27  1  0
  9 28  1  0
 10 29  1  0
 13 30  1  0
 14 31  1  0
 15 32  1  0
 17 33  1  0
 18 34  1  0
 35 36  2  0
 35 37  1  0
 37 38  1  0
 38 39  1  0
 38 40  1  0
 38 41  1  0
  6 35  1  6
M  CHG  1   5   1
M  END
>  <attachment_point>  (29) 
26

>  <score>  (29) 
<NA>

$$$$
CAT-4j
     RDKit          3D

 47 49  0  0  1  0  0  0  0  0999 V2000
   11.7106   -2.3098    1.2658 C   0  0  0  0  0  0  0  0  0  0  0  0
   13.0313   -2.6523    0.7225 N   0  0  0  0  0  0  0  0  0  0  0  0
   14.2010   -2.6281    1.3773 C   0  0  0  0  0  0  0  0  0  0  0  0
   14.3777   -2.3568    2.6732 N   0  0  0  0  0  0  0  0  0  0  0  0
   15.2217   -2.9197    0.5738 N   0  0  0  0  0  0  0  0  0  0  0  0
   14.7965   -3.2519   -0.7875 C   0  0  1  0  0  0  0  0  0  0  0  0
   15.3794   -2.2443   -1.7949 C   0  0  0  0  0  0  0  0  0  0  0  0
   15.9522   -2.6550   -3.0208 C   0  0  0  0  0  0  0  0  0  0  0  0
   16.4340   -1.6937   -3.9273 C   0  0  0  0  0  0  0  0  0  0  0  0
   16.3364   -0.3224   -3.6308 C   0  0  0  0  0  0  0  0  0  0  0  0
   15.7943    0.1250   -2.4073 C   0  0  0  0  0  0  0  0  0  0  0  0
   15.6711    1.5693   -2.0915 C   0  0  0  0  0  0  0  0  0  0  0  0
   15.3832    2.0354   -0.7903 C   0  0  0  0  0  0  0  0  0  0  0  0
   15.3534    3.4188   -0.5357 C   0  0  0  0  0  0  0  0  0  0  0  0
   15.5968    4.3049   -1.5946 C   0  0  0  0  0  0  0  0  0  0  0  0
   15.8275    3.8920   -2.8511 N   0  0  0  0  0  0  0  0  0  0  0  0
   15.8598    2.5642   -3.0762 C   0  0  0  0  0  0  0  0  0  0  0  0
   15.3327   -0.8573   -1.5012 C   0  0  0  0  0  0  0  0  0  0  0  0
   13.2767   -3.0094   -0.6368 C   0  0  0  0  0  0  0  0  0  0  0  0
   12.3981   -3.0674   -1.5055 O   0  0  0  0  0  0  0  0  0  0  0  0
    0.0000    0.0000    0.0000 H   0  0  0  0  0  0  0  0  0  0  0  0
    0.0000    0.0000    0.0000 H   0  0  0  0  0  0  0  0  0  0  0  0
    0.0000    0.0000    0.0000 H   0  0  0  0  0  0  0  0  0  0  0  0
    0.0000    0.0000    0.0000 H   0  0  0  0  0  0  0  0  0  0  0  0
    0.0000    0.0000    0.0000 H   0  0  0  0  0  0  0  0  0  0  0  0
    0.0000    0.0000    0.0000 H   0  0  0  0  0  0  0  0  0  0  0  0
    0.0000    0.0000    0.0000 H   0  0  0  0  0  0  0  0  0  0  0  0
    0.0000    0.0000    0.0000 H   0  0  0  0  0  0  0  0  0  0  0  0
    0.0000    0.0000    0.0000 H   0  0  0  0  0  0  0  0  0  0  0  0
    0.0000    0.0000    0.0000 H   0  0  0  0  0  0  0  0  0  0  0  0
    0.0000    0.0000    0.0000 H   0  0  0  0  0  0  0  0  0  0  0  0
    0.0000    0.0000    0.0000 H   0  0  0  0  0  0  0  0  0  0  0  0
    0.0000    0.0000    0.0000 H   0  0  0  0  0  0  0  0  0  0  0  0
    0.0000    0.0000    0.0000 H   0  0  0  0  0  0  0  0  0  0  0  0
    6.7814   -1.4904   -0.3609 C   0  0  0  0  0  0  0  0  0  0  0  0
    7.2157   -0.0940   -0.0604 C   0  0  0  0  0  0  0  0  0  0  0  0
    5.9976    0.7214    0.1230 C   0  0  0  0  0  0  0  0  0  0  0  0
    6.4391    2.1580    0.4323 C   0  0  0  0  0  0  0  0  0  0  0  0
    6.7741   -1.8023   -1.3796 H   0  0  0  0  0  0  0  0  0  0  0  0
    6.7862   -2.1957    0.4400 H   0  0  0  0  0  0  0  0  0  0  0  0
    7.8056   -0.0466    0.9022 H   0  0  0  0  0  0  0  0  0  0  0  0
    7.8421    0.3707   -0.8474 H   0  0  0  0  0  0  0  0  0  0  0  0
    5.4232    0.8093   -0.8412 H   0  0  0  0  0  0  0  0  0  0  0  0
    5.3487    0.4053    0.9540 H   0  0  0  0  0  0  0  0  0  0  0  0
    5.5536    2.8208    0.4262 H   0  0  0  0  0  0  0  0  0  0  0  0
    6.8896    2.1242    1.4398 H   0  0  0  0  0  0  0  0  0  0  0  0
    7.2142    2.4360   -0.2847 H   0  0  0  0  0  0  0  0  0  0  0  0
  1  2  1  0
  2  3  1  0
  2 19  1  0
  3  4  1  0
  3  5  2  0
  5  6  1  0
  6  7  1  0
  6 19  1  0
  7  8  2  0
  7 18  1  0
  8  9  1  0
  9 10  2  0
 10 11  1  0
 11 12  1  0
 11 18  2  0
 12 13  2  0
 12 17  1  0
 13 14  1  0
 14 15  2  0
 15 16  1  0
 16 17  2  0
 19 20  2  0
  1 21  1  0
  1 22  1  0
  1 23  1  0
  4 24  1  0
  4 25  1  0
  5 26  1  0
  8 27  1  0
  9 28  1  0
 10 29  1  0
 13 30  1  0
 14 31  1  0
 15 32  1  0
 17 33  1  0
 18 34  1  0
 35 36  1  0
 36 37  1  0
 37 38  1  0
 35 39  1  0
 35 40  1  0
 36 41  1  0
 36 42  1  0
 37 43  1  0
 37 44  1  0
 38 45  1  0
 38 46  1  0
 38 47  1  0
  6 35  1  6
M  CHG  1   5   1
M  END
>  <attachment_point>  (30) 
26

>  <score>  (30) 
<NA>

$$$$
CAT-4j
     RDKit          3D

 42 44  0  0  1  0  0  0  0  0999 V2000
   11.7106   -2.3098    1.2658 C   0  0  0  0  0  0  0  0  0  0  0  0
   13.0313   -2.6523    0.7225 N   0  0  0  0  0  0  0  0  0  0  0  0
   14.2010   -2.6281    1.3773 C   0  0  0  0  0  0  0  0  0  0  0  0
   14.3777   -2.3568    2.6732 N   0  0  0  0  0  0  0  0  0  0  0  0
   15.2217   -2.9197    0.5738 N   0  0  0  0  0  0  0  0  0  0  0  0
   14.7965   -3.2519   -0.7875 C   0  0  1  0  0  0  0  0  0  0  0  0
   15.3794   -2.2443   -1.7949 C   0  0  0  0  0  0  0  0  0  0  0  0
   15.9522   -2.6550   -3.0208 C   0  0  0  0  0  0  0  0  0  0  0  0
   16.4340   -1.6937   -3.9273 C   0  0  0  0  0  0  0  0  0  0  0  0
   16.3364   -0.3224   -3.6308 C   0  0  0  0  0  0  0  0  0  0  0  0
   15.7943    0.1250   -2.4073 C   0  0  0  0  0  0  0  0  0  0  0  0
   15.6711    1.5693   -2.0915 C   0  0  0  0  0  0  0  0  0  0  0  0
   15.3832    2.0354   -0.7903 C   0  0  0  0  0  0  0  0  0  0  0  0
   15.3534    3.4188   -0.5357 C   0  0  0  0  0  0  0  0  0  0  0  0
   15.5968    4.3049   -1.5946 C   0  0  0  0  0  0  0  0  0  0  0  0
   15.8275    3.8920   -2.8511 N   0  0  0  0  0  0  0  0  0  0  0  0
   15.8598    2.5642   -3.0762 C   0  0  0  0  0  0  0  0  0  0  0  0
   15.3327   -0.8573   -1.5012 C   0  0  0  0  0  0  0  0  0  0  0  0
   13.2767   -3.0094   -0.6368 C   0  0  0  0  0  0  0  0  0  0  0  0
   12.3981   -3.0674   -1.5055 O   0  0  0  0  0  0  0  0  0  0  0  0
    0.0000    0.0000    0.0000 H   0  0  0  0  0  0  0  0  0  0  0  0
    0.0000    0.0000    0.0000 H   0  0  0  0  0  0  0  0  0  0  0  0
    0.0000    0.0000    0.0000 H   0  0  0  0  0  0  0  0  0  0  0  0
    0.0000    0.0000    0.0000 H   0  0  0  0  0  0  0  0  0  0  0  0
    0.0000    0.0000    0.0000 H   0  0  0  0  0  0  0  0  0  0  0  0
    0.0000    0.0000    0.0000 H   0  0  0  0  0  0  0  0  0  0  0  0
    0.0000    0.0000    0.0000 H   0  0  0  0  0  0  0  0  0  0  0  0
    0.0000    0.0000    0.0000 H   0  0  0  0  0  0  0  0  0  0  0  0
    0.0000    0.0000    0.0000 H   0  0  0  0  0  0  0  0  0  0  0  0
    0.0000    0.0000    0.0000 H   0  0  0  0  0  0  0  0  0  0  0  0
    0.0000    0.0000    0.0000 H   0  0  0  0  0  0  0  0  0  0  0  0
    0.0000    0.0000    0.0000 H   0  0  0  0  0  0  0  0  0  0  0  0
    0.0000    0.0000    0.0000 H   0  0  0  0  0  0  0  0  0  0  0  0
    0.0000    0.0000    0.0000 H   0  0  0  0  0  0  0  0  0  0  0  0
    6.9992   -1.5382   -0.3725 N   0  0  0  0  0  0  0  0  0  0  0  0
    6.6204   -0.2823    0.1740 C   0  0  0  0  0  0  0  0  0  0  0  0
    5.1766    0.0394    0.2529 C   0  0  0  0  0  0  0  0  0  0  0  0
    7.4447    0.5710    0.5942 O   0  0  0  0  0  0  0  0  0  0  0  0
    6.3193   -2.2492   -0.7223 H   0  0  0  0  0  0  0  0  0  0  0  0
    4.7166   -0.3798    1.1944 H   0  0  0  0  0  0  0  0  0  0  0  0
    4.6176   -0.2836   -0.6450 H   0  0  0  0  0  0  0  0  0  0  0  0
    5.0393    1.1372    0.3322 H   0  0  0  0  0  0  0  0  0  0  0  0
  1  2  1  0
  2  3  1  0
  2 19  1  0
  3  4  1  0
  3  5  2  0
  5  6  1  0
  6  7  1  0
  6 19  1  0
  7  8  2  0
  7 18  1  0
  8  9  1  0
  9 10  2  0
 10 11  1  0
 11 12  1  0
 11 18  2  0
 12 13  2  0
 12 17  1  0
 13 14  1  0
 14 15  2  0
 15 16  1  0
 16 17  2  0
 19 20  2  0
  1 21  1  0
  1 22  1  0
  1 23  1  0
  4 24  1  0
  4 25  1  0
  5 26  1  0
  8 27  1  0
  9 28  1  0
 10 29  1  0
 13 30  1  0
 14 31  1  0
 15 32  1  0
 17 33  1  0
 18 34  1  0
 35 36  1  0
 36 37  1  0
 36 38  2  0
 35 39  1  0
 37 40  1  0
 37 41  1  0
 37 42  1  0
  6 35  1  6
M  CHG  1   5   1
M  END
>  <attachment_point>  (31) 
26

>  <score>  (31) 
<NA>

$$$$
CAT-4j
     RDKit          3D

 40 42  0  0  1  0  0  0  0  0999 V2000
   11.7106   -2.3098    1.2658 C   0  0  0  0  0  0  0  0  0  0  0  0
   13.0313   -2.6523    0.7225 N   0  0  0  0  0  0  0  0  0  0  0  0
   14.2010   -2.6281    1.3773 C   0  0  0  0  0  0  0  0  0  0  0  0
   14.3777   -2.3568    2.6732 N   0  0  0  0  0  0  0  0  0  0  0  0
   15.2217   -2.9197    0.5738 N   0  0  0  0  0  0  0  0  0  0  0  0
   14.7965   -3.2519   -0.7875 C   0  0  1  0  0  0  0  0  0  0  0  0
   15.3794   -2.2443   -1.7949 C   0  0  0  0  0  0  0  0  0  0  0  0
   15.9522   -2.6550   -3.0208 C   0  0  0  0  0  0  0  0  0  0  0  0
   16.4340   -1.6937   -3.9273 C   0  0  0  0  0  0  0  0  0  0  0  0
   16.3364   -0.3224   -3.6308 C   0  0  0  0  0  0  0  0  0  0  0  0
   15.7943    0.1250   -2.4073 C   0  0  0  0  0  0  0  0  0  0  0  0
   15.6711    1.5693   -2.0915 C   0  0  0  0  0  0  0  0  0  0  0  0
   15.3832    2.0354   -0.7903 C   0  0  0  0  0  0  0  0  0  0  0  0
   15.3534    3.4188   -0.5357 C   0  0  0  0  0  0  0  0  0  0  0  0
   15.5968    4.3049   -1.5946 C   0  0  0  0  0  0  0  0  0  0  0  0
   15.8275    3.8920   -2.8511 N   0  0  0  0  0  0  0  0  0  0  0  0
   15.8598    2.5642   -3.0762 C   0  0  0  0  0  0  0  0  0  0  0  0
   15.3327   -0.8573   -1.5012 C   0  0  0  0  0  0  0  0  0  0  0  0
   13.2767   -3.0094   -0.6368 C   0  0  0  0  0  0  0  0  0  0  0  0
   12.3981   -3.0674   -1.5055 O   0  0  0  0  0  0  0  0  0  0  0  0
    0.0000    0.0000    0.0000 H   0  0  0  0  0  0  0  0  0  0  0  0
    0.0000    0.0000    0.0000 H   0  0  0  0  0  0  0  0  0  0  0  0
    0.0000    0.0000    0.0000 H   0  0  0  0  0  0  0  0  0  0  0  0
    0.0000    0.0000    0.0000 H   0  0  0  0  0  0  0  0  0  0  0  0
    0.0000    0.0000    0.0000 H   0  0  0  0  0  0  0  0  0  0  0  0
    0.0000    0.0000    0.0000 H   0  0  0  0  0  0  0  0  0  0  0  0
    0.0000    0.0000    0.0000 H   0  0  0  0  0  0  0  0  0  0  0  0
    0.0000    0.0000    0.0000 H   0  0  0  0  0  0  0  0  0  0  0  0
    0.0000    0.0000    0.0000 H   0  0  0  0  0  0  0  0  0  0  0  0
    0.0000    0.0000    0.0000 H   0  0  0  0  0  0  0  0  0  0  0  0
    0.0000    0.0000    0.0000 H   0  0  0  0  0  0  0  0  0  0  0  0
    0.0000    0.0000    0.0000 H   0  0  0  0  0  0  0  0  0  0  0  0
    0.0000    0.0000    0.0000 H   0  0  0  0  0  0  0  0  0  0  0  0
    0.0000    0.0000    0.0000 H   0  0  0  0  0  0  0  0  0  0  0  0
    7.0111   -1.5409   -0.3731 N   0  0  0  0  0  0  0  0  0  0  0  0
    6.8759   -0.0988   -0.5103 C   0  0  0  0  0  0  0  0  0  0  0  0
    6.5908   -1.9439   -1.2497 H   0  0  0  0  0  0  0  0  0  0  0  0
    7.0181    0.3846    0.4789 H   0  0  0  0  0  0  0  0  0  0  0  0
    5.8236    0.1638   -0.8119 H   0  0  0  0  0  0  0  0  0  0  0  0
    7.5736    0.2589   -1.2808 H   0  0  0  0  0  0  0  0  0  0  0  0
  1  2  1  0
  2  3  1  0
  2 19  1  0
  3  4  1  0
  3  5  2  0
  5  6  1  0
  6  7  1  0
  6 19  1  0
  7  8  2  0
  7 18  1  0
  8  9  1  0
  9 10  2  0
 10 11  1  0
 11 12  1  0
 11 18  2  0
 12 13  2  0
 12 17  1  0
 13 14  1  0
 14 15  2  0
 15 16  1  0
 16 17  2  0
 19 20  2  0
  1 21  1  0
  1 22  1  0
  1 23  1  0
  4 24  1  0
  4 25  1  0
  5 26  1  0
  8 27  1  0
  9 28  1  0
 10 29  1  0
 13 30  1  0
 14 31  1  0
 15 32  1  0
 17 33  1  0
 18 34  1  0
 35 36  1  0
 35 37  1  0
 36 38  1  0
 36 39  1  0
 36 40  1  0
  6 35  1  6
M  CHG  1   5   1
M  END
>  <attachment_point>  (32) 
26

>  <score>  (32) 
<NA>

$$$$
CAT-4j
     RDKit          3D

 40 42  0  0  1  0  0  0  0  0999 V2000
   11.7106   -2.3098    1.2658 C   0  0  0  0  0  0  0  0  0  0  0  0
   13.0313   -2.6523    0.7225 N   0  0  0  0  0  0  0  0  0  0  0  0
   14.2010   -2.6281    1.3773 C   0  0  0  0  0  0  0  0  0  0  0  0
   14.3777   -2.3568    2.6732 N   0  0  0  0  0  0  0  0  0  0  0  0
   15.2217   -2.9197    0.5738 N   0  0  0  0  0  0  0  0  0  0  0  0
   14.7965   -3.2519   -0.7875 C   0  0  1  0  0  0  0  0  0  0  0  0
   15.3794   -2.2443   -1.7949 C   0  0  0  0  0  0  0  0  0  0  0  0
   15.9522   -2.6550   -3.0208 C   0  0  0  0  0  0  0  0  0  0  0  0
   16.4340   -1.6937   -3.9273 C   0  0  0  0  0  0  0  0  0  0  0  0
   16.3364   -0.3224   -3.6308 C   0  0  0  0  0  0  0  0  0  0  0  0
   15.7943    0.1250   -2.4073 C   0  0  0  0  0  0  0  0  0  0  0  0
   15.6711    1.5693   -2.0915 C   0  0  0  0  0  0  0  0  0  0  0  0
   15.3832    2.0354   -0.7903 C   0  0  0  0  0  0  0  0  0  0  0  0
   15.3534    3.4188   -0.5357 C   0  0  0  0  0  0  0  0  0  0  0  0
   15.5968    4.3049   -1.5946 C   0  0  0  0  0  0  0  0  0  0  0  0
   15.8275    3.8920   -2.8511 N   0  0  0  0  0  0  0  0  0  0  0  0
   15.8598    2.5642   -3.0762 C   0  0  0  0  0  0  0  0  0  0  0  0
   15.3327   -0.8573   -1.5012 C   0  0  0  0  0  0  0  0  0  0  0  0
   13.2767   -3.0094   -0.6368 C   0  0  0  0  0  0  0  0  0  0  0  0
   12.3981   -3.0674   -1.5055 O   0  0  0  0  0  0  0  0  0  0  0  0
    0.0000    0.0000    0.0000 H   0  0  0  0  0  0  0  0  0  0  0  0
    0.0000    0.0000    0.0000 H   0  0  0  0  0  0  0  0  0  0  0  0
    0.0000    0.0000    0.0000 H   0  0  0  0  0  0  0  0  0  0  0  0
    0.0000    0.0000    0.0000 H   0  0  0  0  0  0  0  0  0  0  0  0
    0.0000    0.0000    0.0000 H   0  0  0  0  0  0  0  0  0  0  0  0
    0.0000    0.0000    0.0000 H   0  0  0  0  0  0  0  0  0  0  0  0
    0.0000    0.0000    0.0000 H   0  0  0  0  0  0  0  0  0  0  0  0
    0.0000    0.0000    0.0000 H   0  0  0  0  0  0  0  0  0  0  0  0
    0.0000    0.0000    0.0000 H   0  0  0  0  0  0  0  0  0  0  0  0
    0.0000    0.0000    0.0000 H   0  0  0  0  0  0  0  0  0  0  0  0
    0.0000    0.0000    0.0000 H   0  0  0  0  0  0  0  0  0  0  0  0
    0.0000    0.0000    0.0000 H   0  0  0  0  0  0  0  0  0  0  0  0
    0.0000    0.0000    0.0000 H   0  0  0  0  0  0  0  0  0  0  0  0
    0.0000    0.0000    0.0000 H   0  0  0  0  0  0  0  0  0  0  0  0
    6.9319   -1.5235   -0.3689 C   0  0  0  0  0  0  0  0  0  0  0  0
    6.5672   -0.2204    0.1032 C   0  0  0  0  0  0  0  0  0  0  0  0
    6.2149   -2.3884   -0.7094 O   0  0  0  0  0  0  0  0  0  0  0  0
    6.4080    0.5061   -0.7184 H   0  0  0  0  0  0  0  0  0  0  0  0
    5.6605   -0.2596    0.7608 H   0  0  0  0  0  0  0  0  0  0  0  0
    7.3412    0.2774    0.7614 H   0  0  0  0  0  0  0  0  0  0  0  0
  1  2  1  0
  2  3  1  0
  2 19  1  0
  3  4  1  0
  3  5  2  0
  5  6  1  0
  6  7  1  0
  6 19  1  0
  7  8  2  0
  7 18  1  0
  8  9  1  0
  9 10  2  0
 10 11  1  0
 11 12  1  0
 11 18  2  0
 12 13  2  0
 12 17  1  0
 13 14  1  0
 14 15  2  0
 15 16  1  0
 16 17  2  0
 19 20  2  0
  1 21  1  0
  1 22  1  0
  1 23  1  0
  4 24  1  0
  4 25  1  0
  5 26  1  0
  8 27  1  0
  9 28  1  0
 10 29  1  0
 13 30  1  0
 14 31  1  0
 15 32  1  0
 17 33  1  0
 18 34  1  0
 35 36  1  0
 35 37  2  0
 36 38  1  0
 36 39  1  0
 36 40  1  0
  6 35  1  6
M  CHG  1   5   1
M  END
>  <attachment_point>  (33) 
26

>  <score>  (33) 
<NA>

$$$$
CAT-4j
     RDKit          3D

 45 48  0  0  1  0  0  0  0  0999 V2000
   11.7106   -2.3098    1.2658 C   0  0  0  0  0  0  0  0  0  0  0  0
   13.0313   -2.6523    0.7225 N   0  0  0  0  0  0  0  0  0  0  0  0
   14.2010   -2.6281    1.3773 C   0  0  0  0  0  0  0  0  0  0  0  0
   14.3777   -2.3568    2.6732 N   0  0  0  0  0  0  0  0  0  0  0  0
   15.2217   -2.9197    0.5738 N   0  0  0  0  0  0  0  0  0  0  0  0
   14.7965   -3.2519   -0.7875 C   0  0  1  0  0  0  0  0  0  0  0  0
   15.3794   -2.2443   -1.7949 C   0  0  0  0  0  0  0  0  0  0  0  0
   15.9522   -2.6550   -3.0208 C   0  0  0  0  0  0  0  0  0  0  0  0
   16.4340   -1.6937   -3.9273 C   0  0  0  0  0  0  0  0  0  0  0  0
   16.3364   -0.3224   -3.6308 C   0  0  0  0  0  0  0  0  0  0  0  0
   15.7943    0.1250   -2.4073 C   0  0  0  0  0  0  0  0  0  0  0  0
   15.6711    1.5693   -2.0915 C   0  0  0  0  0  0  0  0  0  0  0  0
   15.3832    2.0354   -0.7903 C   0  0  0  0  0  0  0  0  0  0  0  0
   15.3534    3.4188   -0.5357 C   0  0  0  0  0  0  0  0  0  0  0  0
   15.5968    4.3049   -1.5946 C   0  0  0  0  0  0  0  0  0  0  0  0
   15.8275    3.8920   -2.8511 N   0  0  0  0  0  0  0  0  0  0  0  0
   15.8598    2.5642   -3.0762 C   0  0  0  0  0  0  0  0  0  0  0  0
   15.3327   -0.8573   -1.5012 C   0  0  0  0  0  0  0  0  0  0  0  0
   13.2767   -3.0094   -0.6368 C   0  0  0  0  0  0  0  0  0  0  0  0
   12.3981   -3.0674   -1.5055 O   0  0  0  0  0  0  0  0  0  0  0  0
    0.0000    0.0000    0.0000 H   0  0  0  0  0  0  0  0  0  0  0  0
    0.0000    0.0000    0.0000 H   0  0  0  0  0  0  0  0  0  0  0  0
    0.0000    0.0000    0.0000 H   0  0  0  0  0  0  0  0  0  0  0  0
    0.0000    0.0000    0.0000 H   0  0  0  0  0  0  0  0  0  0  0  0
    0.0000    0.0000    0.0000 H   0  0  0  0  0  0  0  0  0  0  0  0
    0.0000    0.0000    0.0000 H   0  0  0  0  0  0  0  0  0  0  0  0
    0.0000    0.0000    0.0000 H   0  0  0  0  0  0  0  0  0  0  0  0
    0.0000    0.0000    0.0000 H   0  0  0  0  0  0  0  0  0  0  0  0
    0.0000    0.0000    0.0000 H   0  0  0  0  0  0  0  0  0  0  0  0
    0.0000    0.0000    0.0000 H   0  0  0  0  0  0  0  0  0  0  0  0
    0.0000    0.0000    0.0000 H   0  0  0  0  0  0  0  0  0  0  0  0
    0.0000    0.0000    0.0000 H   0  0  0  0  0  0  0  0  0  0  0  0
    0.0000    0.0000    0.0000 H   0  0  0  0  0  0  0  0  0  0  0  0
    0.0000    0.0000    0.0000 H   0  0  0  0  0  0  0  0  0  0  0  0
    6.9561   -1.5288   -0.3702 C   0  0  0  0  0  0  0  0  0  0  0  0
    6.5410   -0.2311   -0.2262 C   0  0  0  0  0  0  0  0  0  0  0  0
    5.1642   -0.0083   -0.1611 C   0  0  0  0  0  0  0  0  0  0  0  0
    4.2569   -1.0377   -0.2369 C   0  0  0  0  0  0  0  0  0  0  0  0
    2.5351   -0.6623   -0.1455 Cl  0  0  0  0  0  0  0  0  0  0  0  0
    4.7270   -2.3095   -0.3800 C   0  0  0  0  0  0  0  0  0  0  0  0
    6.0845   -2.5858   -0.4500 C   0  0  0  0  0  0  0  0  0  0  0  0
    7.2467    0.5759   -0.1667 H   0  0  0  0  0  0  0  0  0  0  0  0
    4.8592    1.0278   -0.0468 H   0  0  0  0  0  0  0  0  0  0  0  0
    4.0100   -3.1095   -0.4385 H   0  0  0  0  0  0  0  0  0  0  0  0
    6.4061   -3.6001   -0.5625 H   0  0  0  0  0  0  0  0  0  0  0  0
  1  2  1  0
  2  3  1  0
  2 19  1  0
  3  4  1  0
  3  5  2  0
  5  6  1  0
  6  7  1  1
  6 19  1  0
  7  8  2  0
  7 18  1  0
  8  9  1  0
  9 10  2  0
 10 11  1  0
 11 12  1  0
 11 18  2  0
 12 13  2  0
 12 17  1  0
 13 14  1  0
 14 15  2  0
 15 16  1  0
 16 17  2  0
 19 20  2  0
  1 21  1  0
  1 22  1  0
  1 23  1  0
  4 24  1  0
  4 25  1  0
  5 26  1  0
  8 27  1  0
  9 28  1  0
 10 29  1  0
 13 30  1  0
 14 31  1  0
 15 32  1  0
 17 33  1  0
 18 34  1  0
 35 36  2  0
 36 37  1  0
 37 38  2  0
 38 39  1  0
 38 40  1  0
 40 41  2  0
 41 35  1  0
 36 42  1  0
 37 43  1  0
 40 44  1  0
 41 45  1  0
  6 35  1  0
M  CHG  1   5   1
M  END
>  <attachment_point>  (34) 
26

>  <score>  (34) 
<NA>

$$$$
CAT-4j
     RDKit          3D

 52 55  0  0  1  0  0  0  0  0999 V2000
   11.7106   -2.3098    1.2658 C   0  0  0  0  0  0  0  0  0  0  0  0
   13.0313   -2.6523    0.7225 N   0  0  0  0  0  0  0  0  0  0  0  0
   14.2010   -2.6281    1.3773 C   0  0  0  0  0  0  0  0  0  0  0  0
   14.3777   -2.3568    2.6732 N   0  0  0  0  0  0  0  0  0  0  0  0
   15.2217   -2.9197    0.5738 N   0  0  0  0  0  0  0  0  0  0  0  0
   14.7965   -3.2519   -0.7875 C   0  0  1  0  0  0  0  0  0  0  0  0
   15.3794   -2.2443   -1.7949 C   0  0  0  0  0  0  0  0  0  0  0  0
   15.9522   -2.6550   -3.0208 C   0  0  0  0  0  0  0  0  0  0  0  0
   16.4340   -1.6937   -3.9273 C   0  0  0  0  0  0  0  0  0  0  0  0
   16.3364   -0.3224   -3.6308 C   0  0  0  0  0  0  0  0  0  0  0  0
   15.7943    0.1250   -2.4073 C   0  0  0  0  0  0  0  0  0  0  0  0
   15.6711    1.5693   -2.0915 C   0  0  0  0  0  0  0  0  0  0  0  0
   15.3832    2.0354   -0.7903 C   0  0  0  0  0  0  0  0  0  0  0  0
   15.3534    3.4188   -0.5357 C   0  0  0  0  0  0  0  0  0  0  0  0
   15.5968    4.3049   -1.5946 C   0  0  0  0  0  0  0  0  0  0  0  0
   15.8275    3.8920   -2.8511 N   0  0  0  0  0  0  0  0  0  0  0  0
   15.8598    2.5642   -3.0762 C   0  0  0  0  0  0  0  0  0  0  0  0
   15.3327   -0.8573   -1.5012 C   0  0  0  0  0  0  0  0  0  0  0  0
   13.2767   -3.0094   -0.6368 C   0  0  0  0  0  0  0  0  0  0  0  0
   12.3981   -3.0674   -1.5055 O   0  0  0  0  0  0  0  0  0  0  0  0
    0.0000    0.0000    0.0000 H   0  0  0  0  0  0  0  0  0  0  0  0
    0.0000    0.0000    0.0000 H   0  0  0  0  0  0  0  0  0  0  0  0
    0.0000    0.0000    0.0000 H   0  0  0  0  0  0  0  0  0  0  0  0
    0.0000    0.0000    0.0000 H   0  0  0  0  0  0  0  0  0  0  0  0
    0.0000    0.0000    0.0000 H   0  0  0  0  0  0  0  0  0  0  0  0
    0.0000    0.0000    0.0000 H   0  0  0  0  0  0  0  0  0  0  0  0
    0.0000    0.0000    0.0000 H   0  0  0  0  0  0  0  0  0  0  0  0
    0.0000    0.0000    0.0000 H   0  0  0  0  0  0  0  0  0  0  0  0
    0.0000    0.0000    0.0000 H   0  0  0  0  0  0  0  0  0  0  0  0
    0.0000    0.0000    0.0000 H   0  0  0  0  0  0  0  0  0  0  0  0
    0.0000    0.0000    0.0000 H   0  0  0  0  0  0  0  0  0  0  0  0
    0.0000    0.0000    0.0000 H   0  0  0  0  0  0  0  0  0  0  0  0
    0.0000    0.0000    0.0000 H   0  0  0  0  0  0  0  0  0  0  0  0
    0.0000    0.0000    0.0000 H   0  0  0  0  0  0  0  0  0  0  0  0
    7.0378   -1.5467   -0.3746 N   0  0  0  0  0  0  0  0  0  0  0  0
    6.1728   -2.6315   -0.6388 C   0  0  0  0  0  0  0  0  0  0  0  0
    4.7110   -2.3102   -0.6230 C   0  0  0  0  0  0  0  0  0  0  0  0
    4.4706   -0.9247   -0.3007 N   0  0  0  0  0  0  0  0  0  0  0  0
    3.0674   -0.6140   -0.4601 C   0  0  0  0  0  0  0  0  0  0  0  0
    5.2351   -0.0448   -1.1173 C   0  0  0  0  0  0  0  0  0  0  0  0
    6.7030   -0.3021   -0.9683 C   0  0  0  0  0  0  0  0  0  0  0  0
    6.3737   -3.4317    0.1287 H   0  0  0  0  0  0  0  0  0  0  0  0
    6.4437   -3.1112   -1.6128 H   0  0  0  0  0  0  0  0  0  0  0  0
    4.1800   -2.9110    0.1642 H   0  0  0  0  0  0  0  0  0  0  0  0
    4.2324   -2.6215   -1.5833 H   0  0  0  0  0  0  0  0  0  0  0  0
    2.8680    0.2749    0.1866 H   0  0  0  0  0  0  0  0  0  0  0  0
    2.9325   -0.2593   -1.5132 H   0  0  0  0  0  0  0  0  0  0  0  0
    2.4125   -1.4703   -0.2216 H   0  0  0  0  0  0  0  0  0  0  0  0
    4.9671    1.0072   -0.8207 H   0  0  0  0  0  0  0  0  0  0  0  0
    4.8711   -0.1414   -2.1667 H   0  0  0  0  0  0  0  0  0  0  0  0
    7.1017    0.5097   -0.2901 H   0  0  0  0  0  0  0  0  0  0  0  0
    7.1796   -0.1142   -1.9471 H   0  0  0  0  0  0  0  0  0  0  0  0
  1  2  1  0
  2  3  1  0
  2 19  1  0
  3  4  1  0
  3  5  2  0
  5  6  1  0
  6  7  1  0
  6 19  1  0
  7  8  2  0
  7 18  1  0
  8  9  1  0
  9 10  2  0
 10 11  1  0
 11 12  1  0
 11 18  2  0
 12 13  2  0
 12 17  1  0
 13 14  1  0
 14 15  2  0
 15 16  1  0
 16 17  2  0
 19 20  2  0
  1 21  1  0
  1 22  1  0
  1 23  1  0
  4 24  1  0
  4 25  1  0
  5 26  1  0
  8 27  1  0
  9 28  1  0
 10 29  1  0
 13 30  1  0
 14 31  1  0
 15 32  1  0
 17 33  1  0
 18 34  1  0
 35 36  1  0
 36 37  1  0
 37 38  1  0
 38 39  1  0
 38 40  1  0
 40 41  1  0
 41 35  1  0
 36 42  1  0
 36 43  1  0
 37 44  1  0
 37 45  1  0
 39 46  1  0
 39 47  1  0
 39 48  1  0
 40 49  1  0
 40 50  1  0
 41 51  1  0
 41 52  1  0
  6 35  1  6
M  CHG  1   5   1
M  END
>  <attachment_point>  (35) 
26

>  <score>  (35) 
<NA>

$$$$
CAT-4j
     RDKit          3D

 49 52  0  0  1  0  0  0  0  0999 V2000
   11.7106   -2.3098    1.2658 C   0  0  0  0  0  0  0  0  0  0  0  0
   13.0313   -2.6523    0.7225 N   0  0  0  0  0  0  0  0  0  0  0  0
   14.2010   -2.6281    1.3773 C   0  0  0  0  0  0  0  0  0  0  0  0
   14.3777   -2.3568    2.6732 N   0  0  0  0  0  0  0  0  0  0  0  0
   15.2217   -2.9197    0.5738 N   0  0  0  0  0  0  0  0  0  0  0  0
   14.7965   -3.2519   -0.7875 C   0  0  1  0  0  0  0  0  0  0  0  0
   15.3794   -2.2443   -1.7949 C   0  0  0  0  0  0  0  0  0  0  0  0
   15.9522   -2.6550   -3.0208 C   0  0  0  0  0  0  0  0  0  0  0  0
   16.4340   -1.6937   -3.9273 C   0  0  0  0  0  0  0  0  0  0  0  0
   16.3364   -0.3224   -3.6308 C   0  0  0  0  0  0  0  0  0  0  0  0
   15.7943    0.1250   -2.4073 C   0  0  0  0  0  0  0  0  0  0  0  0
   15.6711    1.5693   -2.0915 C   0  0  0  0  0  0  0  0  0  0  0  0
   15.3832    2.0354   -0.7903 C   0  0  0  0  0  0  0  0  0  0  0  0
   15.3534    3.4188   -0.5357 C   0  0  0  0  0  0  0  0  0  0  0  0
   15.5968    4.3049   -1.5946 C   0  0  0  0  0  0  0  0  0  0  0  0
   15.8275    3.8920   -2.8511 N   0  0  0  0  0  0  0  0  0  0  0  0
   15.8598    2.5642   -3.0762 C   0  0  0  0  0  0  0  0  0  0  0  0
   15.3327   -0.8573   -1.5012 C   0  0  0  0  0  0  0  0  0  0  0  0
   13.2767   -3.0094   -0.6368 C   0  0  0  0  0  0  0  0  0  0  0  0
   12.3981   -3.0674   -1.5055 O   0  0  0  0  0  0  0  0  0  0  0  0
    0.0000    0.0000    0.0000 H   0  0  0  0  0  0  0  0  0  0  0  0
    0.0000    0.0000    0.0000 H   0  0  0  0  0  0  0  0  0  0  0  0
    0.0000    0.0000    0.0000 H   0  0  0  0  0  0  0  0  0  0  0  0
    0.0000    0.0000    0.0000 H   0  0  0  0  0  0  0  0  0  0  0  0
    0.0000    0.0000    0.0000 H   0  0  0  0  0  0  0  0  0  0  0  0
    0.0000    0.0000    0.0000 H   0  0  0  0  0  0  0  0  0  0  0  0
    0.0000    0.0000    0.0000 H   0  0  0  0  0  0  0  0  0  0  0  0
    0.0000    0.0000    0.0000 H   0  0  0  0  0  0  0  0  0  0  0  0
    0.0000    0.0000    0.0000 H   0  0  0  0  0  0  0  0  0  0  0  0
    0.0000    0.0000    0.0000 H   0  0  0  0  0  0  0  0  0  0  0  0
    0.0000    0.0000    0.0000 H   0  0  0  0  0  0  0  0  0  0  0  0
    0.0000    0.0000    0.0000 H   0  0  0  0  0  0  0  0  0  0  0  0
    0.0000    0.0000    0.0000 H   0  0  0  0  0  0  0  0  0  0  0  0
    0.0000    0.0000    0.0000 H   0  0  0  0  0  0  0  0  0  0  0  0
    6.9350   -1.5241   -0.3691 O   0  0  0  0  0  0  0  0  0  0  0  0
    6.7212   -1.5021   -1.7487 C   0  0  0  0  0  0  0  0  0  0  0  0
    7.5603   -0.4719   -2.4164 C   0  0  0  0  0  0  0  0  0  0  0  0
    8.8238   -0.7314   -2.8952 C   0  0  0  0  0  0  0  0  0  0  0  0
    9.5594    0.2728   -3.5098 C   0  0  0  0  0  0  0  0  0  0  0  0
    9.0751    1.5537   -3.6700 C   0  0  0  0  0  0  0  0  0  0  0  0
    7.8085    1.8075   -3.1880 C   0  0  0  0  0  0  0  0  0  0  0  0
    7.0747    0.8087   -2.5757 C   0  0  0  0  0  0  0  0  0  0  0  0
    5.6706   -1.2456   -1.9072 H   0  0  0  0  0  0  0  0  0  0  0  0
    6.9719   -2.5125   -2.1422 H   0  0  0  0  0  0  0  0  0  0  0  0
    9.2004   -1.7300   -2.7700 H   0  0  0  0  0  0  0  0  0  0  0  0
   10.5542    0.0713   -3.8876 H   0  0  0  0  0  0  0  0  0  0  0  0
    9.6552    2.3366   -4.1521 H   0  0  0  0  0  0  0  0  0  0  0  0
    7.4055    2.8227   -3.3065 H   0  0  0  0  0  0  0  0  0  0  0  0
    6.0686    1.0375   -2.2008 H   0  0  0  0  0  0  0  0  0  0  0  0
  1  2  1  0
  2  3  1  0
  2 19  1  0
  3  4  1  0
  3  5  2  0
  5  6  1  0
  6  7  1  0
  6 19  1  0
  7  8  2  0
  7 18  1  0
  8  9  1  0
  9 10  2  0
 10 11  1  0
 11 12  1  0
 11 18  2  0
 12 13  2  0
 12 17  1  0
 13 14  1  0
 14 15  2  0
 15 16  1  0
 16 17  2  0
 19 20  2  0
  1 21  1  0
  1 22  1  0
  1 23  1  0
  4 24  1  0
  4 25  1  0
  5 26  1  0
  8 27  1  0
  9 28  1  0
 10 29  1  0
 13 30  1  0
 14 31  1  0
 15 32  1  0
 17 33  1  0
 18 34  1  0
 35 36  1  0
 36 37  1  0
 37 38  2  0
 38 39  1  0
 39 40  2  0
 40 41  1  0
 41 42  2  0
 42 37  1  0
 36 43  1  0
 36 44  1  0
 38 45  1  0
 39 46  1  0
 40 47  1  0
 41 48  1  0
 42 49  1  0
  6 35  1  6
M  CHG  1   5   1
M  END
>  <attachment_point>  (36) 
26

>  <score>  (36) 
<NA>

$$$$
CAT-4j
     RDKit          3D

 40 42  0  0  1  0  0  0  0  0999 V2000
   11.7106   -2.3098    1.2658 C   0  0  0  0  0  0  0  0  0  0  0  0
   13.0313   -2.6523    0.7225 N   0  0  0  0  0  0  0  0  0  0  0  0
   14.2010   -2.6281    1.3773 C   0  0  0  0  0  0  0  0  0  0  0  0
   14.3777   -2.3568    2.6732 N   0  0  0  0  0  0  0  0  0  0  0  0
   15.2217   -2.9197    0.5738 N   0  0  0  0  0  0  0  0  0  0  0  0
   14.7965   -3.2519   -0.7875 C   0  0  1  0  0  0  0  0  0  0  0  0
   15.3794   -2.2443   -1.7949 C   0  0  0  0  0  0  0  0  0  0  0  0
   15.9522   -2.6550   -3.0208 C   0  0  0  0  0  0  0  0  0  0  0  0
   16.4340   -1.6937   -3.9273 C   0  0  0  0  0  0  0  0  0  0  0  0
   16.3364   -0.3224   -3.6308 C   0  0  0  0  0  0  0  0  0  0  0  0
   15.7943    0.1250   -2.4073 C   0  0  0  0  0  0  0  0  0  0  0  0
   15.6711    1.5693   -2.0915 C   0  0  0  0  0  0  0  0  0  0  0  0
   15.3832    2.0354   -0.7903 C   0  0  0  0  0  0  0  0  0  0  0  0
   15.3534    3.4188   -0.5357 C   0  0  0  0  0  0  0  0  0  0  0  0
   15.5968    4.3049   -1.5946 C   0  0  0  0  0  0  0  0  0  0  0  0
   15.8275    3.8920   -2.8511 N   0  0  0  0  0  0  0  0  0  0  0  0
   15.8598    2.5642   -3.0762 C   0  0  0  0  0  0  0  0  0  0  0  0
   15.3327   -0.8573   -1.5012 C   0  0  0  0  0  0  0  0  0  0  0  0
   13.2767   -3.0094   -0.6368 C   0  0  0  0  0  0  0  0  0  0  0  0
   12.3981   -3.0674   -1.5055 O   0  0  0  0  0  0  0  0  0  0  0  0
    0.0000    0.0000    0.0000 H   0  0  0  0  0  0  0  0  0  0  0  0
    0.0000    0.0000    0.0000 H   0  0  0  0  0  0  0  0  0  0  0  0
    0.0000    0.0000    0.0000 H   0  0  0  0  0  0  0  0  0  0  0  0
    0.0000    0.0000    0.0000 H   0  0  0  0  0  0  0  0  0  0  0  0
    0.0000    0.0000    0.0000 H   0  0  0  0  0  0  0  0  0  0  0  0
    0.0000    0.0000    0.0000 H   0  0  0  0  0  0  0  0  0  0  0  0
    0.0000    0.0000    0.0000 H   0  0  0  0  0  0  0  0  0  0  0  0
    0.0000    0.0000    0.0000 H   0  0  0  0  0  0  0  0  0  0  0  0
    0.0000    0.0000    0.0000 H   0  0  0  0  0  0  0  0  0  0  0  0
    0.0000    0.0000    0.0000 H   0  0  0  0  0  0  0  0  0  0  0  0
    0.0000    0.0000    0.0000 H   0  0  0  0  0  0  0  0  0  0  0  0
    0.0000    0.0000    0.0000 H   0  0  0  0  0  0  0  0  0  0  0  0
    0.0000    0.0000    0.0000 H   0  0  0  0  0  0  0  0  0  0  0  0
    0.0000    0.0000    0.0000 H   0  0  0  0  0  0  0  0  0  0  0  0
    6.7742   -1.4888   -0.3605 C   0  0  0  0  0  0  0  0  0  0  0  0
    7.0868   -0.3312    0.3300 N   0  0  0  0  0  0  0  0  0  0  0  0
    6.8267   -1.4874   -1.4282 H   0  0  0  0  0  0  0  0  0  0  0  0
    6.7335   -2.4360    0.1592 H   0  0  0  0  0  0  0  0  0  0  0  0
    7.7329    0.3472   -0.0692 H   0  0  0  0  0  0  0  0  0  0  0  0
    6.6310   -0.1178    1.2020 H   0  0  0  0  0  0  0  0  0  0  0  0
  1  2  1  0
  2  3  1  0
  2 19  1  0
  3  4  1  0
  3  5  2  0
  5  6  1  0
  6  7  1  0
  6 19  1  0
  7  8  2  0
  7 18  1  0
  8  9  1  0
  9 10  2  0
 10 11  1  0
 11 12  1  0
 11 18  2  0
 12 13  2  0
 12 17  1  0
 13 14  1  0
 14 15  2  0
 15 16  1  0
 16 17  2  0
 19 20  2  0
  1 21  1  0
  1 22  1  0
  1 23  1  0
  4 24  1  0
  4 25  1  0
  5 26  1  0
  8 27  1  0
  9 28  1  0
 10 29  1  0
 13 30  1  0
 14 31  1  0
 15 32  1  0
 17 33  1  0
 18 34  1  0
 35 36  1  0
 35 37  1  0
 35 38  1  0
 36 39  1  0
 36 40  1  0
  6 35  1  6
M  CHG  1   5   1
M  END
>  <attachment_point>  (37) 
26

>  <score>  (37) 
<NA>

$$$$
CAT-4j
     RDKit          3D

 51 54  0  0  1  0  0  0  0  0999 V2000
   11.7106   -2.3098    1.2658 C   0  0  0  0  0  0  0  0  0  0  0  0
   13.0313   -2.6523    0.7225 N   0  0  0  0  0  0  0  0  0  0  0  0
   14.2010   -2.6281    1.3773 C   0  0  0  0  0  0  0  0  0  0  0  0
   14.3777   -2.3568    2.6732 N   0  0  0  0  0  0  0  0  0  0  0  0
   15.2217   -2.9197    0.5738 N   0  0  0  0  0  0  0  0  0  0  0  0
   14.7965   -3.2519   -0.7875 C   0  0  1  0  0  0  0  0  0  0  0  0
   15.3794   -2.2443   -1.7949 C   0  0  0  0  0  0  0  0  0  0  0  0
   15.9522   -2.6550   -3.0208 C   0  0  0  0  0  0  0  0  0  0  0  0
   16.4340   -1.6937   -3.9273 C   0  0  0  0  0  0  0  0  0  0  0  0
   16.3364   -0.3224   -3.6308 C   0  0  0  0  0  0  0  0  0  0  0  0
   15.7943    0.1250   -2.4073 C   0  0  0  0  0  0  0  0  0  0  0  0
   15.6711    1.5693   -2.0915 C   0  0  0  0  0  0  0  0  0  0  0  0
   15.3832    2.0354   -0.7903 C   0  0  0  0  0  0  0  0  0  0  0  0
   15.3534    3.4188   -0.5357 C   0  0  0  0  0  0  0  0  0  0  0  0
   15.5968    4.3049   -1.5946 C   0  0  0  0  0  0  0  0  0  0  0  0
   15.8275    3.8920   -2.8511 N   0  0  0  0  0  0  0  0  0  0  0  0
   15.8598    2.5642   -3.0762 C   0  0  0  0  0  0  0  0  0  0  0  0
   15.3327   -0.8573   -1.5012 C   0  0  0  0  0  0  0  0  0  0  0  0
   13.2767   -3.0094   -0.6368 C   0  0  0  0  0  0  0  0  0  0  0  0
   12.3981   -3.0674   -1.5055 O   0  0  0  0  0  0  0  0  0  0  0  0
    0.0000    0.0000    0.0000 H   0  0  0  0  0  0  0  0  0  0  0  0
    0.0000    0.0000    0.0000 H   0  0  0  0  0  0  0  0  0  0  0  0
    0.0000    0.0000    0.0000 H   0  0  0  0  0  0  0  0  0  0  0  0
    0.0000    0.0000    0.0000 H   0  0  0  0  0  0  0  0  0  0  0  0
    0.0000    0.0000    0.0000 H   0  0  0  0  0  0  0  0  0  0  0  0
    0.0000    0.0000    0.0000 H   0  0  0  0  0  0  0  0  0  0  0  0
    0.0000    0.0000    0.0000 H   0  0  0  0  0  0  0  0  0  0  0  0
    0.0000    0.0000    0.0000 H   0  0  0  0  0  0  0  0  0  0  0  0
    0.0000    0.0000    0.0000 H   0  0  0  0  0  0  0  0  0  0  0  0
    0.0000    0.0000    0.0000 H   0  0  0  0  0  0  0  0  0  0  0  0
    0.0000    0.0000    0.0000 H   0  0  0  0  0  0  0  0  0  0  0  0
    0.0000    0.0000    0.0000 H   0  0  0  0  0  0  0  0  0  0  0  0
    0.0000    0.0000    0.0000 H   0  0  0  0  0  0  0  0  0  0  0  0
    0.0000    0.0000    0.0000 H   0  0  0  0  0  0  0  0  0  0  0  0
    6.9829   -1.5347   -0.3716 C   0  0  0  0  0  0  0  0  0  0  0  0
    6.2488   -2.5023   -1.3011 C   0  0  0  0  0  0  0  0  0  0  0  0
    6.4878   -3.9020   -0.8714 C   0  0  0  0  0  0  0  0  0  0  0  0
    7.5486   -4.6494   -1.3483 C   0  0  0  0  0  0  0  0  0  0  0  0
    7.7354   -5.9494   -0.9225 C   0  0  0  0  0  0  0  0  0  0  0  0
    6.8936   -6.5618   -0.0184 C   0  0  0  0  0  0  0  0  0  0  0  0
    5.8350   -5.8168    0.4579 C   0  0  0  0  0  0  0  0  0  0  0  0
    5.6451   -4.5151    0.0339 C   0  0  0  0  0  0  0  0  0  0  0  0
    6.5827   -1.5742    0.6452 H   0  0  0  0  0  0  0  0  0  0  0  0
    6.8450   -0.5305   -0.8092 H   0  0  0  0  0  0  0  0  0  0  0  0
    5.1617   -2.2507   -1.2420 H   0  0  0  0  0  0  0  0  0  0  0  0
    6.6056   -2.2906   -2.3205 H   0  0  0  0  0  0  0  0  0  0  0  0
    8.2193   -4.1953   -2.0541 H   0  0  0  0  0  0  0  0  0  0  0  0
    8.5688   -6.5644   -1.2852 H   0  0  0  0  0  0  0  0  0  0  0  0
    7.0583   -7.5868    0.3042 H   0  0  0  0  0  0  0  0  0  0  0  0
    5.1604   -6.2759    1.1688 H   0  0  0  0  0  0  0  0  0  0  0  0
    4.8060   -3.9201    0.4095 H   0  0  0  0  0  0  0  0  0  0  0  0
  1  2  1  0
  2  3  1  0
  2 19  1  0
  3  4  1  0
  3  5  2  0
  5  6  1  0
  6  7  1  0
  6 19  1  0
  7  8  2  0
  7 18  1  0
  8  9  1  0
  9 10  2  0
 10 11  1  0
 11 12  1  0
 11 18  2  0
 12 13  2  0
 12 17  1  0
 13 14  1  0
 14 15  2  0
 15 16  1  0
 16 17  2  0
 19 20  2  0
  1 21  1  0
  1 22  1  0
  1 23  1  0
  4 24  1  0
  4 25  1  0
  5 26  1  0
  8 27  1  0
  9 28  1  0
 10 29  1  0
 13 30  1  0
 14 31  1  0
 15 32  1  0
 17 33  1  0
 18 34  1  0
 35 36  1  0
 36 37  1  0
 37 38  2  0
 38 39  1  0
 39 40  2  0
 40 41  1  0
 41 42  2  0
 42 37  1  0
 35 43  1  0
 35 44  1  0
 36 45  1  0
 36 46  1  0
 38 47  1  0
 39 48  1  0
 40 49  1  0
 41 50  1  0
 42 51  1  0
  6 35  1  6
M  CHG  1   5   1
M  END
>  <attachment_point>  (38) 
26

>  <score>  (38) 
<NA>

$$$$
CAT-4j
     RDKit          3D

 50 53  0  0  1  0  0  0  0  0999 V2000
   11.7106   -2.3098    1.2658 C   0  0  0  0  0  0  0  0  0  0  0  0
   13.0313   -2.6523    0.7225 N   0  0  0  0  0  0  0  0  0  0  0  0
   14.2010   -2.6281    1.3773 C   0  0  0  0  0  0  0  0  0  0  0  0
   14.3777   -2.3568    2.6732 N   0  0  0  0  0  0  0  0  0  0  0  0
   15.2217   -2.9197    0.5738 N   0  0  0  0  0  0  0  0  0  0  0  0
   14.7965   -3.2519   -0.7875 C   0  0  1  0  0  0  0  0  0  0  0  0
   15.3794   -2.2443   -1.7949 C   0  0  0  0  0  0  0  0  0  0  0  0
   15.9522   -2.6550   -3.0208 C   0  0  0  0  0  0  0  0  0  0  0  0
   16.4340   -1.6937   -3.9273 C   0  0  0  0  0  0  0  0  0  0  0  0
   16.3364   -0.3224   -3.6308 C   0  0  0  0  0  0  0  0  0  0  0  0
   15.7943    0.1250   -2.4073 C   0  0  0  0  0  0  0  0  0  0  0  0
   15.6711    1.5693   -2.0915 C   0  0  0  0  0  0  0  0  0  0  0  0
   15.3832    2.0354   -0.7903 C   0  0  0  0  0  0  0  0  0  0  0  0
   15.3534    3.4188   -0.5357 C   0  0  0  0  0  0  0  0  0  0  0  0
   15.5968    4.3049   -1.5946 C   0  0  0  0  0  0  0  0  0  0  0  0
   15.8275    3.8920   -2.8511 N   0  0  0  0  0  0  0  0  0  0  0  0
   15.8598    2.5642   -3.0762 C   0  0  0  0  0  0  0  0  0  0  0  0
   15.3327   -0.8573   -1.5012 C   0  0  0  0  0  0  0  0  0  0  0  0
   13.2767   -3.0094   -0.6368 C   0  0  0  0  0  0  0  0  0  0  0  0
   12.3981   -3.0674   -1.5055 O   0  0  0  0  0  0  0  0  0  0  0  0
    0.0000    0.0000    0.0000 H   0  0  0  0  0  0  0  0  0  0  0  0
    0.0000    0.0000    0.0000 H   0  0  0  0  0  0  0  0  0  0  0  0
    0.0000    0.0000    0.0000 H   0  0  0  0  0  0  0  0  0  0  0  0
    0.0000    0.0000    0.0000 H   0  0  0  0  0  0  0  0  0  0  0  0
    0.0000    0.0000    0.0000 H   0  0  0  0  0  0  0  0  0  0  0  0
    0.0000    0.0000    0.0000 H   0  0  0  0  0  0  0  0  0  0  0  0
    0.0000    0.0000    0.0000 H   0  0  0  0  0  0  0  0  0  0  0  0
    0.0000    0.0000    0.0000 H   0  0  0  0  0  0  0  0  0  0  0  0
    0.0000    0.0000    0.0000 H   0  0  0  0  0  0  0  0  0  0  0  0
    0.0000    0.0000    0.0000 H   0  0  0  0  0  0  0  0  0  0  0  0
    0.0000    0.0000    0.0000 H   0  0  0  0  0  0  0  0  0  0  0  0
    0.0000    0.0000    0.0000 H   0  0  0  0  0  0  0  0  0  0  0  0
    0.0000    0.0000    0.0000 H   0  0  0  0  0  0  0  0  0  0  0  0
    0.0000    0.0000    0.0000 H   0  0  0  0  0  0  0  0  0  0  0  0
    6.9481   -1.5270   -0.3698 N   0  0  0  0  0  0  0  0  0  0  0  0
    6.8652   -0.5602    0.6318 C   0  0  0  0  0  0  0  0  0  0  0  0
    5.6971   -0.6349    1.5598 C   0  0  0  0  0  0  0  0  0  0  0  0
    5.3807   -2.0485    1.9747 C   0  0  0  0  0  0  0  0  0  0  0  0
    5.1929   -2.8670    0.7451 C   0  0  0  0  0  0  0  0  0  0  0  0
    6.2104   -2.7062   -0.3080 C   0  0  0  0  0  0  0  0  0  0  0  0
    6.8194    0.4602    0.1438 H   0  0  0  0  0  0  0  0  0  0  0  0
    7.7852   -0.4866    1.2853 H   0  0  0  0  0  0  0  0  0  0  0  0
    4.8157   -0.1997    1.0751 H   0  0  0  0  0  0  0  0  0  0  0  0
    5.9349   -0.0628    2.5019 H   0  0  0  0  0  0  0  0  0  0  0  0
    4.3798   -2.0009    2.4951 H   0  0  0  0  0  0  0  0  0  0  0  0
    6.1179   -2.4981    2.6388 H   0  0  0  0  0  0  0  0  0  0  0  0
    5.1069   -3.9372    1.0739 H   0  0  0  0  0  0  0  0  0  0  0  0
    4.1672   -2.6277    0.3371 H   0  0  0  0  0  0  0  0  0  0  0  0
    5.6945   -2.8449   -1.3071 H   0  0  0  0  0  0  0  0  0  0  0  0
    6.9019   -3.6001   -0.2567 H   0  0  0  0  0  0  0  0  0  0  0  0
  1  2  1  0
  2  3  1  0
  2 19  1  0
  3  4  1  0
  3  5  2  0
  5  6  1  0
  6  7  1  0
  6 19  1  0
  7  8  2  0
  7 18  1  0
  8  9  1  0
  9 10  2  0
 10 11  1  0
 11 12  1  0
 11 18  2  0
 12 13  2  0
 12 17  1  0
 13 14  1  0
 14 15  2  0
 15 16  1  0
 16 17  2  0
 19 20  2  0
  1 21  1  0
  1 22  1  0
  1 23  1  0
  4 24  1  0
  4 25  1  0
  5 26  1  0
  8 27  1  0
  9 28  1  0
 10 29  1  0
 13 30  1  0
 14 31  1  0
 15 32  1  0
 17 33  1  0
 18 34  1  0
 35 36  1  0
 36 37  1  0
 37 38  1  0
 38 39  1  0
 39 40  1  0
 40 35  1  0
 36 41  1  0
 36 42  1  0
 37 43  1  0
 37 44  1  0
 38 45  1  0
 38 46  1  0
 39 47  1  0
 39 48  1  0
 40 49  1  0
 40 50  1  0
  6 35  1  6
M  CHG  1   5   1
M  END
>  <attachment_point>  (39) 
26

>  <score>  (39) 
<NA>

$$$$
CAT-4j
     RDKit          3D

 42 45  0  0  1  0  0  0  0  0999 V2000
   11.7106   -2.3098    1.2658 C   0  0  0  0  0  0  0  0  0  0  0  0
   13.0313   -2.6523    0.7225 N   0  0  0  0  0  0  0  0  0  0  0  0
   14.2010   -2.6281    1.3773 C   0  0  0  0  0  0  0  0  0  0  0  0
   14.3777   -2.3568    2.6732 N   0  0  0  0  0  0  0  0  0  0  0  0
   15.2217   -2.9197    0.5738 N   0  0  0  0  0  0  0  0  0  0  0  0
   14.7965   -3.2519   -0.7875 C   0  0  1  0  0  0  0  0  0  0  0  0
   15.3794   -2.2443   -1.7949 C   0  0  0  0  0  0  0  0  0  0  0  0
   15.9522   -2.6550   -3.0208 C   0  0  0  0  0  0  0  0  0  0  0  0
   16.4340   -1.6937   -3.9273 C   0  0  0  0  0  0  0  0  0  0  0  0
   16.3364   -0.3224   -3.6308 C   0  0  0  0  0  0  0  0  0  0  0  0
   15.7943    0.1250   -2.4073 C   0  0  0  0  0  0  0  0  0  0  0  0
   15.6711    1.5693   -2.0915 C   0  0  0  0  0  0  0  0  0  0  0  0
   15.3832    2.0354   -0.7903 C   0  0  0  0  0  0  0  0  0  0  0  0
   15.3534    3.4188   -0.5357 C   0  0  0  0  0  0  0  0  0  0  0  0
   15.5968    4.3049   -1.5946 C   0  0  0  0  0  0  0  0  0  0  0  0
   15.8275    3.8920   -2.8511 N   0  0  0  0  0  0  0  0  0  0  0  0
   15.8598    2.5642   -3.0762 C   0  0  0  0  0  0  0  0  0  0  0  0
   15.3327   -0.8573   -1.5012 C   0  0  0  0  0  0  0  0  0  0  0  0
   13.2767   -3.0094   -0.6368 C   0  0  0  0  0  0  0  0  0  0  0  0
   12.3981   -3.0674   -1.5055 O   0  0  0  0  0  0  0  0  0  0  0  0
    0.0000    0.0000    0.0000 H   0  0  0  0  0  0  0  0  0  0  0  0
    0.0000    0.0000    0.0000 H   0  0  0  0  0  0  0  0  0  0  0  0
    0.0000    0.0000    0.0000 H   0  0  0  0  0  0  0  0  0  0  0  0
    0.0000    0.0000    0.0000 H   0  0  0  0  0  0  0  0  0  0  0  0
    0.0000    0.0000    0.0000 H   0  0  0  0  0  0  0  0  0  0  0  0
    0.0000    0.0000    0.0000 H   0  0  0  0  0  0  0  0  0  0  0  0
    0.0000    0.0000    0.0000 H   0  0  0  0  0  0  0  0  0  0  0  0
    0.0000    0.0000    0.0000 H   0  0  0  0  0  0  0  0  0  0  0  0
    0.0000    0.0000    0.0000 H   0  0  0  0  0  0  0  0  0  0  0  0
    0.0000    0.0000    0.0000 H   0  0  0  0  0  0  0  0  0  0  0  0
    0.0000    0.0000    0.0000 H   0  0  0  0  0  0  0  0  0  0  0  0
    0.0000    0.0000    0.0000 H   0  0  0  0  0  0  0  0  0  0  0  0
    0.0000    0.0000    0.0000 H   0  0  0  0  0  0  0  0  0  0  0  0
    0.0000    0.0000    0.0000 H   0  0  0  0  0  0  0  0  0  0  0  0
    6.9624   -1.5302   -0.3706 C   0  0  0  0  0  0  0  0  0  0  0  0
    6.4739   -0.2505   -0.4051 C   0  0  0  0  0  0  0  0  0  0  0  0
    5.1317   -0.1083   -0.3258 C   0  0  0  0  0  0  0  0  0  0  0  0
    4.3906   -1.2576   -0.2186 C   0  0  0  0  0  0  0  0  0  0  0  0
    5.5682   -2.4852   -0.2311 S   0  0  0  0  0  0  0  0  0  0  0  0
    7.1603    0.6384   -0.4955 H   0  0  0  0  0  0  0  0  0  0  0  0
    4.6608    0.9124   -0.3482 H   0  0  0  0  0  0  0  0  0  0  0  0
    3.2871   -1.3045   -0.1448 H   0  0  0  0  0  0  0  0  0  0  0  0
  1  2  1  0
  2  3  1  0
  2 19  1  0
  3  4  1  0
  3  5  2  0
  5  6  1  0
  6  7  1  1
  6 19  1  0
  7  8  2  0
  7 18  1  0
  8  9  1  0
  9 10  2  0
 10 11  1  0
 11 12  1  0
 11 18  2  0
 12 13  2  0
 12 17  1  0
 13 14  1  0
 14 15  2  0
 15 16  1  0
 16 17  2  0
 19 20  2  0
  1 21  1  0
  1 22  1  0
  1 23  1  0
  4 24  1  0
  4 25  1  0
  5 26  1  0
  8 27  1  0
  9 28  1  0
 10 29  1  0
 13 30  1  0
 14 31  1  0
 15 32  1  0
 17 33  1  0
 18 34  1  0
 35 36  2  0
 36 37  1  0
 37 38  2  0
 38 39  1  0
 39 35  1  0
 36 40  1  0
 37 41  1  0
 38 42  1  0
  6 35  1  0
M  CHG  1   5   1
M  END
>  <attachment_point>  (40) 
26

>  <score>  (40) 
<NA>

$$$$
CAT-4j
     RDKit          3D

 42 45  0  0  1  0  0  0  0  0999 V2000
   11.7106   -2.3098    1.2658 C   0  0  0  0  0  0  0  0  0  0  0  0
   13.0313   -2.6523    0.7225 N   0  0  0  0  0  0  0  0  0  0  0  0
   14.2010   -2.6281    1.3773 C   0  0  0  0  0  0  0  0  0  0  0  0
   14.3777   -2.3568    2.6732 N   0  0  0  0  0  0  0  0  0  0  0  0
   15.2217   -2.9197    0.5738 N   0  0  0  0  0  0  0  0  0  0  0  0
   14.7965   -3.2519   -0.7875 C   0  0  1  0  0  0  0  0  0  0  0  0
   15.3794   -2.2443   -1.7949 C   0  0  0  0  0  0  0  0  0  0  0  0
   15.9522   -2.6550   -3.0208 C   0  0  0  0  0  0  0  0  0  0  0  0
   16.4340   -1.6937   -3.9273 C   0  0  0  0  0  0  0  0  0  0  0  0
   16.3364   -0.3224   -3.6308 C   0  0  0  0  0  0  0  0  0  0  0  0
   15.7943    0.1250   -2.4073 C   0  0  0  0  0  0  0  0  0  0  0  0
   15.6711    1.5693   -2.0915 C   0  0  0  0  0  0  0  0  0  0  0  0
   15.3832    2.0354   -0.7903 C   0  0  0  0  0  0  0  0  0  0  0  0
   15.3534    3.4188   -0.5357 C   0  0  0  0  0  0  0  0  0  0  0  0
   15.5968    4.3049   -1.5946 C   0  0  0  0  0  0  0  0  0  0  0  0
   15.8275    3.8920   -2.8511 N   0  0  0  0  0  0  0  0  0  0  0  0
   15.8598    2.5642   -3.0762 C   0  0  0  0  0  0  0  0  0  0  0  0
   15.3327   -0.8573   -1.5012 C   0  0  0  0  0  0  0  0  0  0  0  0
   13.2767   -3.0094   -0.6368 C   0  0  0  0  0  0  0  0  0  0  0  0
   12.3981   -3.0674   -1.5055 O   0  0  0  0  0  0  0  0  0  0  0  0
    0.0000    0.0000    0.0000 H   0  0  0  0  0  0  0  0  0  0  0  0
    0.0000    0.0000    0.0000 H   0  0  0  0  0  0  0  0  0  0  0  0
    0.0000    0.0000    0.0000 H   0  0  0  0  0  0  0  0  0  0  0  0
    0.0000    0.0000    0.0000 H   0  0  0  0  0  0  0  0  0  0  0  0
    0.0000    0.0000    0.0000 H   0  0  0  0  0  0  0  0  0  0  0  0
    0.0000    0.0000    0.0000 H   0  0  0  0  0  0  0  0  0  0  0  0
    0.0000    0.0000    0.0000 H   0  0  0  0  0  0  0  0  0  0  0  0
    0.0000    0.0000    0.0000 H   0  0  0  0  0  0  0  0  0  0  0  0
    0.0000    0.0000    0.0000 H   0  0  0  0  0  0  0  0  0  0  0  0
    0.0000    0.0000    0.0000 H   0  0  0  0  0  0  0  0  0  0  0  0
    0.0000    0.0000    0.0000 H   0  0  0  0  0  0  0  0  0  0  0  0
    0.0000    0.0000    0.0000 H   0  0  0  0  0  0  0  0  0  0  0  0
    0.0000    0.0000    0.0000 H   0  0  0  0  0  0  0  0  0  0  0  0
    0.0000    0.0000    0.0000 H   0  0  0  0  0  0  0  0  0  0  0  0
    6.9811   -1.5343   -0.3715 C   0  0  0  0  0  0  0  0  0  0  0  0
    6.5539   -0.2198   -0.8788 C   0  0  0  0  0  0  0  0  0  0  0  0
    6.5270   -0.4436    0.5907 C   0  0  0  0  0  0  0  0  0  0  0  0
    6.3532   -2.4338   -0.4121 H   0  0  0  0  0  0  0  0  0  0  0  0
    5.6112   -0.0656   -1.4305 H   0  0  0  0  0  0  0  0  0  0  0  0
    7.3584    0.4815   -1.2181 H   0  0  0  0  0  0  0  0  0  0  0  0
    7.3192   -0.0938    1.2582 H   0  0  0  0  0  0  0  0  0  0  0  0
    5.5271   -0.5545    1.0426 H   0  0  0  0  0  0  0  0  0  0  0  0
  1  2  1  0
  2  3  1  0
  2 19  1  0
  3  4  1  0
  3  5  2  0
  5  6  1  0
  6  7  1  0
  6 19  1  0
  7  8  2  0
  7 18  1  0
  8  9  1  0
  9 10  2  0
 10 11  1  0
 11 12  1  0
 11 18  2  0
 12 13  2  0
 12 17  1  0
 13 14  1  0
 14 15  2  0
 15 16  1  0
 16 17  2  0
 19 20  2  0
  1 21  1  0
  1 22  1  0
  1 23  1  0
  4 24  1  0
  4 25  1  0
  5 26  1  0
  8 27  1  0
  9 28  1  0
 10 29  1  0
 13 30  1  0
 14 31  1  0
 15 32  1  0
 17 33  1  0
 18 34  1  0
 35 36  1  0
 36 37  1  0
 37 35  1  0
 35 38  1  0
 36 39  1  0
 36 40  1  0
 37 41  1  0
 37 42  1  0
  6 35  1  6
M  CHG  1   5   1
M  END
>  <attachment_point>  (41) 
26

>  <score>  (41) 
<NA>

$$$$
CAT-4j
     RDKit          3D

 48 51  0  0  1  0  0  0  0  0999 V2000
   11.7106   -2.3098    1.2658 C   0  0  0  0  0  0  0  0  0  0  0  0
   13.0313   -2.6523    0.7225 N   0  0  0  0  0  0  0  0  0  0  0  0
   14.2010   -2.6281    1.3773 C   0  0  0  0  0  0  0  0  0  0  0  0
   14.3777   -2.3568    2.6732 N   0  0  0  0  0  0  0  0  0  0  0  0
   15.2217   -2.9197    0.5738 N   0  0  0  0  0  0  0  0  0  0  0  0
   14.7965   -3.2519   -0.7875 C   0  0  1  0  0  0  0  0  0  0  0  0
   15.3794   -2.2443   -1.7949 C   0  0  0  0  0  0  0  0  0  0  0  0
   15.9522   -2.6550   -3.0208 C   0  0  0  0  0  0  0  0  0  0  0  0
   16.4340   -1.6937   -3.9273 C   0  0  0  0  0  0  0  0  0  0  0  0
   16.3364   -0.3224   -3.6308 C   0  0  0  0  0  0  0  0  0  0  0  0
   15.7943    0.1250   -2.4073 C   0  0  0  0  0  0  0  0  0  0  0  0
   15.6711    1.5693   -2.0915 C   0  0  0  0  0  0  0  0  0  0  0  0
   15.3832    2.0354   -0.7903 C   0  0  0  0  0  0  0  0  0  0  0  0
   15.3534    3.4188   -0.5357 C   0  0  0  0  0  0  0  0  0  0  0  0
   15.5968    4.3049   -1.5946 C   0  0  0  0  0  0  0  0  0  0  0  0
   15.8275    3.8920   -2.8511 N   0  0  0  0  0  0  0  0  0  0  0  0
   15.8598    2.5642   -3.0762 C   0  0  0  0  0  0  0  0  0  0  0  0
   15.3327   -0.8573   -1.5012 C   0  0  0  0  0  0  0  0  0  0  0  0
   13.2767   -3.0094   -0.6368 C   0  0  0  0  0  0  0  0  0  0  0  0
   12.3981   -3.0674   -1.5055 O   0  0  0  0  0  0  0  0  0  0  0  0
    0.0000    0.0000    0.0000 H   0  0  0  0  0  0  0  0  0  0  0  0
    0.0000    0.0000    0.0000 H   0  0  0  0  0  0  0  0  0  0  0  0
    0.0000    0.0000    0.0000 H   0  0  0  0  0  0  0  0  0  0  0  0
    0.0000    0.0000    0.0000 H   0  0  0  0  0  0  0  0  0  0  0  0
    0.0000    0.0000    0.0000 H   0  0  0  0  0  0  0  0  0  0  0  0
    0.0000    0.0000    0.0000 H   0  0  0  0  0  0  0  0  0  0  0  0
    0.0000    0.0000    0.0000 H   0  0  0  0  0  0  0  0  0  0  0  0
    0.0000    0.0000    0.0000 H   0  0  0  0  0  0  0  0  0  0  0  0
    0.0000    0.0000    0.0000 H   0  0  0  0  0  0  0  0  0  0  0  0
    0.0000    0.0000    0.0000 H   0  0  0  0  0  0  0  0  0  0  0  0
    0.0000    0.0000    0.0000 H   0  0  0  0  0  0  0  0  0  0  0  0
    0.0000    0.0000    0.0000 H   0  0  0  0  0  0  0  0  0  0  0  0
    0.0000    0.0000    0.0000 H   0  0  0  0  0  0  0  0  0  0  0  0
    0.0000    0.0000    0.0000 H   0  0  0  0  0  0  0  0  0  0  0  0
    6.8996   -1.5164   -0.3672 C   0  0  0  0  0  0  0  0  0  0  0  0
    6.0244   -2.4705   -0.6822 C   0  0  0  0  0  0  0  0  0  0  0  0
    4.6612   -2.1400   -0.5998 C   0  0  0  0  0  0  0  0  0  0  0  0
    4.2640   -0.8878   -0.2114 C   0  0  0  0  0  0  0  0  0  0  0  0
    2.8130   -0.5575   -0.1306 C   0  0  0  0  0  0  0  0  0  0  0  0
    5.1928    0.0726    0.1064 C   0  0  0  0  0  0  0  0  0  0  0  0
    6.5621   -0.2809    0.0169 C   0  0  0  0  0  0  0  0  0  0  0  0
    6.3114   -3.4677   -0.9920 H   0  0  0  0  0  0  0  0  0  0  0  0
    3.9033   -2.8665   -0.8411 H   0  0  0  0  0  0  0  0  0  0  0  0
    2.5556   -0.0450    0.8268 H   0  0  0  0  0  0  0  0  0  0  0  0
    2.4896    0.0667   -0.9880 H   0  0  0  0  0  0  0  0  0  0  0  0
    2.2294   -1.5179   -0.1431 H   0  0  0  0  0  0  0  0  0  0  0  0
    4.8883    1.0470    0.4087 H   0  0  0  0  0  0  0  0  0  0  0  0
    7.2933    0.4755    0.2671 H   0  0  0  0  0  0  0  0  0  0  0  0
  1  2  1  0
  2  3  1  0
  2 19  1  0
  3  4  1  0
  3  5  2  0
  5  6  1  0
  6  7  1  1
  6 19  1  0
  7  8  2  0
  7 18  1  0
  8  9  1  0
  9 10  2  0
 10 11  1  0
 11 12  1  0
 11 18  2  0
 12 13  2  0
 12 17  1  0
 13 14  1  0
 14 15  2  0
 15 16  1  0
 16 17  2  0
 19 20  2  0
  1 21  1  0
  1 22  1  0
  1 23  1  0
  4 24  1  0
  4 25  1  0
  5 26  1  0
  8 27  1  0
  9 28  1  0
 10 29  1  0
 13 30  1  0
 14 31  1  0
 15 32  1  0
 17 33  1  0
 18 34  1  0
 35 36  2  0
 36 37  1  0
 37 38  2  0
 38 39  1  0
 38 40  1  0
 40 41  2  0
 41 35  1  0
 36 42  1  0
 37 43  1  0
 39 44  1  0
 39 45  1  0
 39 46  1  0
 40 47  1  0
 41 48  1  0
  6 35  1  0
M  CHG  1   5   1
M  END
>  <attachment_point>  (42) 
26

>  <score>  (42) 
<NA>

$$$$
CAT-4j
     RDKit          3D

 46 49  0  0  1  0  0  0  0  0999 V2000
   11.7106   -2.3098    1.2658 C   0  0  0  0  0  0  0  0  0  0  0  0
   13.0313   -2.6523    0.7225 N   0  0  0  0  0  0  0  0  0  0  0  0
   14.2010   -2.6281    1.3773 C   0  0  0  0  0  0  0  0  0  0  0  0
   14.3777   -2.3568    2.6732 N   0  0  0  0  0  0  0  0  0  0  0  0
   15.2217   -2.9197    0.5738 N   0  0  0  0  0  0  0  0  0  0  0  0
   14.7965   -3.2519   -0.7875 C   0  0  1  0  0  0  0  0  0  0  0  0
   15.3794   -2.2443   -1.7949 C   0  0  0  0  0  0  0  0  0  0  0  0
   15.9522   -2.6550   -3.0208 C   0  0  0  0  0  0  0  0  0  0  0  0
   16.4340   -1.6937   -3.9273 C   0  0  0  0  0  0  0  0  0  0  0  0
   16.3364   -0.3224   -3.6308 C   0  0  0  0  0  0  0  0  0  0  0  0
   15.7943    0.1250   -2.4073 C   0  0  0  0  0  0  0  0  0  0  0  0
   15.6711    1.5693   -2.0915 C   0  0  0  0  0  0  0  0  0  0  0  0
   15.3832    2.0354   -0.7903 C   0  0  0  0  0  0  0  0  0  0  0  0
   15.3534    3.4188   -0.5357 C   0  0  0  0  0  0  0  0  0  0  0  0
   15.5968    4.3049   -1.5946 C   0  0  0  0  0  0  0  0  0  0  0  0
   15.8275    3.8920   -2.8511 N   0  0  0  0  0  0  0  0  0  0  0  0
   15.8598    2.5642   -3.0762 C   0  0  0  0  0  0  0  0  0  0  0  0
   15.3327   -0.8573   -1.5012 C   0  0  0  0  0  0  0  0  0  0  0  0
   13.2767   -3.0094   -0.6368 C   0  0  0  0  0  0  0  0  0  0  0  0
   12.3981   -3.0674   -1.5055 O   0  0  0  0  0  0  0  0  0  0  0  0
    0.0000    0.0000    0.0000 H   0  0  0  0  0  0  0  0  0  0  0  0
    0.0000    0.0000    0.0000 H   0  0  0  0  0  0  0  0  0  0  0  0
    0.0000    0.0000    0.0000 H   0  0  0  0  0  0  0  0  0  0  0  0
    0.0000    0.0000    0.0000 H   0  0  0  0  0  0  0  0  0  0  0  0
    0.0000    0.0000    0.0000 H   0  0  0  0  0  0  0  0  0  0  0  0
    0.0000    0.0000    0.0000 H   0  0  0  0  0  0  0  0  0  0  0  0
    0.0000    0.0000    0.0000 H   0  0  0  0  0  0  0  0  0  0  0  0
    0.0000    0.0000    0.0000 H   0  0  0  0  0  0  0  0  0  0  0  0
    0.0000    0.0000    0.0000 H   0  0  0  0  0  0  0  0  0  0  0  0
    0.0000    0.0000    0.0000 H   0  0  0  0  0  0  0  0  0  0  0  0
    0.0000    0.0000    0.0000 H   0  0  0  0  0  0  0  0  0  0  0  0
    0.0000    0.0000    0.0000 H   0  0  0  0  0  0  0  0  0  0  0  0
    0.0000    0.0000    0.0000 H   0  0  0  0  0  0  0  0  0  0  0  0
    0.0000    0.0000    0.0000 H   0  0  0  0  0  0  0  0  0  0  0  0
    6.8453   -1.5044   -0.3643 O   0  0  0  0  0  0  0  0  0  0  0  0
    6.3292   -2.7008   -0.8887 C   0  0  0  0  0  0  0  0  0  0  0  0
    5.8591   -3.6530   -0.0288 C   0  0  0  0  0  0  0  0  0  0  0  0
    5.3515   -4.8293   -0.5405 C   0  0  0  0  0  0  0  0  0  0  0  0
    5.3233   -5.0311   -1.8960 C   0  0  0  0  0  0  0  0  0  0  0  0
    5.7932   -4.0839   -2.8013 C   0  0  0  0  0  0  0  0  0  0  0  0
    6.2948   -2.9179   -2.2598 C   0  0  0  0  0  0  0  0  0  0  0  0
    5.8777   -3.5004    1.0543 H   0  0  0  0  0  0  0  0  0  0  0  0
    4.9742   -5.5937    0.1465 H   0  0  0  0  0  0  0  0  0  0  0  0
    4.9281   -5.9472   -2.2991 H   0  0  0  0  0  0  0  0  0  0  0  0
    5.7587   -4.2696   -3.8621 H   0  0  0  0  0  0  0  0  0  0  0  0
    6.6755   -2.1430   -2.9166 H   0  0  0  0  0  0  0  0  0  0  0  0
  1  2  1  0
  2  3  1  0
  2 19  1  0
  3  4  1  0
  3  5  2  0
  5  6  1  0
  6  7  1  0
  6 19  1  0
  7  8  2  0
  7 18  1  0
  8  9  1  0
  9 10  2  0
 10 11  1  0
 11 12  1  0
 11 18  2  0
 12 13  2  0
 12 17  1  0
 13 14  1  0
 14 15  2  0
 15 16  1  0
 16 17  2  0
 19 20  2  0
  1 21  1  0
  1 22  1  0
  1 23  1  0
  4 24  1  0
  4 25  1  0
  5 26  1  0
  8 27  1  0
  9 28  1  0
 10 29  1  0
 13 30  1  0
 14 31  1  0
 15 32  1  0
 17 33  1  0
 18 34  1  0
 35 36  1  0
 36 37  2  0
 37 38  1  0
 38 39  2  0
 39 40  1  0
 40 41  2  0
 41 36  1  0
 37 42  1  0
 38 43  1  0
 39 44  1  0
 40 45  1  0
 41 46  1  0
  6 35  1  6
M  CHG  1   5   1
M  END
>  <attachment_point>  (43) 
26

>  <score>  (43) 
<NA>

$$$$
CAT-4j
     RDKit          3D

 46 49  0  0  1  0  0  0  0  0999 V2000
   11.7106   -2.3098    1.2658 C   0  0  0  0  0  0  0  0  0  0  0  0
   13.0313   -2.6523    0.7225 N   0  0  0  0  0  0  0  0  0  0  0  0
   14.2010   -2.6281    1.3773 C   0  0  0  0  0  0  0  0  0  0  0  0
   14.3777   -2.3568    2.6732 N   0  0  0  0  0  0  0  0  0  0  0  0
   15.2217   -2.9197    0.5738 N   0  0  0  0  0  0  0  0  0  0  0  0
   14.7965   -3.2519   -0.7875 C   0  0  1  0  0  0  0  0  0  0  0  0
   15.3794   -2.2443   -1.7949 C   0  0  0  0  0  0  0  0  0  0  0  0
   15.9522   -2.6550   -3.0208 C   0  0  0  0  0  0  0  0  0  0  0  0
   16.4340   -1.6937   -3.9273 C   0  0  0  0  0  0  0  0  0  0  0  0
   16.3364   -0.3224   -3.6308 C   0  0  0  0  0  0  0  0  0  0  0  0
   15.7943    0.1250   -2.4073 C   0  0  0  0  0  0  0  0  0  0  0  0
   15.6711    1.5693   -2.0915 C   0  0  0  0  0  0  0  0  0  0  0  0
   15.3832    2.0354   -0.7903 C   0  0  0  0  0  0  0  0  0  0  0  0
   15.3534    3.4188   -0.5357 C   0  0  0  0  0  0  0  0  0  0  0  0
   15.5968    4.3049   -1.5946 C   0  0  0  0  0  0  0  0  0  0  0  0
   15.8275    3.8920   -2.8511 N   0  0  0  0  0  0  0  0  0  0  0  0
   15.8598    2.5642   -3.0762 C   0  0  0  0  0  0  0  0  0  0  0  0
   15.3327   -0.8573   -1.5012 C   0  0  0  0  0  0  0  0  0  0  0  0
   13.2767   -3.0094   -0.6368 C   0  0  0  0  0  0  0  0  0  0  0  0
   12.3981   -3.0674   -1.5055 O   0  0  0  0  0  0  0  0  0  0  0  0
    0.0000    0.0000    0.0000 H   0  0  0  0  0  0  0  0  0  0  0  0
    0.0000    0.0000    0.0000 H   0  0  0  0  0  0  0  0  0  0  0  0
    0.0000    0.0000    0.0000 H   0  0  0  0  0  0  0  0  0  0  0  0
    0.0000    0.0000    0.0000 H   0  0  0  0  0  0  0  0  0  0  0  0
    0.0000    0.0000    0.0000 H   0  0  0  0  0  0  0  0  0  0  0  0
    0.0000    0.0000    0.0000 H   0  0  0  0  0  0  0  0  0  0  0  0
    0.0000    0.0000    0.0000 H   0  0  0  0  0  0  0  0  0  0  0  0
    0.0000    0.0000    0.0000 H   0  0  0  0  0  0  0  0  0  0  0  0
    0.0000    0.0000    0.0000 H   0  0  0  0  0  0  0  0  0  0  0  0
    0.0000    0.0000    0.0000 H   0  0  0  0  0  0  0  0  0  0  0  0
    0.0000    0.0000    0.0000 H   0  0  0  0  0  0  0  0  0  0  0  0
    0.0000    0.0000    0.0000 H   0  0  0  0  0  0  0  0  0  0  0  0
    0.0000    0.0000    0.0000 H   0  0  0  0  0  0  0  0  0  0  0  0
    0.0000    0.0000    0.0000 H   0  0  0  0  0  0  0  0  0  0  0  0
    6.9673   -1.5312   -0.3708 C   0  0  0  0  0  0  0  0  0  0  0  0
    6.0341   -2.5512   -0.3842 C   0  0  0  0  0  0  0  0  0  0  0  0
    4.6992   -2.2198   -0.3112 C   0  0  0  0  0  0  0  0  0  0  0  0
    4.2739   -0.9343   -0.2273 C   0  0  0  0  0  0  0  0  0  0  0  0
    2.9148   -0.5999   -0.1532 O   0  0  0  0  0  0  0  0  0  0  0  0
    5.1825    0.0958   -0.2124 C   0  0  0  0  0  0  0  0  0  0  0  0
    6.5214   -0.2323   -0.2854 C   0  0  0  0  0  0  0  0  0  0  0  0
    6.3816   -3.5734   -0.4512 H   0  0  0  0  0  0  0  0  0  0  0  0
    3.9767   -3.0271   -0.3224 H   0  0  0  0  0  0  0  0  0  0  0  0
    2.5559   -0.1268   -0.9974 H   0  0  0  0  0  0  0  0  0  0  0  0
    4.8616    1.1463   -0.1450 H   0  0  0  0  0  0  0  0  0  0  0  0
    7.2573    0.5751   -0.2747 H   0  0  0  0  0  0  0  0  0  0  0  0
  1  2  1  0
  2  3  1  0
  2 19  1  0
  3  4  1  0
  3  5  2  0
  5  6  1  0
  6  7  1  1
  6 19  1  0
  7  8  2  0
  7 18  1  0
  8  9  1  0
  9 10  2  0
 10 11  1  0
 11 12  1  0
 11 18  2  0
 12 13  2  0
 12 17  1  0
 13 14  1  0
 14 15  2  0
 15 16  1  0
 16 17  2  0
 19 20  2  0
  1 21  1  0
  1 22  1  0
  1 23  1  0
  4 24  1  0
  4 25  1  0
  5 26  1  0
  8 27  1  0
  9 28  1  0
 10 29  1  0
 13 30  1  0
 14 31  1  0
 15 32  1  0
 17 33  1  0
 18 34  1  0
 35 36  2  0
 36 37  1  0
 37 38  2  0
 38 39  1  0
 38 40  1  0
 40 41  2  0
 41 35  1  0
 36 42  1  0
 37 43  1  0
 39 44  1  0
 40 45  1  0
 41 46  1  0
  6 35  1  0
M  CHG  1   5   1
M  END
>  <attachment_point>  (44) 
26

>  <score>  (44) 
<NA>

$$$$
CAT-4j
     RDKit          3D

 47 50  0  0  1  0  0  0  0  0999 V2000
   11.7106   -2.3098    1.2658 C   0  0  0  0  0  0  0  0  0  0  0  0
   13.0313   -2.6523    0.7225 N   0  0  0  0  0  0  0  0  0  0  0  0
   14.2010   -2.6281    1.3773 C   0  0  0  0  0  0  0  0  0  0  0  0
   14.3777   -2.3568    2.6732 N   0  0  0  0  0  0  0  0  0  0  0  0
   15.2217   -2.9197    0.5738 N   0  0  0  0  0  0  0  0  0  0  0  0
   14.7965   -3.2519   -0.7875 C   0  0  1  0  0  0  0  0  0  0  0  0
   15.3794   -2.2443   -1.7949 C   0  0  0  0  0  0  0  0  0  0  0  0
   15.9522   -2.6550   -3.0208 C   0  0  0  0  0  0  0  0  0  0  0  0
   16.4340   -1.6937   -3.9273 C   0  0  0  0  0  0  0  0  0  0  0  0
   16.3364   -0.3224   -3.6308 C   0  0  0  0  0  0  0  0  0  0  0  0
   15.7943    0.1250   -2.4073 C   0  0  0  0  0  0  0  0  0  0  0  0
   15.6711    1.5693   -2.0915 C   0  0  0  0  0  0  0  0  0  0  0  0
   15.3832    2.0354   -0.7903 C   0  0  0  0  0  0  0  0  0  0  0  0
   15.3534    3.4188   -0.5357 C   0  0  0  0  0  0  0  0  0  0  0  0
   15.5968    4.3049   -1.5946 C   0  0  0  0  0  0  0  0  0  0  0  0
   15.8275    3.8920   -2.8511 N   0  0  0  0  0  0  0  0  0  0  0  0
   15.8598    2.5642   -3.0762 C   0  0  0  0  0  0  0  0  0  0  0  0
   15.3327   -0.8573   -1.5012 C   0  0  0  0  0  0  0  0  0  0  0  0
   13.2767   -3.0094   -0.6368 C   0  0  0  0  0  0  0  0  0  0  0  0
   12.3981   -3.0674   -1.5055 O   0  0  0  0  0  0  0  0  0  0  0  0
    0.0000    0.0000    0.0000 H   0  0  0  0  0  0  0  0  0  0  0  0
    0.0000    0.0000    0.0000 H   0  0  0  0  0  0  0  0  0  0  0  0
    0.0000    0.0000    0.0000 H   0  0  0  0  0  0  0  0  0  0  0  0
    0.0000    0.0000    0.0000 H   0  0  0  0  0  0  0  0  0  0  0  0
    0.0000    0.0000    0.0000 H   0  0  0  0  0  0  0  0  0  0  0  0
    0.0000    0.0000    0.0000 H   0  0  0  0  0  0  0  0  0  0  0  0
    0.0000    0.0000    0.0000 H   0  0  0  0  0  0  0  0  0  0  0  0
    0.0000    0.0000    0.0000 H   0  0  0  0  0  0  0  0  0  0  0  0
    0.0000    0.0000    0.0000 H   0  0  0  0  0  0  0  0  0  0  0  0
    0.0000    0.0000    0.0000 H   0  0  0  0  0  0  0  0  0  0  0  0
    0.0000    0.0000    0.0000 H   0  0  0  0  0  0  0  0  0  0  0  0
    0.0000    0.0000    0.0000 H   0  0  0  0  0  0  0  0  0  0  0  0
    0.0000    0.0000    0.0000 H   0  0  0  0  0  0  0  0  0  0  0  0
    0.0000    0.0000    0.0000 H   0  0  0  0  0  0  0  0  0  0  0  0
    6.9951   -1.5373   -0.3723 N   0  0  0  0  0  0  0  0  0  0  0  0
    6.5664   -0.2429   -0.0596 C   0  0  0  0  0  0  0  0  0  0  0  0
    7.4466    0.7897    0.1896 C   0  0  0  0  0  0  0  0  0  0  0  0
    7.0162    2.0511    0.4943 C   0  0  0  0  0  0  0  0  0  0  0  0
    5.6656    2.3290    0.5615 C   0  0  0  0  0  0  0  0  0  0  0  0
    4.7997    1.2967    0.3124 C   0  0  0  0  0  0  0  0  0  0  0  0
    5.1956    0.0113    0.0021 C   0  0  0  0  0  0  0  0  0  0  0  0
    6.3650   -2.3345   -0.5646 H   0  0  0  0  0  0  0  0  0  0  0  0
    8.5091    0.5307    0.1268 H   0  0  0  0  0  0  0  0  0  0  0  0
    7.7520    2.8249    0.6809 H   0  0  0  0  0  0  0  0  0  0  0  0
    5.3436    3.3412    0.8061 H   0  0  0  0  0  0  0  0  0  0  0  0
    3.7415    1.5183    0.3661 H   0  0  0  0  0  0  0  0  0  0  0  0
    4.4625   -0.7427   -0.1799 H   0  0  0  0  0  0  0  0  0  0  0  0
  1  2  1  0
  2  3  1  0
  2 19  1  0
  3  4  1  0
  3  5  2  0
  5  6  1  0
  6  7  1  0
  6 19  1  0
  7  8  2  0
  7 18  1  0
  8  9  1  0
  9 10  2  0
 10 11  1  0
 11 12  1  0
 11 18  2  0
 12 13  2  0
 12 17  1  0
 13 14  1  0
 14 15  2  0
 15 16  1  0
 16 17  2  0
 19 20  2  0
  1 21  1  0
  1 22  1  0
  1 23  1  0
  4 24  1  0
  4 25  1  0
  5 26  1  0
  8 27  1  0
  9 28  1  0
 10 29  1  0
 13 30  1  0
 14 31  1  0
 15 32  1  0
 17 33  1  0
 18 34  1  0
 35 36  1  0
 36 37  2  0
 37 38  1  0
 38 39  2  0
 39 40  1  0
 40 41  2  0
 41 36  1  0
 35 42  1  0
 37 43  1  0
 38 44  1  0
 39 45  1  0
 40 46  1  0
 41 47  1  0
  6 35  1  6
M  CHG  1   5   1
M  END
>  <attachment_point>  (45) 
26

>  <score>  (45) 
<NA>

$$$$
CAT-4j
     RDKit          3D

 41 43  0  0  1  0  0  0  0  0999 V2000
   11.7106   -2.3098    1.2658 C   0  0  0  0  0  0  0  0  0  0  0  0
   13.0313   -2.6523    0.7225 N   0  0  0  0  0  0  0  0  0  0  0  0
   14.2010   -2.6281    1.3773 C   0  0  0  0  0  0  0  0  0  0  0  0
   14.3777   -2.3568    2.6732 N   0  0  0  0  0  0  0  0  0  0  0  0
   15.2217   -2.9197    0.5738 N   0  0  0  0  0  0  0  0  0  0  0  0
   14.7965   -3.2519   -0.7875 C   0  0  1  0  0  0  0  0  0  0  0  0
   15.3794   -2.2443   -1.7949 C   0  0  0  0  0  0  0  0  0  0  0  0
   15.9522   -2.6550   -3.0208 C   0  0  0  0  0  0  0  0  0  0  0  0
   16.4340   -1.6937   -3.9273 C   0  0  0  0  0  0  0  0  0  0  0  0
   16.3364   -0.3224   -3.6308 C   0  0  0  0  0  0  0  0  0  0  0  0
   15.7943    0.1250   -2.4073 C   0  0  0  0  0  0  0  0  0  0  0  0
   15.6711    1.5693   -2.0915 C   0  0  0  0  0  0  0  0  0  0  0  0
   15.3832    2.0354   -0.7903 C   0  0  0  0  0  0  0  0  0  0  0  0
   15.3534    3.4188   -0.5357 C   0  0  0  0  0  0  0  0  0  0  0  0
   15.5968    4.3049   -1.5946 C   0  0  0  0  0  0  0  0  0  0  0  0
   15.8275    3.8920   -2.8511 N   0  0  0  0  0  0  0  0  0  0  0  0
   15.8598    2.5642   -3.0762 C   0  0  0  0  0  0  0  0  0  0  0  0
   15.3327   -0.8573   -1.5012 C   0  0  0  0  0  0  0  0  0  0  0  0
   13.2767   -3.0094   -0.6368 C   0  0  0  0  0  0  0  0  0  0  0  0
   12.3981   -3.0674   -1.5055 O   0  0  0  0  0  0  0  0  0  0  0  0
    0.0000    0.0000    0.0000 H   0  0  0  0  0  0  0  0  0  0  0  0
    0.0000    0.0000    0.0000 H   0  0  0  0  0  0  0  0  0  0  0  0
    0.0000    0.0000    0.0000 H   0  0  0  0  0  0  0  0  0  0  0  0
    0.0000    0.0000    0.0000 H   0  0  0  0  0  0  0  0  0  0  0  0
    0.0000    0.0000    0.0000 H   0  0  0  0  0  0  0  0  0  0  0  0
    0.0000    0.0000    0.0000 H   0  0  0  0  0  0  0  0  0  0  0  0
    0.0000    0.0000    0.0000 H   0  0  0  0  0  0  0  0  0  0  0  0
    0.0000    0.0000    0.0000 H   0  0  0  0  0  0  0  0  0  0  0  0
    0.0000    0.0000    0.0000 H   0  0  0  0  0  0  0  0  0  0  0  0
    0.0000    0.0000    0.0000 H   0  0  0  0  0  0  0  0  0  0  0  0
    0.0000    0.0000    0.0000 H   0  0  0  0  0  0  0  0  0  0  0  0
    0.0000    0.0000    0.0000 H   0  0  0  0  0  0  0  0  0  0  0  0
    0.0000    0.0000    0.0000 H   0  0  0  0  0  0  0  0  0  0  0  0
    0.0000    0.0000    0.0000 H   0  0  0  0  0  0  0  0  0  0  0  0
    6.9617   -1.5300   -0.3705 S   0  0  0  0  0  6  0  0  0  0  0  0
    6.7094    0.1535    0.0654 C   0  0  0  0  0  0  0  0  0  0  0  0
    6.4141   -2.4361    0.7165 O   0  0  0  0  0  0  0  0  0  0  0  0
    6.2504   -1.9236   -1.6317 O   0  0  0  0  0  0  0  0  0  0  0  0
    6.2594    0.2136    1.0926 H   0  0  0  0  0  0  0  0  0  0  0  0
    5.9728    0.6692   -0.5984 H   0  0  0  0  0  0  0  0  0  0  0  0
    7.6636    0.7354    0.1435 H   0  0  0  0  0  0  0  0  0  0  0  0
  1  2  1  0
  2  3  1  0
  2 19  1  0
  3  4  1  0
  3  5  2  0
  5  6  1  0
  6  7  1  1
  6 19  1  0
  7  8  2  0
  7 18  1  0
  8  9  1  0
  9 10  2  0
 10 11  1  0
 11 12  1  0
 11 18  2  0
 12 13  2  0
 12 17  1  0
 13 14  1  0
 14 15  2  0
 15 16  1  0
 16 17  2  0
 19 20  2  0
  1 21  1  0
  1 22  1  0
  1 23  1  0
  4 24  1  0
  4 25  1  0
  5 26  1  0
  8 27  1  0
  9 28  1  0
 10 29  1  0
 13 30  1  0
 14 31  1  0
 15 32  1  0
 17 33  1  0
 18 34  1  0
 35 36  1  0
 35 37  2  0
 35 38  2  0
 36 39  1  0
 36 40  1  0
 36 41  1  0
  6 35  1  0
M  CHG  1   5   1
M  END
>  <attachment_point>  (46) 
26

>  <score>  (46) 
<NA>

$$$$
CAT-4j
     RDKit          3D

 49 52  0  0  1  0  0  0  0  0999 V2000
   11.7106   -2.3098    1.2658 C   0  0  0  0  0  0  0  0  0  0  0  0
   13.0313   -2.6523    0.7225 N   0  0  0  0  0  0  0  0  0  0  0  0
   14.2010   -2.6281    1.3773 C   0  0  0  0  0  0  0  0  0  0  0  0
   14.3777   -2.3568    2.6732 N   0  0  0  0  0  0  0  0  0  0  0  0
   15.2217   -2.9197    0.5738 N   0  0  0  0  0  0  0  0  0  0  0  0
   14.7965   -3.2519   -0.7875 C   0  0  1  0  0  0  0  0  0  0  0  0
   15.3794   -2.2443   -1.7949 C   0  0  0  0  0  0  0  0  0  0  0  0
   15.9522   -2.6550   -3.0208 C   0  0  0  0  0  0  0  0  0  0  0  0
   16.4340   -1.6937   -3.9273 C   0  0  0  0  0  0  0  0  0  0  0  0
   16.3364   -0.3224   -3.6308 C   0  0  0  0  0  0  0  0  0  0  0  0
   15.7943    0.1250   -2.4073 C   0  0  0  0  0  0  0  0  0  0  0  0
   15.6711    1.5693   -2.0915 C   0  0  0  0  0  0  0  0  0  0  0  0
   15.3832    2.0354   -0.7903 C   0  0  0  0  0  0  0  0  0  0  0  0
   15.3534    3.4188   -0.5357 C   0  0  0  0  0  0  0  0  0  0  0  0
   15.5968    4.3049   -1.5946 C   0  0  0  0  0  0  0  0  0  0  0  0
   15.8275    3.8920   -2.8511 N   0  0  0  0  0  0  0  0  0  0  0  0
   15.8598    2.5642   -3.0762 C   0  0  0  0  0  0  0  0  0  0  0  0
   15.3327   -0.8573   -1.5012 C   0  0  0  0  0  0  0  0  0  0  0  0
   13.2767   -3.0094   -0.6368 C   0  0  0  0  0  0  0  0  0  0  0  0
   12.3981   -3.0674   -1.5055 O   0  0  0  0  0  0  0  0  0  0  0  0
    0.0000    0.0000    0.0000 H   0  0  0  0  0  0  0  0  0  0  0  0
    0.0000    0.0000    0.0000 H   0  0  0  0  0  0  0  0  0  0  0  0
    0.0000    0.0000    0.0000 H   0  0  0  0  0  0  0  0  0  0  0  0
    0.0000    0.0000    0.0000 H   0  0  0  0  0  0  0  0  0  0  0  0
    0.0000    0.0000    0.0000 H   0  0  0  0  0  0  0  0  0  0  0  0
    0.0000    0.0000    0.0000 H   0  0  0  0  0  0  0  0  0  0  0  0
    0.0000    0.0000    0.0000 H   0  0  0  0  0  0  0  0  0  0  0  0
    0.0000    0.0000    0.0000 H   0  0  0  0  0  0  0  0  0  0  0  0
    0.0000    0.0000    0.0000 H   0  0  0  0  0  0  0  0  0  0  0  0
    0.0000    0.0000    0.0000 H   0  0  0  0  0  0  0  0  0  0  0  0
    0.0000    0.0000    0.0000 H   0  0  0  0  0  0  0  0  0  0  0  0
    0.0000    0.0000    0.0000 H   0  0  0  0  0  0  0  0  0  0  0  0
    0.0000    0.0000    0.0000 H   0  0  0  0  0  0  0  0  0  0  0  0
    0.0000    0.0000    0.0000 H   0  0  0  0  0  0  0  0  0  0  0  0
    7.0347   -1.5460   -0.3744 N   0  0  0  0  0  0  0  0  0  0  0  0
    6.2558   -2.0483   -1.4337 C   0  0  0  0  0  0  0  0  0  0  0  0
    5.2550   -3.1020   -1.0171 C   0  0  0  0  0  0  0  0  0  0  0  0
    4.3919   -2.4380   -0.0414 N   0  0  0  0  0  0  0  0  0  0  0  0
    5.1111   -1.9985    1.1199 C   0  0  0  0  0  0  0  0  0  0  0  0
    6.4216   -1.3862    0.8852 C   0  0  0  0  0  0  0  0  0  0  0  0
    5.6690   -1.2560   -1.9660 H   0  0  0  0  0  0  0  0  0  0  0  0
    6.9258   -2.4840   -2.2056 H   0  0  0  0  0  0  0  0  0  0  0  0
    5.7330   -4.0028   -0.6192 H   0  0  0  0  0  0  0  0  0  0  0  0
    4.6335   -3.3454   -1.8882 H   0  0  0  0  0  0  0  0  0  0  0  0
    4.0367   -1.5748   -0.5324 H   0  0  0  0  0  0  0  0  0  0  0  0
    5.1688   -2.8487    1.8629 H   0  0  0  0  0  0  0  0  0  0  0  0
    4.4222   -1.2617    1.6335 H   0  0  0  0  0  0  0  0  0  0  0  0
    7.1402   -1.7709    1.6704 H   0  0  0  0  0  0  0  0  0  0  0  0
    6.3794   -0.2767    1.1029 H   0  0  0  0  0  0  0  0  0  0  0  0
  1  2  1  0
  2  3  1  0
  2 19  1  0
  3  4  1  0
  3  5  2  0
  5  6  1  0
  6  7  1  0
  6 19  1  0
  7  8  2  0
  7 18  1  0
  8  9  1  0
  9 10  2  0
 10 11  1  0
 11 12  1  0
 11 18  2  0
 12 13  2  0
 12 17  1  0
 13 14  1  0
 14 15  2  0
 15 16  1  0
 16 17  2  0
 19 20  2  0
  1 21  1  0
  1 22  1  0
  1 23  1  0
  4 24  1  0
  4 25  1  0
  5 26  1  0
  8 27  1  0
  9 28  1  0
 10 29  1  0
 13 30  1  0
 14 31  1  0
 15 32  1  0
 17 33  1  0
 18 34  1  0
 35 36  1  0
 36 37  1  0
 37 38  1  0
 38 39  1  0
 39 40  1  0
 40 35  1  0
 36 41  1  0
 36 42  1  0
 37 43  1  0
 37 44  1  0
 38 45  1  0
 39 46  1  0
 39 47  1  0
 40 48  1  0
 40 49  1  0
  6 35  1  6
M  CHG  1   5   1
M  END
>  <attachment_point>  (47) 
26

>  <score>  (47) 
<NA>

$$$$
CAT-4j
     RDKit          3D

 47 50  0  0  1  0  0  0  0  0999 V2000
   11.7106   -2.3098    1.2658 C   0  0  0  0  0  0  0  0  0  0  0  0
   13.0313   -2.6523    0.7225 N   0  0  0  0  0  0  0  0  0  0  0  0
   14.2010   -2.6281    1.3773 C   0  0  0  0  0  0  0  0  0  0  0  0
   14.3777   -2.3568    2.6732 N   0  0  0  0  0  0  0  0  0  0  0  0
   15.2217   -2.9197    0.5738 N   0  0  0  0  0  0  0  0  0  0  0  0
   14.7965   -3.2519   -0.7875 C   0  0  1  0  0  0  0  0  0  0  0  0
   15.3794   -2.2443   -1.7949 C   0  0  0  0  0  0  0  0  0  0  0  0
   15.9522   -2.6550   -3.0208 C   0  0  0  0  0  0  0  0  0  0  0  0
   16.4340   -1.6937   -3.9273 C   0  0  0  0  0  0  0  0  0  0  0  0
   16.3364   -0.3224   -3.6308 C   0  0  0  0  0  0  0  0  0  0  0  0
   15.7943    0.1250   -2.4073 C   0  0  0  0  0  0  0  0  0  0  0  0
   15.6711    1.5693   -2.0915 C   0  0  0  0  0  0  0  0  0  0  0  0
   15.3832    2.0354   -0.7903 C   0  0  0  0  0  0  0  0  0  0  0  0
   15.3534    3.4188   -0.5357 C   0  0  0  0  0  0  0  0  0  0  0  0
   15.5968    4.3049   -1.5946 C   0  0  0  0  0  0  0  0  0  0  0  0
   15.8275    3.8920   -2.8511 N   0  0  0  0  0  0  0  0  0  0  0  0
   15.8598    2.5642   -3.0762 C   0  0  0  0  0  0  0  0  0  0  0  0
   15.3327   -0.8573   -1.5012 C   0  0  0  0  0  0  0  0  0  0  0  0
   13.2767   -3.0094   -0.6368 C   0  0  0  0  0  0  0  0  0  0  0  0
   12.3981   -3.0674   -1.5055 O   0  0  0  0  0  0  0  0  0  0  0  0
    0.0000    0.0000    0.0000 H   0  0  0  0  0  0  0  0  0  0  0  0
    0.0000    0.0000    0.0000 H   0  0  0  0  0  0  0  0  0  0  0  0
    0.0000    0.0000    0.0000 H   0  0  0  0  0  0  0  0  0  0  0  0
    0.0000    0.0000    0.0000 H   0  0  0  0  0  0  0  0  0  0  0  0
    0.0000    0.0000    0.0000 H   0  0  0  0  0  0  0  0  0  0  0  0
    0.0000    0.0000    0.0000 H   0  0  0  0  0  0  0  0  0  0  0  0
    0.0000    0.0000    0.0000 H   0  0  0  0  0  0  0  0  0  0  0  0
    0.0000    0.0000    0.0000 H   0  0  0  0  0  0  0  0  0  0  0  0
    0.0000    0.0000    0.0000 H   0  0  0  0  0  0  0  0  0  0  0  0
    0.0000    0.0000    0.0000 H   0  0  0  0  0  0  0  0  0  0  0  0
    0.0000    0.0000    0.0000 H   0  0  0  0  0  0  0  0  0  0  0  0
    0.0000    0.0000    0.0000 H   0  0  0  0  0  0  0  0  0  0  0  0
    0.0000    0.0000    0.0000 H   0  0  0  0  0  0  0  0  0  0  0  0
    0.0000    0.0000    0.0000 H   0  0  0  0  0  0  0  0  0  0  0  0
    6.8972   -1.5158   -0.3671 N   0  0  0  0  0  0  0  0  0  0  0  0
    7.0792   -0.6497    0.8058 C   0  0  0  0  0  0  0  0  0  0  0  0
    7.7585   -1.5177    1.8175 C   0  0  0  0  0  0  0  0  0  0  0  0
    7.2464   -2.8983    1.5164 C   0  0  0  0  0  0  0  0  0  0  0  0
    6.5600   -2.8332    0.1908 C   0  0  0  0  0  0  0  0  0  0  0  0
    6.0846   -0.3652    1.1381 H   0  0  0  0  0  0  0  0  0  0  0  0
    7.6737    0.2278    0.5055 H   0  0  0  0  0  0  0  0  0  0  0  0
    8.8615   -1.4773    1.6305 H   0  0  0  0  0  0  0  0  0  0  0  0
    7.5253   -1.1803    2.8535 H   0  0  0  0  0  0  0  0  0  0  0  0
    6.5012   -3.2148    2.2910 H   0  0  0  0  0  0  0  0  0  0  0  0
    8.0691   -3.6220    1.5062 H   0  0  0  0  0  0  0  0  0  0  0  0
    6.9050   -3.5906   -0.5384 H   0  0  0  0  0  0  0  0  0  0  0  0
    5.4750   -2.8752    0.2400 H   0  0  0  0  0  0  0  0  0  0  0  0
  1  2  1  0
  2  3  1  0
  2 19  1  0
  3  4  1  0
  3  5  2  0
  5  6  1  0
  6  7  1  0
  6 19  1  0
  7  8  2  0
  7 18  1  0
  8  9  1  0
  9 10  2  0
 10 11  1  0
 11 12  1  0
 11 18  2  0
 12 13  2  0
 12 17  1  0
 13 14  1  0
 14 15  2  0
 15 16  1  0
 16 17  2  0
 19 20  2  0
  1 21  1  0
  1 22  1  0
  1 23  1  0
  4 24  1  0
  4 25  1  0
  5 26  1  0
  8 27  1  0
  9 28  1  0
 10 29  1  0
 13 30  1  0
 14 31  1  0
 15 32  1  0
 17 33  1  0
 18 34  1  0
 35 36  1  0
 36 37  1  0
 37 38  1  0
 38 39  1  0
 39 35  1  0
 36 40  1  0
 36 41  1  0
 37 42  1  0
 37 43  1  0
 38 44  1  0
 38 45  1  0
 39 46  1  0
 39 47  1  0
  6 35  1  6
M  CHG  1   5   1
M  END
>  <attachment_point>  (48) 
26

>  <score>  (48) 
<NA>

$$$$
CAT-4j
     RDKit          3D

 49 52  0  0  1  0  0  0  0  0999 V2000
   11.7106   -2.3098    1.2658 C   0  0  0  0  0  0  0  0  0  0  0  0
   13.0313   -2.6523    0.7225 N   0  0  0  0  0  0  0  0  0  0  0  0
   14.2010   -2.6281    1.3773 C   0  0  0  0  0  0  0  0  0  0  0  0
   14.3777   -2.3568    2.6732 N   0  0  0  0  0  0  0  0  0  0  0  0
   15.2217   -2.9197    0.5738 N   0  0  0  0  0  0  0  0  0  0  0  0
   14.7965   -3.2519   -0.7875 C   0  0  1  0  0  0  0  0  0  0  0  0
   15.3794   -2.2443   -1.7949 C   0  0  0  0  0  0  0  0  0  0  0  0
   15.9522   -2.6550   -3.0208 C   0  0  0  0  0  0  0  0  0  0  0  0
   16.4340   -1.6937   -3.9273 C   0  0  0  0  0  0  0  0  0  0  0  0
   16.3364   -0.3224   -3.6308 C   0  0  0  0  0  0  0  0  0  0  0  0
   15.7943    0.1250   -2.4073 C   0  0  0  0  0  0  0  0  0  0  0  0
   15.6711    1.5693   -2.0915 C   0  0  0  0  0  0  0  0  0  0  0  0
   15.3832    2.0354   -0.7903 C   0  0  0  0  0  0  0  0  0  0  0  0
   15.3534    3.4188   -0.5357 C   0  0  0  0  0  0  0  0  0  0  0  0
   15.5968    4.3049   -1.5946 C   0  0  0  0  0  0  0  0  0  0  0  0
   15.8275    3.8920   -2.8511 N   0  0  0  0  0  0  0  0  0  0  0  0
   15.8598    2.5642   -3.0762 C   0  0  0  0  0  0  0  0  0  0  0  0
   15.3327   -0.8573   -1.5012 C   0  0  0  0  0  0  0  0  0  0  0  0
   13.2767   -3.0094   -0.6368 C   0  0  0  0  0  0  0  0  0  0  0  0
   12.3981   -3.0674   -1.5055 O   0  0  0  0  0  0  0  0  0  0  0  0
    0.0000    0.0000    0.0000 H   0  0  0  0  0  0  0  0  0  0  0  0
    0.0000    0.0000    0.0000 H   0  0  0  0  0  0  0  0  0  0  0  0
    0.0000    0.0000    0.0000 H   0  0  0  0  0  0  0  0  0  0  0  0
    0.0000    0.0000    0.0000 H   0  0  0  0  0  0  0  0  0  0  0  0
    0.0000    0.0000    0.0000 H   0  0  0  0  0  0  0  0  0  0  0  0
    0.0000    0.0000    0.0000 H   0  0  0  0  0  0  0  0  0  0  0  0
    0.0000    0.0000    0.0000 H   0  0  0  0  0  0  0  0  0  0  0  0
    0.0000    0.0000    0.0000 H   0  0  0  0  0  0  0  0  0  0  0  0
    0.0000    0.0000    0.0000 H   0  0  0  0  0  0  0  0  0  0  0  0
    0.0000    0.0000    0.0000 H   0  0  0  0  0  0  0  0  0  0  0  0
    0.0000    0.0000    0.0000 H   0  0  0  0  0  0  0  0  0  0  0  0
    0.0000    0.0000    0.0000 H   0  0  0  0  0  0  0  0  0  0  0  0
    0.0000    0.0000    0.0000 H   0  0  0  0  0  0  0  0  0  0  0  0
    0.0000    0.0000    0.0000 H   0  0  0  0  0  0  0  0  0  0  0  0
    6.9448   -1.5263   -0.3696 C   0  0  0  0  0  0  0  0  0  0  0  0
    6.4844   -0.7036    0.6111 C   0  0  0  0  0  0  0  0  0  0  0  0
    5.1199   -0.4098    0.6755 C   0  0  0  0  0  0  0  0  0  0  0  0
    4.2739   -0.9756   -0.2761 C   0  0  0  0  0  0  0  0  0  0  0  0
    4.7545   -1.8088   -1.2660 C   0  0  0  0  0  0  0  0  0  0  0  0
    3.8907   -2.3438   -2.1807 O   0  0  0  0  0  0  0  0  0  0  0  0
    4.3630   -3.2034   -3.2075 C   0  0  0  0  0  0  0  0  0  0  0  0
    6.1253   -2.0971   -1.3215 C   0  0  0  0  0  0  0  0  0  0  0  0
    7.1899   -0.2958    1.3196 H   0  0  0  0  0  0  0  0  0  0  0  0
    4.7604    0.2390    1.4497 H   0  0  0  0  0  0  0  0  0  0  0  0
    3.2200   -0.7719   -0.2571 H   0  0  0  0  0  0  0  0  0  0  0  0
    5.0614   -3.9738   -2.7869 H   0  0  0  0  0  0  0  0  0  0  0  0
    3.5531   -3.6893   -3.7576 H   0  0  0  0  0  0  0  0  0  0  0  0
    4.9650   -2.6228   -3.9410 H   0  0  0  0  0  0  0  0  0  0  0  0
    6.5302   -2.7373   -2.0734 H   0  0  0  0  0  0  0  0  0  0  0  0
  1  2  1  0
  2  3  1  0
  2 19  1  0
  3  4  1  0
  3  5  2  0
  5  6  1  0
  6  7  1  1
  6 19  1  0
  7  8  2  0
  7 18  1  0
  8  9  1  0
  9 10  2  0
 10 11  1  0
 11 12  1  0
 11 18  2  0
 12 13  2  0
 12 17  1  0
 13 14  1  0
 14 15  2  0
 15 16  1  0
 16 17  2  0
 19 20  2  0
  1 21  1  0
  1 22  1  0
  1 23  1  0
  4 24  1  0
  4 25  1  0
  5 26  1  0
  8 27  1  0
  9 28  1  0
 10 29  1  0
 13 30  1  0
 14 31  1  0
 15 32  1  0
 17 33  1  0
 18 34  1  0
 35 36  2  0
 36 37  1  0
 37 38  2  0
 38 39  1  0
 39 40  1  0
 40 41  1  0
 39 42  2  0
 42 35  1  0
 36 43  1  0
 37 44  1  0
 38 45  1  0
 41 46  1  0
 41 47  1  0
 41 48  1  0
 42 49  1  0
  6 35  1  0
M  CHG  1   5   1
M  END
>  <attachment_point>  (49) 
26

>  <score>  (49) 
<NA>

$$$$
CAT-4j
     RDKit          3D

 46 49  0  0  1  0  0  0  0  0999 V2000
   11.7106   -2.3098    1.2658 C   0  0  0  0  0  0  0  0  0  0  0  0
   13.0313   -2.6523    0.7225 N   0  0  0  0  0  0  0  0  0  0  0  0
   14.2010   -2.6281    1.3773 C   0  0  0  0  0  0  0  0  0  0  0  0
   14.3777   -2.3568    2.6732 N   0  0  0  0  0  0  0  0  0  0  0  0
   15.2217   -2.9197    0.5738 N   0  0  0  0  0  0  0  0  0  0  0  0
   14.7965   -3.2519   -0.7875 C   0  0  1  0  0  0  0  0  0  0  0  0
   15.3794   -2.2443   -1.7949 C   0  0  0  0  0  0  0  0  0  0  0  0
   15.9522   -2.6550   -3.0208 C   0  0  0  0  0  0  0  0  0  0  0  0
   16.4340   -1.6937   -3.9273 C   0  0  0  0  0  0  0  0  0  0  0  0
   16.3364   -0.3224   -3.6308 C   0  0  0  0  0  0  0  0  0  0  0  0
   15.7943    0.1250   -2.4073 C   0  0  0  0  0  0  0  0  0  0  0  0
   15.6711    1.5693   -2.0915 C   0  0  0  0  0  0  0  0  0  0  0  0
   15.3832    2.0354   -0.7903 C   0  0  0  0  0  0  0  0  0  0  0  0
   15.3534    3.4188   -0.5357 C   0  0  0  0  0  0  0  0  0  0  0  0
   15.5968    4.3049   -1.5946 C   0  0  0  0  0  0  0  0  0  0  0  0
   15.8275    3.8920   -2.8511 N   0  0  0  0  0  0  0  0  0  0  0  0
   15.8598    2.5642   -3.0762 C   0  0  0  0  0  0  0  0  0  0  0  0
   15.3327   -0.8573   -1.5012 C   0  0  0  0  0  0  0  0  0  0  0  0
   13.2767   -3.0094   -0.6368 C   0  0  0  0  0  0  0  0  0  0  0  0
   12.3981   -3.0674   -1.5055 O   0  0  0  0  0  0  0  0  0  0  0  0
    0.0000    0.0000    0.0000 H   0  0  0  0  0  0  0  0  0  0  0  0
    0.0000    0.0000    0.0000 H   0  0  0  0  0  0  0  0  0  0  0  0
    0.0000    0.0000    0.0000 H   0  0  0  0  0  0  0  0  0  0  0  0
    0.0000    0.0000    0.0000 H   0  0  0  0  0  0  0  0  0  0  0  0
    0.0000    0.0000    0.0000 H   0  0  0  0  0  0  0  0  0  0  0  0
    0.0000    0.0000    0.0000 H   0  0  0  0  0  0  0  0  0  0  0  0
    0.0000    0.0000    0.0000 H   0  0  0  0  0  0  0  0  0  0  0  0
    0.0000    0.0000    0.0000 H   0  0  0  0  0  0  0  0  0  0  0  0
    0.0000    0.0000    0.0000 H   0  0  0  0  0  0  0  0  0  0  0  0
    0.0000    0.0000    0.0000 H   0  0  0  0  0  0  0  0  0  0  0  0
    0.0000    0.0000    0.0000 H   0  0  0  0  0  0  0  0  0  0  0  0
    0.0000    0.0000    0.0000 H   0  0  0  0  0  0  0  0  0  0  0  0
    0.0000    0.0000    0.0000 H   0  0  0  0  0  0  0  0  0  0  0  0
    0.0000    0.0000    0.0000 H   0  0  0  0  0  0  0  0  0  0  0  0
    6.9367   -1.5245   -0.3692 C   0  0  0  0  0  0  0  0  0  0  0  0
    6.2104   -1.5250   -1.5180 C   0  0  0  0  0  0  0  0  0  0  0  0
    4.8392   -1.2316   -1.5044 C   0  0  0  0  0  0  0  0  0  0  0  0
    4.2831   -0.9446   -0.2538 C   0  0  0  0  0  0  0  0  0  0  0  0
    5.0198   -0.9452    0.9038 C   0  0  0  0  0  0  0  0  0  0  0  0
    4.4967   -0.6663    2.1461 O   0  0  0  0  0  0  0  0  0  0  0  0
    6.3871   -1.2441    0.8431 C   0  0  0  0  0  0  0  0  0  0  0  0
    6.6246   -1.7452   -2.4979 H   0  0  0  0  0  0  0  0  0  0  0  0
    4.2580   -1.2308   -2.4157 H   0  0  0  0  0  0  0  0  0  0  0  0
    3.2223   -0.7143   -0.2195 H   0  0  0  0  0  0  0  0  0  0  0  0
    4.1800   -1.4749    2.7005 H   0  0  0  0  0  0  0  0  0  0  0  0
    6.9742   -1.2458    1.7566 H   0  0  0  0  0  0  0  0  0  0  0  0
  1  2  1  0
  2  3  1  0
  2 19  1  0
  3  4  1  0
  3  5  2  0
  5  6  1  0
  6  7  1  1
  6 19  1  0
  7  8  2  0
  7 18  1  0
  8  9  1  0
  9 10  2  0
 10 11  1  0
 11 12  1  0
 11 18  2  0
 12 13  2  0
 12 17  1  0
 13 14  1  0
 14 15  2  0
 15 16  1  0
 16 17  2  0
 19 20  2  0
  1 21  1  0
  1 22  1  0
  1 23  1  0
  4 24  1  0
  4 25  1  0
  5 26  1  0
  8 27  1  0
  9 28  1  0
 10 29  1  0
 13 30  1  0
 14 31  1  0
 15 32  1  0
 17 33  1  0
 18 34  1  0
 35 36  2  0
 36 37  1  0
 37 38  2  0
 38 39  1  0
 39 40  1  0
 39 41  2  0
 41 35  1  0
 36 42  1  0
 37 43  1  0
 38 44  1  0
 40 45  1  0
 41 46  1  0
  6 35  1  0
M  CHG  1   5   1
M  END
>  <attachment_point>  (50) 
26

>  <score>  (50) 
<NA>

$$$$
CAT-4j
     RDKit          3D

 51 54  0  0  1  0  0  0  0  0999 V2000
   11.7106   -2.3098    1.2658 C   0  0  0  0  0  0  0  0  0  0  0  0
   13.0313   -2.6523    0.7225 N   0  0  0  0  0  0  0  0  0  0  0  0
   14.2010   -2.6281    1.3773 C   0  0  0  0  0  0  0  0  0  0  0  0
   14.3777   -2.3568    2.6732 N   0  0  0  0  0  0  0  0  0  0  0  0
   15.2217   -2.9197    0.5738 N   0  0  0  0  0  0  0  0  0  0  0  0
   14.7965   -3.2519   -0.7875 C   0  0  1  0  0  0  0  0  0  0  0  0
   15.3794   -2.2443   -1.7949 C   0  0  0  0  0  0  0  0  0  0  0  0
   15.9522   -2.6550   -3.0208 C   0  0  0  0  0  0  0  0  0  0  0  0
   16.4340   -1.6937   -3.9273 C   0  0  0  0  0  0  0  0  0  0  0  0
   16.3364   -0.3224   -3.6308 C   0  0  0  0  0  0  0  0  0  0  0  0
   15.7943    0.1250   -2.4073 C   0  0  0  0  0  0  0  0  0  0  0  0
   15.6711    1.5693   -2.0915 C   0  0  0  0  0  0  0  0  0  0  0  0
   15.3832    2.0354   -0.7903 C   0  0  0  0  0  0  0  0  0  0  0  0
   15.3534    3.4188   -0.5357 C   0  0  0  0  0  0  0  0  0  0  0  0
   15.5968    4.3049   -1.5946 C   0  0  0  0  0  0  0  0  0  0  0  0
   15.8275    3.8920   -2.8511 N   0  0  0  0  0  0  0  0  0  0  0  0
   15.8598    2.5642   -3.0762 C   0  0  0  0  0  0  0  0  0  0  0  0
   15.3327   -0.8573   -1.5012 C   0  0  0  0  0  0  0  0  0  0  0  0
   13.2767   -3.0094   -0.6368 C   0  0  0  0  0  0  0  0  0  0  0  0
   12.3981   -3.0674   -1.5055 O   0  0  0  0  0  0  0  0  0  0  0  0
    0.0000    0.0000    0.0000 H   0  0  0  0  0  0  0  0  0  0  0  0
    0.0000    0.0000    0.0000 H   0  0  0  0  0  0  0  0  0  0  0  0
    0.0000    0.0000    0.0000 H   0  0  0  0  0  0  0  0  0  0  0  0
    0.0000    0.0000    0.0000 H   0  0  0  0  0  0  0  0  0  0  0  0
    0.0000    0.0000    0.0000 H   0  0  0  0  0  0  0  0  0  0  0  0
    0.0000    0.0000    0.0000 H   0  0  0  0  0  0  0  0  0  0  0  0
    0.0000    0.0000    0.0000 H   0  0  0  0  0  0  0  0  0  0  0  0
    0.0000    0.0000    0.0000 H   0  0  0  0  0  0  0  0  0  0  0  0
    0.0000    0.0000    0.0000 H   0  0  0  0  0  0  0  0  0  0  0  0
    0.0000    0.0000    0.0000 H   0  0  0  0  0  0  0  0  0  0  0  0
    0.0000    0.0000    0.0000 H   0  0  0  0  0  0  0  0  0  0  0  0
    0.0000    0.0000    0.0000 H   0  0  0  0  0  0  0  0  0  0  0  0
    0.0000    0.0000    0.0000 H   0  0  0  0  0  0  0  0  0  0  0  0
    0.0000    0.0000    0.0000 H   0  0  0  0  0  0  0  0  0  0  0  0
    6.9761   -1.5332   -0.3713 C   0  0  0  0  0  0  0  0  0  0  0  0
    6.6968   -0.4475    0.4823 N   0  0  0  0  0  0  0  0  0  0  0  0
    7.2749    0.7962    0.1806 C   0  0  0  0  0  0  0  0  0  0  0  0
    6.1698    1.7208   -0.3438 C   0  0  0  0  0  0  0  0  0  0  0  0
    5.3212    1.9181    0.7325 O   0  0  0  0  0  0  0  0  0  0  0  0
    4.7000    0.8065    1.1975 C   0  0  0  0  0  0  0  0  0  0  0  0
    5.4855   -0.4521    1.1846 C   0  0  0  0  0  0  0  0  0  0  0  0
    6.6263   -1.4228   -1.4149 H   0  0  0  0  0  0  0  0  0  0  0  0
    6.4843   -2.4449    0.0265 H   0  0  0  0  0  0  0  0  0  0  0  0
    7.6122    1.2690    1.1498 H   0  0  0  0  0  0  0  0  0  0  0  0
    8.1226    0.7283   -0.4883 H   0  0  0  0  0  0  0  0  0  0  0  0
    6.5942    2.6690   -0.6681 H   0  0  0  0  0  0  0  0  0  0  0  0
    5.5832    1.2109   -1.1326 H   0  0  0  0  0  0  0  0  0  0  0  0
    4.3820    1.0141    2.2619 H   0  0  0  0  0  0  0  0  0  0  0  0
    3.7188    0.7082    0.6489 H   0  0  0  0  0  0  0  0  0  0  0  0
    5.6823   -0.8265    2.2330 H   0  0  0  0  0  0  0  0  0  0  0  0
    4.8214   -1.2553    0.7463 H   0  0  0  0  0  0  0  0  0  0  0  0
  1  2  1  0
  2  3  1  0
  2 19  1  0
  3  4  1  0
  3  5  2  0
  5  6  1  0
  6  7  1  0
  6 19  1  0
  7  8  2  0
  7 18  1  0
  8  9  1  0
  9 10  2  0
 10 11  1  0
 11 12  1  0
 11 18  2  0
 12 13  2  0
 12 17  1  0
 13 14  1  0
 14 15  2  0
 15 16  1  0
 16 17  2  0
 19 20  2  0
  1 21  1  0
  1 22  1  0
  1 23  1  0
  4 24  1  0
  4 25  1  0
  5 26  1  0
  8 27  1  0
  9 28  1  0
 10 29  1  0
 13 30  1  0
 14 31  1  0
 15 32  1  0
 17 33  1  0
 18 34  1  0
 35 36  1  0
 36 37  1  0
 37 38  1  0
 38 39  1  0
 39 40  1  0
 40 41  1  0
 41 36  1  0
 35 42  1  0
 35 43  1  0
 37 44  1  0
 37 45  1  0
 38 46  1  0
 38 47  1  0
 40 48  1  0
 40 49  1  0
 41 50  1  0
 41 51  1  0
  6 35  1  6
M  CHG  1   5   1
M  END
>  <attachment_point>  (51) 
26

>  <score>  (51) 
<NA>

$$$$
CAT-4j
     RDKit          3D

 35 37  0  0  1  0  0  0  0  0999 V2000
   11.7106   -2.3098    1.2658 C   0  0  0  0  0  0  0  0  0  0  0  0
   13.0313   -2.6523    0.7225 N   0  0  0  0  0  0  0  0  0  0  0  0
   14.2010   -2.6281    1.3773 C   0  0  0  0  0  0  0  0  0  0  0  0
   14.3777   -2.3568    2.6732 N   0  0  0  0  0  0  0  0  0  0  0  0
   15.2217   -2.9197    0.5738 N   0  0  0  0  0  0  0  0  0  0  0  0
   14.7965   -3.2519   -0.7875 C   0  0  1  0  0  0  0  0  0  0  0  0
   15.3794   -2.2443   -1.7949 C   0  0  0  0  0  0  0  0  0  0  0  0
   15.9522   -2.6550   -3.0208 C   0  0  0  0  0  0  0  0  0  0  0  0
   16.4340   -1.6937   -3.9273 C   0  0  0  0  0  0  0  0  0  0  0  0
   16.3364   -0.3224   -3.6308 C   0  0  0  0  0  0  0  0  0  0  0  0
   15.7943    0.1250   -2.4073 C   0  0  0  0  0  0  0  0  0  0  0  0
   15.6711    1.5693   -2.0915 C   0  0  0  0  0  0  0  0  0  0  0  0
   15.3832    2.0354   -0.7903 C   0  0  0  0  0  0  0  0  0  0  0  0
   15.3534    3.4188   -0.5357 C   0  0  0  0  0  0  0  0  0  0  0  0
   15.5968    4.3049   -1.5946 C   0  0  0  0  0  0  0  0  0  0  0  0
   15.8275    3.8920   -2.8511 N   0  0  0  0  0  0  0  0  0  0  0  0
   15.8598    2.5642   -3.0762 C   0  0  0  0  0  0  0  0  0  0  0  0
   15.3327   -0.8573   -1.5012 C   0  0  0  0  0  0  0  0  0  0  0  0
   13.2767   -3.0094   -0.6368 C   0  0  0  0  0  0  0  0  0  0  0  0
   12.3981   -3.0674   -1.5055 O   0  0  0  0  0  0  0  0  0  0  0  0
    0.0000    0.0000    0.0000 H   0  0  0  0  0  0  0  0  0  0  0  0
    0.0000    0.0000    0.0000 H   0  0  0  0  0  0  0  0  0  0  0  0
    0.0000    0.0000    0.0000 H   0  0  0  0  0  0  0  0  0  0  0  0
    0.0000    0.0000    0.0000 H   0  0  0  0  0  0  0  0  0  0  0  0
    0.0000    0.0000    0.0000 H   0  0  0  0  0  0  0  0  0  0  0  0
    0.0000    0.0000    0.0000 H   0  0  0  0  0  0  0  0  0  0  0  0
    0.0000    0.0000    0.0000 H   0  0  0  0  0  0  0  0  0  0  0  0
    0.0000    0.0000    0.0000 H   0  0  0  0  0  0  0  0  0  0  0  0
    0.0000    0.0000    0.0000 H   0  0  0  0  0  0  0  0  0  0  0  0
    0.0000    0.0000    0.0000 H   0  0  0  0  0  0  0  0  0  0  0  0
    0.0000    0.0000    0.0000 H   0  0  0  0  0  0  0  0  0  0  0  0
    0.0000    0.0000    0.0000 H   0  0  0  0  0  0  0  0  0  0  0  0
    0.0000    0.0000    0.0000 H   0  0  0  0  0  0  0  0  0  0  0  0
    0.0000    0.0000    0.0000 H   0  0  0  0  0  0  0  0  0  0  0  0
    6.9738   -1.5327   -0.3712 I   0  0  0  0  0  0  0  0  0  0  0  0
  1  2  1  0
  2  3  1  0
  2 19  1  0
  3  4  1  0
  3  5  2  0
  5  6  1  0
  6  7  1  0
  6 19  1  0
  7  8  2  0
  7 18  1  0
  8  9  1  0
  9 10  2  0
 10 11  1  0
 11 12  1  0
 11 18  2  0
 12 13  2  0
 12 17  1  0
 13 14  1  0
 14 15  2  0
 15 16  1  0
 16 17  2  0
 19 20  2  0
  1 21  1  0
  1 22  1  0
  1 23  1  0
  4 24  1  0
  4 25  1  0
  5 26  1  0
  8 27  1  0
  9 28  1  0
 10 29  1  0
 13 30  1  0
 14 31  1  0
 15 32  1  0
 17 33  1  0
 18 34  1  0
  6 35  1  6
M  CHG  1   5   1
M  END
>  <attachment_point>  (52) 
26

>  <score>  (52) 
<NA>

$$$$
CAT-4j
     RDKit          3D

 44 46  0  0  1  0  0  0  0  0999 V2000
   11.7106   -2.3098    1.2658 C   0  0  0  0  0  0  0  0  0  0  0  0
   13.0313   -2.6523    0.7225 N   0  0  0  0  0  0  0  0  0  0  0  0
   14.2010   -2.6281    1.3773 C   0  0  0  0  0  0  0  0  0  0  0  0
   14.3777   -2.3568    2.6732 N   0  0  0  0  0  0  0  0  0  0  0  0
   15.2217   -2.9197    0.5738 N   0  0  0  0  0  0  0  0  0  0  0  0
   14.7965   -3.2519   -0.7875 C   0  0  1  0  0  0  0  0  0  0  0  0
   15.3794   -2.2443   -1.7949 C   0  0  0  0  0  0  0  0  0  0  0  0
   15.9522   -2.6550   -3.0208 C   0  0  0  0  0  0  0  0  0  0  0  0
   16.4340   -1.6937   -3.9273 C   0  0  0  0  0  0  0  0  0  0  0  0
   16.3364   -0.3224   -3.6308 C   0  0  0  0  0  0  0  0  0  0  0  0
   15.7943    0.1250   -2.4073 C   0  0  0  0  0  0  0  0  0  0  0  0
   15.6711    1.5693   -2.0915 C   0  0  0  0  0  0  0  0  0  0  0  0
   15.3832    2.0354   -0.7903 C   0  0  0  0  0  0  0  0  0  0  0  0
   15.3534    3.4188   -0.5357 C   0  0  0  0  0  0  0  0  0  0  0  0
   15.5968    4.3049   -1.5946 C   0  0  0  0  0  0  0  0  0  0  0  0
   15.8275    3.8920   -2.8511 N   0  0  0  0  0  0  0  0  0  0  0  0
   15.8598    2.5642   -3.0762 C   0  0  0  0  0  0  0  0  0  0  0  0
   15.3327   -0.8573   -1.5012 C   0  0  0  0  0  0  0  0  0  0  0  0
   13.2767   -3.0094   -0.6368 C   0  0  0  0  0  0  0  0  0  0  0  0
   12.3981   -3.0674   -1.5055 O   0  0  0  0  0  0  0  0  0  0  0  0
    0.0000    0.0000    0.0000 H   0  0  0  0  0  0  0  0  0  0  0  0
    0.0000    0.0000    0.0000 H   0  0  0  0  0  0  0  0  0  0  0  0
    0.0000    0.0000    0.0000 H   0  0  0  0  0  0  0  0  0  0  0  0
    0.0000    0.0000    0.0000 H   0  0  0  0  0  0  0  0  0  0  0  0
    0.0000    0.0000    0.0000 H   0  0  0  0  0  0  0  0  0  0  0  0
    0.0000    0.0000    0.0000 H   0  0  0  0  0  0  0  0  0  0  0  0
    0.0000    0.0000    0.0000 H   0  0  0  0  0  0  0  0  0  0  0  0
    0.0000    0.0000    0.0000 H   0  0  0  0  0  0  0  0  0  0  0  0
    0.0000    0.0000    0.0000 H   0  0  0  0  0  0  0  0  0  0  0  0
    0.0000    0.0000    0.0000 H   0  0  0  0  0  0  0  0  0  0  0  0
    0.0000    0.0000    0.0000 H   0  0  0  0  0  0  0  0  0  0  0  0
    0.0000    0.0000    0.0000 H   0  0  0  0  0  0  0  0  0  0  0  0
    0.0000    0.0000    0.0000 H   0  0  0  0  0  0  0  0  0  0  0  0
    0.0000    0.0000    0.0000 H   0  0  0  0  0  0  0  0  0  0  0  0
    6.9887   -1.5359   -0.3720 C   0  0  0  0  0  0  0  0  0  0  0  0
    6.4225   -0.6570   -1.0811 O   0  0  0  0  0  0  0  0  0  0  0  0
    6.2158   -2.2421    0.5276 O   0  0  0  0  0  0  0  0  0  0  0  0
    4.8393   -2.0626    0.7214 C   0  0  0  0  0  0  0  0  0  0  0  0
    4.0932   -2.3310   -0.5556 C   0  0  0  0  0  0  0  0  0  0  0  0
    4.6483   -1.0465    1.1294 H   0  0  0  0  0  0  0  0  0  0  0  0
    4.5329   -2.7907    1.5236 H   0  0  0  0  0  0  0  0  0  0  0  0
    3.0653   -2.7058   -0.3790 H   0  0  0  0  0  0  0  0  0  0  0  0
    4.1251   -1.4092   -1.1686 H   0  0  0  0  0  0  0  0  0  0  0  0
    4.6370   -3.1112   -1.1326 H   0  0  0  0  0  0  0  0  0  0  0  0
  1  2  1  0
  2  3  1  0
  2 19  1  0
  3  4  1  0
  3  5  2  0
  5  6  1  0
  6  7  1  0
  6 19  1  0
  7  8  2  0
  7 18  1  0
  8  9  1  0
  9 10  2  0
 10 11  1  0
 11 12  1  0
 11 18  2  0
 12 13  2  0
 12 17  1  0
 13 14  1  0
 14 15  2  0
 15 16  1  0
 16 17  2  0
 19 20  2  0
  1 21  1  0
  1 22  1  0
  1 23  1  0
  4 24  1  0
  4 25  1  0
  5 26  1  0
  8 27  1  0
  9 28  1  0
 10 29  1  0
 13 30  1  0
 14 31  1  0
 15 32  1  0
 17 33  1  0
 18 34  1  0
 35 36  2  0
 35 37  1  0
 37 38  1  0
 38 39  1  0
 38 40  1  0
 38 41  1  0
 39 42  1  0
 39 43  1  0
 39 44  1  0
  6 35  1  6
M  CHG  1   5   1
M  END
>  <attachment_point>  (53) 
26

>  <score>  (53) 
<NA>

$$$$
CAT-4j
     RDKit          3D

 40 42  0  0  1  0  0  0  0  0999 V2000
   11.7106   -2.3098    1.2658 C   0  0  0  0  0  0  0  0  0  0  0  0
   13.0313   -2.6523    0.7225 N   0  0  0  0  0  0  0  0  0  0  0  0
   14.2010   -2.6281    1.3773 C   0  0  0  0  0  0  0  0  0  0  0  0
   14.3777   -2.3568    2.6732 N   0  0  0  0  0  0  0  0  0  0  0  0
   15.2217   -2.9197    0.5738 N   0  0  0  0  0  0  0  0  0  0  0  0
   14.7965   -3.2519   -0.7875 C   0  0  1  0  0  0  0  0  0  0  0  0
   15.3794   -2.2443   -1.7949 C   0  0  0  0  0  0  0  0  0  0  0  0
   15.9522   -2.6550   -3.0208 C   0  0  0  0  0  0  0  0  0  0  0  0
   16.4340   -1.6937   -3.9273 C   0  0  0  0  0  0  0  0  0  0  0  0
   16.3364   -0.3224   -3.6308 C   0  0  0  0  0  0  0  0  0  0  0  0
   15.7943    0.1250   -2.4073 C   0  0  0  0  0  0  0  0  0  0  0  0
   15.6711    1.5693   -2.0915 C   0  0  0  0  0  0  0  0  0  0  0  0
   15.3832    2.0354   -0.7903 C   0  0  0  0  0  0  0  0  0  0  0  0
   15.3534    3.4188   -0.5357 C   0  0  0  0  0  0  0  0  0  0  0  0
   15.5968    4.3049   -1.5946 C   0  0  0  0  0  0  0  0  0  0  0  0
   15.8275    3.8920   -2.8511 N   0  0  0  0  0  0  0  0  0  0  0  0
   15.8598    2.5642   -3.0762 C   0  0  0  0  0  0  0  0  0  0  0  0
   15.3327   -0.8573   -1.5012 C   0  0  0  0  0  0  0  0  0  0  0  0
   13.2767   -3.0094   -0.6368 C   0  0  0  0  0  0  0  0  0  0  0  0
   12.3981   -3.0674   -1.5055 O   0  0  0  0  0  0  0  0  0  0  0  0
    0.0000    0.0000    0.0000 H   0  0  0  0  0  0  0  0  0  0  0  0
    0.0000    0.0000    0.0000 H   0  0  0  0  0  0  0  0  0  0  0  0
    0.0000    0.0000    0.0000 H   0  0  0  0  0  0  0  0  0  0  0  0
    0.0000    0.0000    0.0000 H   0  0  0  0  0  0  0  0  0  0  0  0
    0.0000    0.0000    0.0000 H   0  0  0  0  0  0  0  0  0  0  0  0
    0.0000    0.0000    0.0000 H   0  0  0  0  0  0  0  0  0  0  0  0
    0.0000    0.0000    0.0000 H   0  0  0  0  0  0  0  0  0  0  0  0
    0.0000    0.0000    0.0000 H   0  0  0  0  0  0  0  0  0  0  0  0
    0.0000    0.0000    0.0000 H   0  0  0  0  0  0  0  0  0  0  0  0
    0.0000    0.0000    0.0000 H   0  0  0  0  0  0  0  0  0  0  0  0
    0.0000    0.0000    0.0000 H   0  0  0  0  0  0  0  0  0  0  0  0
    0.0000    0.0000    0.0000 H   0  0  0  0  0  0  0  0  0  0  0  0
    0.0000    0.0000    0.0000 H   0  0  0  0  0  0  0  0  0  0  0  0
    0.0000    0.0000    0.0000 H   0  0  0  0  0  0  0  0  0  0  0  0
    6.9719   -1.5322   -0.3711 S   0  0  0  0  0  6  0  0  0  0  0  0
    5.9201   -2.8685   -0.2057 N   0  0  0  0  0  0  0  0  0  0  0  0
    6.5877   -0.7819   -1.6063 O   0  0  0  0  0  0  0  0  0  0  0  0
    6.8031   -0.5714    0.7887 O   0  0  0  0  0  0  0  0  0  0  0  0
    6.3540   -3.6802    0.2638 H   0  0  0  0  0  0  0  0  0  0  0  0
    5.3536   -3.0807   -1.0351 H   0  0  0  0  0  0  0  0  0  0  0  0
  1  2  1  0
  2  3  1  0
  2 19  1  0
  3  4  1  0
  3  5  2  0
  5  6  1  0
  6  7  1  1
  6 19  1  0
  7  8  2  0
  7 18  1  0
  8  9  1  0
  9 10  2  0
 10 11  1  0
 11 12  1  0
 11 18  2  0
 12 13  2  0
 12 17  1  0
 13 14  1  0
 14 15  2  0
 15 16  1  0
 16 17  2  0
 19 20  2  0
  1 21  1  0
  1 22  1  0
  1 23  1  0
  4 24  1  0
  4 25  1  0
  5 26  1  0
  8 27  1  0
  9 28  1  0
 10 29  1  0
 13 30  1  0
 14 31  1  0
 15 32  1  0
 17 33  1  0
 18 34  1  0
 35 36  1  0
 35 37  2  0
 35 38  2  0
 36 39  1  0
 36 40  1  0
  6 35  1  0
M  CHG  1   5   1
M  END
>  <attachment_point>  (54) 
26

>  <score>  (54) 
<NA>

$$$$
CAT-4j
     RDKit          3D

 50 53  0  0  1  0  0  0  0  0999 V2000
   11.7106   -2.3098    1.2658 C   0  0  0  0  0  0  0  0  0  0  0  0
   13.0313   -2.6523    0.7225 N   0  0  0  0  0  0  0  0  0  0  0  0
   14.2010   -2.6281    1.3773 C   0  0  0  0  0  0  0  0  0  0  0  0
   14.3777   -2.3568    2.6732 N   0  0  0  0  0  0  0  0  0  0  0  0
   15.2217   -2.9197    0.5738 N   0  0  0  0  0  0  0  0  0  0  0  0
   14.7965   -3.2519   -0.7875 C   0  0  1  0  0  0  0  0  0  0  0  0
   15.3794   -2.2443   -1.7949 C   0  0  0  0  0  0  0  0  0  0  0  0
   15.9522   -2.6550   -3.0208 C   0  0  0  0  0  0  0  0  0  0  0  0
   16.4340   -1.6937   -3.9273 C   0  0  0  0  0  0  0  0  0  0  0  0
   16.3364   -0.3224   -3.6308 C   0  0  0  0  0  0  0  0  0  0  0  0
   15.7943    0.1250   -2.4073 C   0  0  0  0  0  0  0  0  0  0  0  0
   15.6711    1.5693   -2.0915 C   0  0  0  0  0  0  0  0  0  0  0  0
   15.3832    2.0354   -0.7903 C   0  0  0  0  0  0  0  0  0  0  0  0
   15.3534    3.4188   -0.5357 C   0  0  0  0  0  0  0  0  0  0  0  0
   15.5968    4.3049   -1.5946 C   0  0  0  0  0  0  0  0  0  0  0  0
   15.8275    3.8920   -2.8511 N   0  0  0  0  0  0  0  0  0  0  0  0
   15.8598    2.5642   -3.0762 C   0  0  0  0  0  0  0  0  0  0  0  0
   15.3327   -0.8573   -1.5012 C   0  0  0  0  0  0  0  0  0  0  0  0
   13.2767   -3.0094   -0.6368 C   0  0  0  0  0  0  0  0  0  0  0  0
   12.3981   -3.0674   -1.5055 O   0  0  0  0  0  0  0  0  0  0  0  0
    0.0000    0.0000    0.0000 H   0  0  0  0  0  0  0  0  0  0  0  0
    0.0000    0.0000    0.0000 H   0  0  0  0  0  0  0  0  0  0  0  0
    0.0000    0.0000    0.0000 H   0  0  0  0  0  0  0  0  0  0  0  0
    0.0000    0.0000    0.0000 H   0  0  0  0  0  0  0  0  0  0  0  0
    0.0000    0.0000    0.0000 H   0  0  0  0  0  0  0  0  0  0  0  0
    0.0000    0.0000    0.0000 H   0  0  0  0  0  0  0  0  0  0  0  0
    0.0000    0.0000    0.0000 H   0  0  0  0  0  0  0  0  0  0  0  0
    0.0000    0.0000    0.0000 H   0  0  0  0  0  0  0  0  0  0  0  0
    0.0000    0.0000    0.0000 H   0  0  0  0  0  0  0  0  0  0  0  0
    0.0000    0.0000    0.0000 H   0  0  0  0  0  0  0  0  0  0  0  0
    0.0000    0.0000    0.0000 H   0  0  0  0  0  0  0  0  0  0  0  0
    0.0000    0.0000    0.0000 H   0  0  0  0  0  0  0  0  0  0  0  0
    0.0000    0.0000    0.0000 H   0  0  0  0  0  0  0  0  0  0  0  0
    0.0000    0.0000    0.0000 H   0  0  0  0  0  0  0  0  0  0  0  0
    7.0184   -1.5425   -0.3735 N   0  0  0  0  0  0  0  0  0  0  0  0
    6.7336   -0.2185    0.1496 C   0  0  0  0  0  0  0  0  0  0  0  0
    7.2635   -0.0539    1.5285 C   0  0  0  0  0  0  0  0  0  0  0  0
    8.5425    0.4198    1.7414 C   0  0  0  0  0  0  0  0  0  0  0  0
    9.0079    0.5627    3.0258 C   0  0  0  0  0  0  0  0  0  0  0  0
    8.2647    0.2569    4.1486 C   0  0  0  0  0  0  0  0  0  0  0  0
    6.9891   -0.2150    3.9131 C   0  0  0  0  0  0  0  0  0  0  0  0
    6.4932   -0.3693    2.6301 C   0  0  0  0  0  0  0  0  0  0  0  0
    6.5427   -1.7454   -1.2538 H   0  0  0  0  0  0  0  0  0  0  0  0
    7.2348    0.4985   -0.5633 H   0  0  0  0  0  0  0  0  0  0  0  0
    5.6595   -0.0025    0.0825 H   0  0  0  0  0  0  0  0  0  0  0  0
    9.1226    0.6588    0.8546 H   0  0  0  0  0  0  0  0  0  0  0  0
   10.0306    0.9419    3.1754 H   0  0  0  0  0  0  0  0  0  0  0  0
    8.6525    0.3773    5.1582 H   0  0  0  0  0  0  0  0  0  0  0  0
    6.3920   -0.4600    4.7815 H   0  0  0  0  0  0  0  0  0  0  0  0
    5.4930   -0.7398    2.4655 H   0  0  0  0  0  0  0  0  0  0  0  0
  1  2  1  0
  2  3  1  0
  2 19  1  0
  3  4  1  0
  3  5  2  0
  5  6  1  0
  6  7  1  0
  6 19  1  0
  7  8  2  0
  7 18  1  0
  8  9  1  0
  9 10  2  0
 10 11  1  0
 11 12  1  0
 11 18  2  0
 12 13  2  0
 12 17  1  0
 13 14  1  0
 14 15  2  0
 15 16  1  0
 16 17  2  0
 19 20  2  0
  1 21  1  0
  1 22  1  0
  1 23  1  0
  4 24  1  0
  4 25  1  0
  5 26  1  0
  8 27  1  0
  9 28  1  0
 10 29  1  0
 13 30  1  0
 14 31  1  0
 15 32  1  0
 17 33  1  0
 18 34  1  0
 35 36  1  0
 36 37  1  0
 37 38  2  0
 38 39  1  0
 39 40  2  0
 40 41  1  0
 41 42  2  0
 42 37  1  0
 35 43  1  0
 36 44  1  0
 36 45  1  0
 38 46  1  0
 39 47  1  0
 40 48  1  0
 41 49  1  0
 42 50  1  0
  6 35  1  6
M  CHG  1   5   1
M  END
>  <attachment_point>  (55) 
26

>  <score>  (55) 
<NA>

$$$$
CAT-4j
     RDKit          3D

 42 44  0  0  1  0  0  0  0  0999 V2000
   11.7106   -2.3098    1.2658 C   0  0  0  0  0  0  0  0  0  0  0  0
   13.0313   -2.6523    0.7225 N   0  0  0  0  0  0  0  0  0  0  0  0
   14.2010   -2.6281    1.3773 C   0  0  0  0  0  0  0  0  0  0  0  0
   14.3777   -2.3568    2.6732 N   0  0  0  0  0  0  0  0  0  0  0  0
   15.2217   -2.9197    0.5738 N   0  0  0  0  0  0  0  0  0  0  0  0
   14.7965   -3.2519   -0.7875 C   0  0  1  0  0  0  0  0  0  0  0  0
   15.3794   -2.2443   -1.7949 C   0  0  0  0  0  0  0  0  0  0  0  0
   15.9522   -2.6550   -3.0208 C   0  0  0  0  0  0  0  0  0  0  0  0
   16.4340   -1.6937   -3.9273 C   0  0  0  0  0  0  0  0  0  0  0  0
   16.3364   -0.3224   -3.6308 C   0  0  0  0  0  0  0  0  0  0  0  0
   15.7943    0.1250   -2.4073 C   0  0  0  0  0  0  0  0  0  0  0  0
   15.6711    1.5693   -2.0915 C   0  0  0  0  0  0  0  0  0  0  0  0
   15.3832    2.0354   -0.7903 C   0  0  0  0  0  0  0  0  0  0  0  0
   15.3534    3.4188   -0.5357 C   0  0  0  0  0  0  0  0  0  0  0  0
   15.5968    4.3049   -1.5946 C   0  0  0  0  0  0  0  0  0  0  0  0
   15.8275    3.8920   -2.8511 N   0  0  0  0  0  0  0  0  0  0  0  0
   15.8598    2.5642   -3.0762 C   0  0  0  0  0  0  0  0  0  0  0  0
   15.3327   -0.8573   -1.5012 C   0  0  0  0  0  0  0  0  0  0  0  0
   13.2767   -3.0094   -0.6368 C   0  0  0  0  0  0  0  0  0  0  0  0
   12.3981   -3.0674   -1.5055 O   0  0  0  0  0  0  0  0  0  0  0  0
    0.0000    0.0000    0.0000 H   0  0  0  0  0  0  0  0  0  0  0  0
    0.0000    0.0000    0.0000 H   0  0  0  0  0  0  0  0  0  0  0  0
    0.0000    0.0000    0.0000 H   0  0  0  0  0  0  0  0  0  0  0  0
    0.0000    0.0000    0.0000 H   0  0  0  0  0  0  0  0  0  0  0  0
    0.0000    0.0000    0.0000 H   0  0  0  0  0  0  0  0  0  0  0  0
    0.0000    0.0000    0.0000 H   0  0  0  0  0  0  0  0  0  0  0  0
    0.0000    0.0000    0.0000 H   0  0  0  0  0  0  0  0  0  0  0  0
    0.0000    0.0000    0.0000 H   0  0  0  0  0  0  0  0  0  0  0  0
    0.0000    0.0000    0.0000 H   0  0  0  0  0  0  0  0  0  0  0  0
    0.0000    0.0000    0.0000 H   0  0  0  0  0  0  0  0  0  0  0  0
    0.0000    0.0000    0.0000 H   0  0  0  0  0  0  0  0  0  0  0  0
    0.0000    0.0000    0.0000 H   0  0  0  0  0  0  0  0  0  0  0  0
    0.0000    0.0000    0.0000 H   0  0  0  0  0  0  0  0  0  0  0  0
    0.0000    0.0000    0.0000 H   0  0  0  0  0  0  0  0  0  0  0  0
    6.9514   -1.5277   -0.3700 C   0  0  0  0  0  0  0  0  0  0  0  0
    6.0939   -2.3927   -0.6484 O   0  0  0  0  0  0  0  0  0  0  0  0
    6.5998   -0.2365    0.0223 N   0  0  0  0  0  0  0  0  0  0  0  0
    5.2021    0.1600    0.1242 C   0  0  0  0  0  0  0  0  0  0  0  0
    7.2941    0.5238    0.2663 H   0  0  0  0  0  0  0  0  0  0  0  0
    4.5153   -0.6698   -0.1091 H   0  0  0  0  0  0  0  0  0  0  0  0
    5.0399    0.9469   -0.6166 H   0  0  0  0  0  0  0  0  0  0  0  0
    5.0312    0.5855    1.1309 H   0  0  0  0  0  0  0  0  0  0  0  0
  1  2  1  0
  2  3  1  0
  2 19  1  0
  3  4  1  0
  3  5  2  0
  5  6  1  0
  6  7  1  0
  6 19  1  0
  7  8  2  0
  7 18  1  0
  8  9  1  0
  9 10  2  0
 10 11  1  0
 11 12  1  0
 11 18  2  0
 12 13  2  0
 12 17  1  0
 13 14  1  0
 14 15  2  0
 15 16  1  0
 16 17  2  0
 19 20  2  0
  1 21  1  0
  1 22  1  0
  1 23  1  0
  4 24  1  0
  4 25  1  0
  5 26  1  0
  8 27  1  0
  9 28  1  0
 10 29  1  0
 13 30  1  0
 14 31  1  0
 15 32  1  0
 17 33  1  0
 18 34  1  0
 35 36  2  0
 35 37  1  0
 37 38  1  0
 37 39  1  0
 38 40  1  0
 38 41  1  0
 38 42  1  0
  6 35  1  6
M  CHG  1   5   1
M  END
>  <attachment_point>  (56) 
26

>  <score>  (56) 
<NA>

$$$$
CAT-4j
     RDKit          3D

 46 48  0  0  1  0  0  0  0  0999 V2000
   11.7106   -2.3098    1.2658 C   0  0  0  0  0  0  0  0  0  0  0  0
   13.0313   -2.6523    0.7225 N   0  0  0  0  0  0  0  0  0  0  0  0
   14.2010   -2.6281    1.3773 C   0  0  0  0  0  0  0  0  0  0  0  0
   14.3777   -2.3568    2.6732 N   0  0  0  0  0  0  0  0  0  0  0  0
   15.2217   -2.9197    0.5738 N   0  0  0  0  0  0  0  0  0  0  0  0
   14.7965   -3.2519   -0.7875 C   0  0  1  0  0  0  0  0  0  0  0  0
   15.3794   -2.2443   -1.7949 C   0  0  0  0  0  0  0  0  0  0  0  0
   15.9522   -2.6550   -3.0208 C   0  0  0  0  0  0  0  0  0  0  0  0
   16.4340   -1.6937   -3.9273 C   0  0  0  0  0  0  0  0  0  0  0  0
   16.3364   -0.3224   -3.6308 C   0  0  0  0  0  0  0  0  0  0  0  0
   15.7943    0.1250   -2.4073 C   0  0  0  0  0  0  0  0  0  0  0  0
   15.6711    1.5693   -2.0915 C   0  0  0  0  0  0  0  0  0  0  0  0
   15.3832    2.0354   -0.7903 C   0  0  0  0  0  0  0  0  0  0  0  0
   15.3534    3.4188   -0.5357 C   0  0  0  0  0  0  0  0  0  0  0  0
   15.5968    4.3049   -1.5946 C   0  0  0  0  0  0  0  0  0  0  0  0
   15.8275    3.8920   -2.8511 N   0  0  0  0  0  0  0  0  0  0  0  0
   15.8598    2.5642   -3.0762 C   0  0  0  0  0  0  0  0  0  0  0  0
   15.3327   -0.8573   -1.5012 C   0  0  0  0  0  0  0  0  0  0  0  0
   13.2767   -3.0094   -0.6368 C   0  0  0  0  0  0  0  0  0  0  0  0
   12.3981   -3.0674   -1.5055 O   0  0  0  0  0  0  0  0  0  0  0  0
    0.0000    0.0000    0.0000 H   0  0  0  0  0  0  0  0  0  0  0  0
    0.0000    0.0000    0.0000 H   0  0  0  0  0  0  0  0  0  0  0  0
    0.0000    0.0000    0.0000 H   0  0  0  0  0  0  0  0  0  0  0  0
    0.0000    0.0000    0.0000 H   0  0  0  0  0  0  0  0  0  0  0  0
    0.0000    0.0000    0.0000 H   0  0  0  0  0  0  0  0  0  0  0  0
    0.0000    0.0000    0.0000 H   0  0  0  0  0  0  0  0  0  0  0  0
    0.0000    0.0000    0.0000 H   0  0  0  0  0  0  0  0  0  0  0  0
    0.0000    0.0000    0.0000 H   0  0  0  0  0  0  0  0  0  0  0  0
    0.0000    0.0000    0.0000 H   0  0  0  0  0  0  0  0  0  0  0  0
    0.0000    0.0000    0.0000 H   0  0  0  0  0  0  0  0  0  0  0  0
    0.0000    0.0000    0.0000 H   0  0  0  0  0  0  0  0  0  0  0  0
    0.0000    0.0000    0.0000 H   0  0  0  0  0  0  0  0  0  0  0  0
    0.0000    0.0000    0.0000 H   0  0  0  0  0  0  0  0  0  0  0  0
    0.0000    0.0000    0.0000 H   0  0  0  0  0  0  0  0  0  0  0  0
    6.9705   -1.5319   -0.3710 C   0  0  0  0  0  0  0  0  0  0  0  0
    6.2248   -1.9085   -1.5020 N   0  0  0  0  0  0  0  0  0  0  0  0
    6.1753   -3.2447   -1.8861 C   0  0  0  0  0  0  0  0  0  0  0  0
    5.2860   -1.0048   -2.0210 C   0  0  0  0  0  0  0  0  0  0  0  0
    6.6546   -1.9696    0.5939 H   0  0  0  0  0  0  0  0  0  0  0  0
    6.9406   -0.4304   -0.2494 H   0  0  0  0  0  0  0  0  0  0  0  0
    5.1672   -3.6733   -1.6092 H   0  0  0  0  0  0  0  0  0  0  0  0
    6.1897   -3.3194   -3.0128 H   0  0  0  0  0  0  0  0  0  0  0  0
    7.0061   -3.8131   -1.4666 H   0  0  0  0  0  0  0  0  0  0  0  0
    5.7921   -0.0401   -2.2955 H   0  0  0  0  0  0  0  0  0  0  0  0
    4.7678   -1.4577   -2.8831 H   0  0  0  0  0  0  0  0  0  0  0  0
    4.5136   -0.7496   -1.2764 H   0  0  0  0  0  0  0  0  0  0  0  0
  1  2  1  0
  2  3  1  0
  2 19  1  0
  3  4  1  0
  3  5  2  0
  5  6  1  0
  6  7  1  0
  6 19  1  0
  7  8  2  0
  7 18  1  0
  8  9  1  0
  9 10  2  0
 10 11  1  0
 11 12  1  0
 11 18  2  0
 12 13  2  0
 12 17  1  0
 13 14  1  0
 14 15  2  0
 15 16  1  0
 16 17  2  0
 19 20  2  0
  1 21  1  0
  1 22  1  0
  1 23  1  0
  4 24  1  0
  4 25  1  0
  5 26  1  0
  8 27  1  0
  9 28  1  0
 10 29  1  0
 13 30  1  0
 14 31  1  0
 15 32  1  0
 17 33  1  0
 18 34  1  0
 35 36  1  0
 36 37  1  0
 36 38  1  0
 35 39  1  0
 35 40  1  0
 37 41  1  0
 37 42  1  0
 37 43  1  0
 38 44  1  0
 38 45  1  0
 38 46  1  0
  6 35  1  6
M  CHG  1   5   1
M  END
>  <attachment_point>  (57) 
26

>  <score>  (57) 
<NA>

$$$$
CAT-4j
     RDKit          3D

 45 47  0  0  1  0  0  0  0  0999 V2000
   11.7106   -2.3098    1.2658 C   0  0  0  0  0  0  0  0  0  0  0  0
   13.0313   -2.6523    0.7225 N   0  0  0  0  0  0  0  0  0  0  0  0
   14.2010   -2.6281    1.3773 C   0  0  0  0  0  0  0  0  0  0  0  0
   14.3777   -2.3568    2.6732 N   0  0  0  0  0  0  0  0  0  0  0  0
   15.2217   -2.9197    0.5738 N   0  0  0  0  0  0  0  0  0  0  0  0
   14.7965   -3.2519   -0.7875 C   0  0  1  0  0  0  0  0  0  0  0  0
   15.3794   -2.2443   -1.7949 C   0  0  0  0  0  0  0  0  0  0  0  0
   15.9522   -2.6550   -3.0208 C   0  0  0  0  0  0  0  0  0  0  0  0
   16.4340   -1.6937   -3.9273 C   0  0  0  0  0  0  0  0  0  0  0  0
   16.3364   -0.3224   -3.6308 C   0  0  0  0  0  0  0  0  0  0  0  0
   15.7943    0.1250   -2.4073 C   0  0  0  0  0  0  0  0  0  0  0  0
   15.6711    1.5693   -2.0915 C   0  0  0  0  0  0  0  0  0  0  0  0
   15.3832    2.0354   -0.7903 C   0  0  0  0  0  0  0  0  0  0  0  0
   15.3534    3.4188   -0.5357 C   0  0  0  0  0  0  0  0  0  0  0  0
   15.5968    4.3049   -1.5946 C   0  0  0  0  0  0  0  0  0  0  0  0
   15.8275    3.8920   -2.8511 N   0  0  0  0  0  0  0  0  0  0  0  0
   15.8598    2.5642   -3.0762 C   0  0  0  0  0  0  0  0  0  0  0  0
   15.3327   -0.8573   -1.5012 C   0  0  0  0  0  0  0  0  0  0  0  0
   13.2767   -3.0094   -0.6368 C   0  0  0  0  0  0  0  0  0  0  0  0
   12.3981   -3.0674   -1.5055 O   0  0  0  0  0  0  0  0  0  0  0  0
    0.0000    0.0000    0.0000 H   0  0  0  0  0  0  0  0  0  0  0  0
    0.0000    0.0000    0.0000 H   0  0  0  0  0  0  0  0  0  0  0  0
    0.0000    0.0000    0.0000 H   0  0  0  0  0  0  0  0  0  0  0  0
    0.0000    0.0000    0.0000 H   0  0  0  0  0  0  0  0  0  0  0  0
    0.0000    0.0000    0.0000 H   0  0  0  0  0  0  0  0  0  0  0  0
    0.0000    0.0000    0.0000 H   0  0  0  0  0  0  0  0  0  0  0  0
    0.0000    0.0000    0.0000 H   0  0  0  0  0  0  0  0  0  0  0  0
    0.0000    0.0000    0.0000 H   0  0  0  0  0  0  0  0  0  0  0  0
    0.0000    0.0000    0.0000 H   0  0  0  0  0  0  0  0  0  0  0  0
    0.0000    0.0000    0.0000 H   0  0  0  0  0  0  0  0  0  0  0  0
    0.0000    0.0000    0.0000 H   0  0  0  0  0  0  0  0  0  0  0  0
    0.0000    0.0000    0.0000 H   0  0  0  0  0  0  0  0  0  0  0  0
    0.0000    0.0000    0.0000 H   0  0  0  0  0  0  0  0  0  0  0  0
    0.0000    0.0000    0.0000 H   0  0  0  0  0  0  0  0  0  0  0  0
    6.9924   -1.5368   -0.3721 C   0  0  0  0  0  0  0  0  0  0  0  0
    6.5784   -0.3657   -0.1811 O   0  0  0  0  0  0  0  0  0  0  0  0
    6.0321   -2.5653   -0.5148 N   0  0  0  0  0  0  0  0  0  0  0  0
    4.6358   -2.2078   -0.4325 C   0  0  0  0  0  0  0  0  0  0  0  0
    6.4307   -3.9279   -0.7356 C   0  0  0  0  0  0  0  0  0  0  0  0
    3.9576   -3.0425   -0.6712 H   0  0  0  0  0  0  0  0  0  0  0  0
    4.5005   -1.3357   -1.1359 H   0  0  0  0  0  0  0  0  0  0  0  0
    4.4754   -1.8326    0.6199 H   0  0  0  0  0  0  0  0  0  0  0  0
    7.0627   -3.9493   -1.6483 H   0  0  0  0  0  0  0  0  0  0  0  0
    5.5451   -4.5504   -0.9387 H   0  0  0  0  0  0  0  0  0  0  0  0
    7.0420   -4.2502    0.1035 H   0  0  0  0  0  0  0  0  0  0  0  0
  1  2  1  0
  2  3  1  0
  2 19  1  0
  3  4  1  0
  3  5  2  0
  5  6  1  0
  6  7  1  0
  6 19  1  0
  7  8  2  0
  7 18  1  0
  8  9  1  0
  9 10  2  0
 10 11  1  0
 11 12  1  0
 11 18  2  0
 12 13  2  0
 12 17  1  0
 13 14  1  0
 14 15  2  0
 15 16  1  0
 16 17  2  0
 19 20  2  0
  1 21  1  0
  1 22  1  0
  1 23  1  0
  4 24  1  0
  4 25  1  0
  5 26  1  0
  8 27  1  0
  9 28  1  0
 10 29  1  0
 13 30  1  0
 14 31  1  0
 15 32  1  0
 17 33  1  0
 18 34  1  0
 35 36  2  0
 35 37  1  0
 37 38  1  0
 37 39  1  0
 38 40  1  0
 38 41  1  0
 38 42  1  0
 39 43  1  0
 39 44  1  0
 39 45  1  0
  6 35  1  6
M  CHG  1   5   1
M  END
>  <attachment_point>  (58) 
26

>  <score>  (58) 
<NA>

$$$$
CAT-4j
     RDKit          3D

 45 48  0  0  1  0  0  0  0  0999 V2000
   11.7106   -2.3098    1.2658 C   0  0  0  0  0  0  0  0  0  0  0  0
   13.0313   -2.6523    0.7225 N   0  0  0  0  0  0  0  0  0  0  0  0
   14.2010   -2.6281    1.3773 C   0  0  0  0  0  0  0  0  0  0  0  0
   14.3777   -2.3568    2.6732 N   0  0  0  0  0  0  0  0  0  0  0  0
   15.2217   -2.9197    0.5738 N   0  0  0  0  0  0  0  0  0  0  0  0
   14.7965   -3.2519   -0.7875 C   0  0  1  0  0  0  0  0  0  0  0  0
   15.3794   -2.2443   -1.7949 C   0  0  0  0  0  0  0  0  0  0  0  0
   15.9522   -2.6550   -3.0208 C   0  0  0  0  0  0  0  0  0  0  0  0
   16.4340   -1.6937   -3.9273 C   0  0  0  0  0  0  0  0  0  0  0  0
   16.3364   -0.3224   -3.6308 C   0  0  0  0  0  0  0  0  0  0  0  0
   15.7943    0.1250   -2.4073 C   0  0  0  0  0  0  0  0  0  0  0  0
   15.6711    1.5693   -2.0915 C   0  0  0  0  0  0  0  0  0  0  0  0
   15.3832    2.0354   -0.7903 C   0  0  0  0  0  0  0  0  0  0  0  0
   15.3534    3.4188   -0.5357 C   0  0  0  0  0  0  0  0  0  0  0  0
   15.5968    4.3049   -1.5946 C   0  0  0  0  0  0  0  0  0  0  0  0
   15.8275    3.8920   -2.8511 N   0  0  0  0  0  0  0  0  0  0  0  0
   15.8598    2.5642   -3.0762 C   0  0  0  0  0  0  0  0  0  0  0  0
   15.3327   -0.8573   -1.5012 C   0  0  0  0  0  0  0  0  0  0  0  0
   13.2767   -3.0094   -0.6368 C   0  0  0  0  0  0  0  0  0  0  0  0
   12.3981   -3.0674   -1.5055 O   0  0  0  0  0  0  0  0  0  0  0  0
    0.0000    0.0000    0.0000 H   0  0  0  0  0  0  0  0  0  0  0  0
    0.0000    0.0000    0.0000 H   0  0  0  0  0  0  0  0  0  0  0  0
    0.0000    0.0000    0.0000 H   0  0  0  0  0  0  0  0  0  0  0  0
    0.0000    0.0000    0.0000 H   0  0  0  0  0  0  0  0  0  0  0  0
    0.0000    0.0000    0.0000 H   0  0  0  0  0  0  0  0  0  0  0  0
    0.0000    0.0000    0.0000 H   0  0  0  0  0  0  0  0  0  0  0  0
    0.0000    0.0000    0.0000 H   0  0  0  0  0  0  0  0  0  0  0  0
    0.0000    0.0000    0.0000 H   0  0  0  0  0  0  0  0  0  0  0  0
    0.0000    0.0000    0.0000 H   0  0  0  0  0  0  0  0  0  0  0  0
    0.0000    0.0000    0.0000 H   0  0  0  0  0  0  0  0  0  0  0  0
    0.0000    0.0000    0.0000 H   0  0  0  0  0  0  0  0  0  0  0  0
    0.0000    0.0000    0.0000 H   0  0  0  0  0  0  0  0  0  0  0  0
    0.0000    0.0000    0.0000 H   0  0  0  0  0  0  0  0  0  0  0  0
    0.0000    0.0000    0.0000 H   0  0  0  0  0  0  0  0  0  0  0  0
    6.9778   -1.5336   -0.3714 C   0  0  0  0  0  0  0  0  0  0  0  0
    6.1587   -1.5656   -1.4816 C   0  0  0  0  0  0  0  0  0  0  0  0
    4.8010   -1.2588   -1.3644 C   0  0  0  0  0  0  0  0  0  0  0  0
    4.3288   -0.9281   -0.1050 C   0  0  0  0  0  0  0  0  0  0  0  0
    5.1340   -0.8916    1.0134 C   0  0  0  0  0  0  0  0  0  0  0  0
    4.4731   -0.4621    2.5944 Cl  0  0  0  0  0  0  0  0  0  0  0  0
    6.4715   -1.1981    0.8746 C   0  0  0  0  0  0  0  0  0  0  0  0
    6.5770   -1.8317   -2.4510 H   0  0  0  0  0  0  0  0  0  0  0  0
    4.1581   -1.2796   -2.2115 H   0  0  0  0  0  0  0  0  0  0  0  0
    3.2773   -0.6761    0.0645 H   0  0  0  0  0  0  0  0  0  0  0  0
    7.0915   -1.1637    1.7702 H   0  0  0  0  0  0  0  0  0  0  0  0
  1  2  1  0
  2  3  1  0
  2 19  1  0
  3  4  1  0
  3  5  2  0
  5  6  1  0
  6  7  1  1
  6 19  1  0
  7  8  2  0
  7 18  1  0
  8  9  1  0
  9 10  2  0
 10 11  1  0
 11 12  1  0
 11 18  2  0
 12 13  2  0
 12 17  1  0
 13 14  1  0
 14 15  2  0
 15 16  1  0
 16 17  2  0
 19 20  2  0
  1 21  1  0
  1 22  1  0
  1 23  1  0
  4 24  1  0
  4 25  1  0
  5 26  1  0
  8 27  1  0
  9 28  1  0
 10 29  1  0
 13 30  1  0
 14 31  1  0
 15 32  1  0
 17 33  1  0
 18 34  1  0
 35 36  2  0
 36 37  1  0
 37 38  2  0
 38 39  1  0
 39 40  1  0
 39 41  2  0
 41 35  1  0
 36 42  1  0
 37 43  1  0
 38 44  1  0
 41 45  1  0
  6 35  1  0
M  CHG  1   5   1
M  END
>  <attachment_point>  (59) 
26

>  <score>  (59) 
<NA>

$$$$
CAT-4j
     RDKit          3D

 39 41  0  0  1  0  0  0  0  0999 V2000
   11.7106   -2.3098    1.2658 C   0  0  0  0  0  0  0  0  0  0  0  0
   13.0313   -2.6523    0.7225 N   0  0  0  0  0  0  0  0  0  0  0  0
   14.2010   -2.6281    1.3773 C   0  0  0  0  0  0  0  0  0  0  0  0
   14.3777   -2.3568    2.6732 N   0  0  0  0  0  0  0  0  0  0  0  0
   15.2217   -2.9197    0.5738 N   0  0  0  0  0  0  0  0  0  0  0  0
   14.7965   -3.2519   -0.7875 C   0  0  1  0  0  0  0  0  0  0  0  0
   15.3794   -2.2443   -1.7949 C   0  0  0  0  0  0  0  0  0  0  0  0
   15.9522   -2.6550   -3.0208 C   0  0  0  0  0  0  0  0  0  0  0  0
   16.4340   -1.6937   -3.9273 C   0  0  0  0  0  0  0  0  0  0  0  0
   16.3364   -0.3224   -3.6308 C   0  0  0  0  0  0  0  0  0  0  0  0
   15.7943    0.1250   -2.4073 C   0  0  0  0  0  0  0  0  0  0  0  0
   15.6711    1.5693   -2.0915 C   0  0  0  0  0  0  0  0  0  0  0  0
   15.3832    2.0354   -0.7903 C   0  0  0  0  0  0  0  0  0  0  0  0
   15.3534    3.4188   -0.5357 C   0  0  0  0  0  0  0  0  0  0  0  0
   15.5968    4.3049   -1.5946 C   0  0  0  0  0  0  0  0  0  0  0  0
   15.8275    3.8920   -2.8511 N   0  0  0  0  0  0  0  0  0  0  0  0
   15.8598    2.5642   -3.0762 C   0  0  0  0  0  0  0  0  0  0  0  0
   15.3327   -0.8573   -1.5012 C   0  0  0  0  0  0  0  0  0  0  0  0
   13.2767   -3.0094   -0.6368 C   0  0  0  0  0  0  0  0  0  0  0  0
   12.3981   -3.0674   -1.5055 O   0  0  0  0  0  0  0  0  0  0  0  0
    0.0000    0.0000    0.0000 H   0  0  0  0  0  0  0  0  0  0  0  0
    0.0000    0.0000    0.0000 H   0  0  0  0  0  0  0  0  0  0  0  0
    0.0000    0.0000    0.0000 H   0  0  0  0  0  0  0  0  0  0  0  0
    0.0000    0.0000    0.0000 H   0  0  0  0  0  0  0  0  0  0  0  0
    0.0000    0.0000    0.0000 H   0  0  0  0  0  0  0  0  0  0  0  0
    0.0000    0.0000    0.0000 H   0  0  0  0  0  0  0  0  0  0  0  0
    0.0000    0.0000    0.0000 H   0  0  0  0  0  0  0  0  0  0  0  0
    0.0000    0.0000    0.0000 H   0  0  0  0  0  0  0  0  0  0  0  0
    0.0000    0.0000    0.0000 H   0  0  0  0  0  0  0  0  0  0  0  0
    0.0000    0.0000    0.0000 H   0  0  0  0  0  0  0  0  0  0  0  0
    0.0000    0.0000    0.0000 H   0  0  0  0  0  0  0  0  0  0  0  0
    0.0000    0.0000    0.0000 H   0  0  0  0  0  0  0  0  0  0  0  0
    0.0000    0.0000    0.0000 H   0  0  0  0  0  0  0  0  0  0  0  0
    0.0000    0.0000    0.0000 H   0  0  0  0  0  0  0  0  0  0  0  0
    7.0667   -1.5531   -0.3761 S   0  0  0  0  0  0  0  0  0  0  0  0
    5.6403   -2.6211   -0.6450 C   0  0  0  0  0  0  0  0  0  0  0  0
    4.8485   -2.0899   -1.2145 H   0  0  0  0  0  0  0  0  0  0  0  0
    5.9782   -3.5320   -1.1915 H   0  0  0  0  0  0  0  0  0  0  0  0
    5.1928   -2.8888    0.3419 H   0  0  0  0  0  0  0  0  0  0  0  0
  1  2  1  0
  2  3  1  0
  2 19  1  0
  3  4  1  0
  3  5  2  0
  5  6  1  0
  6  7  1  0
  6 19  1  0
  7  8  2  0
  7 18  1  0
  8  9  1  0
  9 10  2  0
 10 11  1  0
 11 12  1  0
 11 18  2  0
 12 13  2  0
 12 17  1  0
 13 14  1  0
 14 15  2  0
 15 16  1  0
 16 17  2  0
 19 20  2  0
  1 21  1  0
  1 22  1  0
  1 23  1  0
  4 24  1  0
  4 25  1  0
  5 26  1  0
  8 27  1  0
  9 28  1  0
 10 29  1  0
 13 30  1  0
 14 31  1  0
 15 32  1  0
 17 33  1  0
 18 34  1  0
 35 36  1  0
 36 37  1  0
 36 38  1  0
 36 39  1  0
  6 35  1  6
M  CHG  1   5   1
M  END
>  <attachment_point>  (60) 
26

>  <score>  (60) 
<NA>

$$$$
CAT-4j
     RDKit          3D

 47 50  0  0  1  0  0  0  0  0999 V2000
   11.7106   -2.3098    1.2658 C   0  0  0  0  0  0  0  0  0  0  0  0
   13.0313   -2.6523    0.7225 N   0  0  0  0  0  0  0  0  0  0  0  0
   14.2010   -2.6281    1.3773 C   0  0  0  0  0  0  0  0  0  0  0  0
   14.3777   -2.3568    2.6732 N   0  0  0  0  0  0  0  0  0  0  0  0
   15.2217   -2.9197    0.5738 N   0  0  0  0  0  0  0  0  0  0  0  0
   14.7965   -3.2519   -0.7875 C   0  0  1  0  0  0  0  0  0  0  0  0
   15.3794   -2.2443   -1.7949 C   0  0  0  0  0  0  0  0  0  0  0  0
   15.9522   -2.6550   -3.0208 C   0  0  0  0  0  0  0  0  0  0  0  0
   16.4340   -1.6937   -3.9273 C   0  0  0  0  0  0  0  0  0  0  0  0
   16.3364   -0.3224   -3.6308 C   0  0  0  0  0  0  0  0  0  0  0  0
   15.7943    0.1250   -2.4073 C   0  0  0  0  0  0  0  0  0  0  0  0
   15.6711    1.5693   -2.0915 C   0  0  0  0  0  0  0  0  0  0  0  0
   15.3832    2.0354   -0.7903 C   0  0  0  0  0  0  0  0  0  0  0  0
   15.3534    3.4188   -0.5357 C   0  0  0  0  0  0  0  0  0  0  0  0
   15.5968    4.3049   -1.5946 C   0  0  0  0  0  0  0  0  0  0  0  0
   15.8275    3.8920   -2.8511 N   0  0  0  0  0  0  0  0  0  0  0  0
   15.8598    2.5642   -3.0762 C   0  0  0  0  0  0  0  0  0  0  0  0
   15.3327   -0.8573   -1.5012 C   0  0  0  0  0  0  0  0  0  0  0  0
   13.2767   -3.0094   -0.6368 C   0  0  0  0  0  0  0  0  0  0  0  0
   12.3981   -3.0674   -1.5055 O   0  0  0  0  0  0  0  0  0  0  0  0
    0.0000    0.0000    0.0000 H   0  0  0  0  0  0  0  0  0  0  0  0
    0.0000    0.0000    0.0000 H   0  0  0  0  0  0  0  0  0  0  0  0
    0.0000    0.0000    0.0000 H   0  0  0  0  0  0  0  0  0  0  0  0
    0.0000    0.0000    0.0000 H   0  0  0  0  0  0  0  0  0  0  0  0
    0.0000    0.0000    0.0000 H   0  0  0  0  0  0  0  0  0  0  0  0
    0.0000    0.0000    0.0000 H   0  0  0  0  0  0  0  0  0  0  0  0
    0.0000    0.0000    0.0000 H   0  0  0  0  0  0  0  0  0  0  0  0
    0.0000    0.0000    0.0000 H   0  0  0  0  0  0  0  0  0  0  0  0
    0.0000    0.0000    0.0000 H   0  0  0  0  0  0  0  0  0  0  0  0
    0.0000    0.0000    0.0000 H   0  0  0  0  0  0  0  0  0  0  0  0
    0.0000    0.0000    0.0000 H   0  0  0  0  0  0  0  0  0  0  0  0
    0.0000    0.0000    0.0000 H   0  0  0  0  0  0  0  0  0  0  0  0
    0.0000    0.0000    0.0000 H   0  0  0  0  0  0  0  0  0  0  0  0
    0.0000    0.0000    0.0000 H   0  0  0  0  0  0  0  0  0  0  0  0
    6.8247   -1.4999   -0.3632 C   0  0  0  0  0  0  0  0  0  0  0  0
    6.7133   -0.3627   -0.1300 O   0  0  0  0  0  0  0  0  0  0  0  0
    6.1109   -2.6750   -0.5973 C   0  0  0  0  0  0  0  0  0  0  0  0
    4.6968   -2.6733   -0.5851 C   0  0  0  0  0  0  0  0  0  0  0  0
    4.0008   -3.8207   -0.8136 C   0  0  0  0  0  0  0  0  0  0  0  0
    4.6147   -5.0228   -1.0642 C   0  0  0  0  0  0  0  0  0  0  0  0
    5.9856   -5.0345   -1.0781 C   0  0  0  0  0  0  0  0  0  0  0  0
    6.7078   -3.8994   -0.8523 C   0  0  0  0  0  0  0  0  0  0  0  0
    4.2644   -1.6961   -0.3818 H   0  0  0  0  0  0  0  0  0  0  0  0
    2.9223   -3.7622   -0.7926 H   0  0  0  0  0  0  0  0  0  0  0  0
    4.0374   -5.9433   -1.2475 H   0  0  0  0  0  0  0  0  0  0  0  0
    6.5161   -5.9540   -1.2704 H   0  0  0  0  0  0  0  0  0  0  0  0
    7.8068   -4.0059   -0.8832 H   0  0  0  0  0  0  0  0  0  0  0  0
  1  2  1  0
  2  3  1  0
  2 19  1  0
  3  4  1  0
  3  5  2  0
  5  6  1  0
  6  7  1  0
  6 19  1  0
  7  8  2  0
  7 18  1  0
  8  9  1  0
  9 10  2  0
 10 11  1  0
 11 12  1  0
 11 18  2  0
 12 13  2  0
 12 17  1  0
 13 14  1  0
 14 15  2  0
 15 16  1  0
 16 17  2  0
 19 20  2  0
  1 21  1  0
  1 22  1  0
  1 23  1  0
  4 24  1  0
  4 25  1  0
  5 26  1  0
  8 27  1  0
  9 28  1  0
 10 29  1  0
 13 30  1  0
 14 31  1  0
 15 32  1  0
 17 33  1  0
 18 34  1  0
 35 36  2  0
 35 37  1  0
 37 38  2  0
 38 39  1  0
 39 40  2  0
 40 41  1  0
 41 42  2  0
 42 37  1  0
 38 43  1  0
 39 44  1  0
 40 45  1  0
 41 46  1  0
 42 47  1  0
  6 35  1  6
M  CHG  1   5   1
M  END
>  <attachment_point>  (61) 
26

>  <score>  (61) 
<NA>

$$$$
CAT-4j
     RDKit          3D

 53 56  0  0  1  0  0  0  0  0999 V2000
   11.7106   -2.3098    1.2658 C   0  0  0  0  0  0  0  0  0  0  0  0
   13.0313   -2.6523    0.7225 N   0  0  0  0  0  0  0  0  0  0  0  0
   14.2010   -2.6281    1.3773 C   0  0  0  0  0  0  0  0  0  0  0  0
   14.3777   -2.3568    2.6732 N   0  0  0  0  0  0  0  0  0  0  0  0
   15.2217   -2.9197    0.5738 N   0  0  0  0  0  0  0  0  0  0  0  0
   14.7965   -3.2519   -0.7875 C   0  0  1  0  0  0  0  0  0  0  0  0
   15.3794   -2.2443   -1.7949 C   0  0  0  0  0  0  0  0  0  0  0  0
   15.9522   -2.6550   -3.0208 C   0  0  0  0  0  0  0  0  0  0  0  0
   16.4340   -1.6937   -3.9273 C   0  0  0  0  0  0  0  0  0  0  0  0
   16.3364   -0.3224   -3.6308 C   0  0  0  0  0  0  0  0  0  0  0  0
   15.7943    0.1250   -2.4073 C   0  0  0  0  0  0  0  0  0  0  0  0
   15.6711    1.5693   -2.0915 C   0  0  0  0  0  0  0  0  0  0  0  0
   15.3832    2.0354   -0.7903 C   0  0  0  0  0  0  0  0  0  0  0  0
   15.3534    3.4188   -0.5357 C   0  0  0  0  0  0  0  0  0  0  0  0
   15.5968    4.3049   -1.5946 C   0  0  0  0  0  0  0  0  0  0  0  0
   15.8275    3.8920   -2.8511 N   0  0  0  0  0  0  0  0  0  0  0  0
   15.8598    2.5642   -3.0762 C   0  0  0  0  0  0  0  0  0  0  0  0
   15.3327   -0.8573   -1.5012 C   0  0  0  0  0  0  0  0  0  0  0  0
   13.2767   -3.0094   -0.6368 C   0  0  0  0  0  0  0  0  0  0  0  0
   12.3981   -3.0674   -1.5055 O   0  0  0  0  0  0  0  0  0  0  0  0
    0.0000    0.0000    0.0000 H   0  0  0  0  0  0  0  0  0  0  0  0
    0.0000    0.0000    0.0000 H   0  0  0  0  0  0  0  0  0  0  0  0
    0.0000    0.0000    0.0000 H   0  0  0  0  0  0  0  0  0  0  0  0
    0.0000    0.0000    0.0000 H   0  0  0  0  0  0  0  0  0  0  0  0
    0.0000    0.0000    0.0000 H   0  0  0  0  0  0  0  0  0  0  0  0
    0.0000    0.0000    0.0000 H   0  0  0  0  0  0  0  0  0  0  0  0
    0.0000    0.0000    0.0000 H   0  0  0  0  0  0  0  0  0  0  0  0
    0.0000    0.0000    0.0000 H   0  0  0  0  0  0  0  0  0  0  0  0
    0.0000    0.0000    0.0000 H   0  0  0  0  0  0  0  0  0  0  0  0
    0.0000    0.0000    0.0000 H   0  0  0  0  0  0  0  0  0  0  0  0
    0.0000    0.0000    0.0000 H   0  0  0  0  0  0  0  0  0  0  0  0
    0.0000    0.0000    0.0000 H   0  0  0  0  0  0  0  0  0  0  0  0
    0.0000    0.0000    0.0000 H   0  0  0  0  0  0  0  0  0  0  0  0
    0.0000    0.0000    0.0000 H   0  0  0  0  0  0  0  0  0  0  0  0
    6.9881   -1.5358   -0.3719 C   0  0  0  0  0  0  0  0  0  0  0  0
    6.7937   -0.2119    0.0681 N   0  0  0  0  0  0  0  0  0  0  0  0
    7.2753    0.1805    1.3112 C   0  0  0  0  0  0  0  0  0  0  0  0
    7.2521    1.7154    1.3763 C   0  0  0  0  0  0  0  0  0  0  0  0
    7.5391    2.1855   -0.0409 C   0  0  0  0  0  0  0  0  0  0  0  0
    6.2568    1.9946   -0.8525 C   0  0  0  0  0  0  0  0  0  0  0  0
    5.8025    0.5603   -0.5583 C   0  0  0  0  0  0  0  0  0  0  0  0
    6.5986   -1.6342   -1.4084 H   0  0  0  0  0  0  0  0  0  0  0  0
    6.4627   -2.2755    0.2516 H   0  0  0  0  0  0  0  0  0  0  0  0
    6.7064   -0.2077    2.1848 H   0  0  0  0  0  0  0  0  0  0  0  0
    8.3408   -0.1029    1.4304 H   0  0  0  0  0  0  0  0  0  0  0  0
    7.9964    2.0978    2.0876 H   0  0  0  0  0  0  0  0  0  0  0  0
    6.2081    1.9786    1.6816 H   0  0  0  0  0  0  0  0  0  0  0  0
    8.2796    1.4800   -0.5094 H   0  0  0  0  0  0  0  0  0  0  0  0
    7.8908    3.2227   -0.0705 H   0  0  0  0  0  0  0  0  0  0  0  0
    6.5406    2.0938   -1.9301 H   0  0  0  0  0  0  0  0  0  0  0  0
    5.5064    2.7358   -0.5784 H   0  0  0  0  0  0  0  0  0  0  0  0
    4.9366    0.6821    0.1561 H   0  0  0  0  0  0  0  0  0  0  0  0
    5.4186    0.0628   -1.4584 H   0  0  0  0  0  0  0  0  0  0  0  0
  1  2  1  0
  2  3  1  0
  2 19  1  0
  3  4  1  0
  3  5  2  0
  5  6  1  0
  6  7  1  0
  6 19  1  0
  7  8  2  0
  7 18  1  0
  8  9  1  0
  9 10  2  0
 10 11  1  0
 11 12  1  0
 11 18  2  0
 12 13  2  0
 12 17  1  0
 13 14  1  0
 14 15  2  0
 15 16  1  0
 16 17  2  0
 19 20  2  0
  1 21  1  0
  1 22  1  0
  1 23  1  0
  4 24  1  0
  4 25  1  0
  5 26  1  0
  8 27  1  0
  9 28  1  0
 10 29  1  0
 13 30  1  0
 14 31  1  0
 15 32  1  0
 17 33  1  0
 18 34  1  0
 35 36  1  0
 36 37  1  0
 37 38  1  0
 38 39  1  0
 39 40  1  0
 40 41  1  0
 41 36  1  0
 35 42  1  0
 35 43  1  0
 37 44  1  0
 37 45  1  0
 38 46  1  0
 38 47  1  0
 39 48  1  0
 39 49  1  0
 40 50  1  0
 40 51  1  0
 41 52  1  0
 41 53  1  0
  6 35  1  6
M  CHG  1   5   1
M  END
>  <attachment_point>  (62) 
26

>  <score>  (62) 
<NA>

$$$$
CAT-4j
     RDKit          3D

 48 51  0  0  1  0  0  0  0  0999 V2000
   11.7106   -2.3098    1.2658 C   0  0  0  0  0  0  0  0  0  0  0  0
   13.0313   -2.6523    0.7225 N   0  0  0  0  0  0  0  0  0  0  0  0
   14.2010   -2.6281    1.3773 C   0  0  0  0  0  0  0  0  0  0  0  0
   14.3777   -2.3568    2.6732 N   0  0  0  0  0  0  0  0  0  0  0  0
   15.2217   -2.9197    0.5738 N   0  0  0  0  0  0  0  0  0  0  0  0
   14.7965   -3.2519   -0.7875 C   0  0  1  0  0  0  0  0  0  0  0  0
   15.3794   -2.2443   -1.7949 C   0  0  0  0  0  0  0  0  0  0  0  0
   15.9522   -2.6550   -3.0208 C   0  0  0  0  0  0  0  0  0  0  0  0
   16.4340   -1.6937   -3.9273 C   0  0  0  0  0  0  0  0  0  0  0  0
   16.3364   -0.3224   -3.6308 C   0  0  0  0  0  0  0  0  0  0  0  0
   15.7943    0.1250   -2.4073 C   0  0  0  0  0  0  0  0  0  0  0  0
   15.6711    1.5693   -2.0915 C   0  0  0  0  0  0  0  0  0  0  0  0
   15.3832    2.0354   -0.7903 C   0  0  0  0  0  0  0  0  0  0  0  0
   15.3534    3.4188   -0.5357 C   0  0  0  0  0  0  0  0  0  0  0  0
   15.5968    4.3049   -1.5946 C   0  0  0  0  0  0  0  0  0  0  0  0
   15.8275    3.8920   -2.8511 N   0  0  0  0  0  0  0  0  0  0  0  0
   15.8598    2.5642   -3.0762 C   0  0  0  0  0  0  0  0  0  0  0  0
   15.3327   -0.8573   -1.5012 C   0  0  0  0  0  0  0  0  0  0  0  0
   13.2767   -3.0094   -0.6368 C   0  0  0  0  0  0  0  0  0  0  0  0
   12.3981   -3.0674   -1.5055 O   0  0  0  0  0  0  0  0  0  0  0  0
    0.0000    0.0000    0.0000 H   0  0  0  0  0  0  0  0  0  0  0  0
    0.0000    0.0000    0.0000 H   0  0  0  0  0  0  0  0  0  0  0  0
    0.0000    0.0000    0.0000 H   0  0  0  0  0  0  0  0  0  0  0  0
    0.0000    0.0000    0.0000 H   0  0  0  0  0  0  0  0  0  0  0  0
    0.0000    0.0000    0.0000 H   0  0  0  0  0  0  0  0  0  0  0  0
    0.0000    0.0000    0.0000 H   0  0  0  0  0  0  0  0  0  0  0  0
    0.0000    0.0000    0.0000 H   0  0  0  0  0  0  0  0  0  0  0  0
    0.0000    0.0000    0.0000 H   0  0  0  0  0  0  0  0  0  0  0  0
    0.0000    0.0000    0.0000 H   0  0  0  0  0  0  0  0  0  0  0  0
    0.0000    0.0000    0.0000 H   0  0  0  0  0  0  0  0  0  0  0  0
    0.0000    0.0000    0.0000 H   0  0  0  0  0  0  0  0  0  0  0  0
    0.0000    0.0000    0.0000 H   0  0  0  0  0  0  0  0  0  0  0  0
    0.0000    0.0000    0.0000 H   0  0  0  0  0  0  0  0  0  0  0  0
    0.0000    0.0000    0.0000 H   0  0  0  0  0  0  0  0  0  0  0  0
    6.9781   -1.5336   -0.3714 C   0  0  0  0  0  0  0  0  0  0  0  0
    6.3819   -1.2138   -1.7211 C   0  0  0  0  0  0  0  0  0  0  0  0
    5.1828   -2.1001   -1.9024 C   0  0  0  0  0  0  0  0  0  0  0  0
    4.8616   -2.5357   -0.4699 C   0  0  0  0  0  0  0  0  0  0  0  0
    6.2981   -2.8360   -0.0183 C   0  0  0  0  0  0  0  0  0  0  0  0
    6.7672   -0.7340    0.3737 H   0  0  0  0  0  0  0  0  0  0  0  0
    6.0808   -0.1508   -1.7708 H   0  0  0  0  0  0  0  0  0  0  0  0
    7.1581   -1.4539   -2.4799 H   0  0  0  0  0  0  0  0  0  0  0  0
    5.5443   -3.0303   -2.4181 H   0  0  0  0  0  0  0  0  0  0  0  0
    4.3365   -1.6303   -2.3957 H   0  0  0  0  0  0  0  0  0  0  0  0
    4.2675   -3.4726   -0.4541 H   0  0  0  0  0  0  0  0  0  0  0  0
    4.4177   -1.7127    0.1011 H   0  0  0  0  0  0  0  0  0  0  0  0
    6.6732   -3.5995   -0.7249 H   0  0  0  0  0  0  0  0  0  0  0  0
    6.3583   -3.1038    1.0315 H   0  0  0  0  0  0  0  0  0  0  0  0
  1  2  1  0
  2  3  1  0
  2 19  1  0
  3  4  1  0
  3  5  2  0
  5  6  1  0
  6  7  1  0
  6 19  1  0
  7  8  2  0
  7 18  1  0
  8  9  1  0
  9 10  2  0
 10 11  1  0
 11 12  1  0
 11 18  2  0
 12 13  2  0
 12 17  1  0
 13 14  1  0
 14 15  2  0
 15 16  1  0
 16 17  2  0
 19 20  2  0
  1 21  1  0
  1 22  1  0
  1 23  1  0
  4 24  1  0
  4 25  1  0
  5 26  1  0
  8 27  1  0
  9 28  1  0
 10 29  1  0
 13 30  1  0
 14 31  1  0
 15 32  1  0
 17 33  1  0
 18 34  1  0
 35 36  1  0
 36 37  1  0
 37 38  1  0
 38 39  1  0
 39 35  1  0
 35 40  1  0
 36 41  1  0
 36 42  1  0
 37 43  1  0
 37 44  1  0
 38 45  1  0
 38 46  1  0
 39 47  1  0
 39 48  1  0
  6 35  1  6
M  CHG  1   5   1
M  END
>  <attachment_point>  (63) 
26

>  <score>  (63) 
<NA>

$$$$
CAT-4j
     RDKit          3D

 45 48  0  0  1  0  0  0  0  0999 V2000
   11.7106   -2.3098    1.2658 C   0  0  0  0  0  0  0  0  0  0  0  0
   13.0313   -2.6523    0.7225 N   0  0  0  0  0  0  0  0  0  0  0  0
   14.2010   -2.6281    1.3773 C   0  0  0  0  0  0  0  0  0  0  0  0
   14.3777   -2.3568    2.6732 N   0  0  0  0  0  0  0  0  0  0  0  0
   15.2217   -2.9197    0.5738 N   0  0  0  0  0  0  0  0  0  0  0  0
   14.7965   -3.2519   -0.7875 C   0  0  1  0  0  0  0  0  0  0  0  0
   15.3794   -2.2443   -1.7949 C   0  0  0  0  0  0  0  0  0  0  0  0
   15.9522   -2.6550   -3.0208 C   0  0  0  0  0  0  0  0  0  0  0  0
   16.4340   -1.6937   -3.9273 C   0  0  0  0  0  0  0  0  0  0  0  0
   16.3364   -0.3224   -3.6308 C   0  0  0  0  0  0  0  0  0  0  0  0
   15.7943    0.1250   -2.4073 C   0  0  0  0  0  0  0  0  0  0  0  0
   15.6711    1.5693   -2.0915 C   0  0  0  0  0  0  0  0  0  0  0  0
   15.3832    2.0354   -0.7903 C   0  0  0  0  0  0  0  0  0  0  0  0
   15.3534    3.4188   -0.5357 C   0  0  0  0  0  0  0  0  0  0  0  0
   15.5968    4.3049   -1.5946 C   0  0  0  0  0  0  0  0  0  0  0  0
   15.8275    3.8920   -2.8511 N   0  0  0  0  0  0  0  0  0  0  0  0
   15.8598    2.5642   -3.0762 C   0  0  0  0  0  0  0  0  0  0  0  0
   15.3327   -0.8573   -1.5012 C   0  0  0  0  0  0  0  0  0  0  0  0
   13.2767   -3.0094   -0.6368 C   0  0  0  0  0  0  0  0  0  0  0  0
   12.3981   -3.0674   -1.5055 O   0  0  0  0  0  0  0  0  0  0  0  0
    0.0000    0.0000    0.0000 H   0  0  0  0  0  0  0  0  0  0  0  0
    0.0000    0.0000    0.0000 H   0  0  0  0  0  0  0  0  0  0  0  0
    0.0000    0.0000    0.0000 H   0  0  0  0  0  0  0  0  0  0  0  0
    0.0000    0.0000    0.0000 H   0  0  0  0  0  0  0  0  0  0  0  0
    0.0000    0.0000    0.0000 H   0  0  0  0  0  0  0  0  0  0  0  0
    0.0000    0.0000    0.0000 H   0  0  0  0  0  0  0  0  0  0  0  0
    0.0000    0.0000    0.0000 H   0  0  0  0  0  0  0  0  0  0  0  0
    0.0000    0.0000    0.0000 H   0  0  0  0  0  0  0  0  0  0  0  0
    0.0000    0.0000    0.0000 H   0  0  0  0  0  0  0  0  0  0  0  0
    0.0000    0.0000    0.0000 H   0  0  0  0  0  0  0  0  0  0  0  0
    0.0000    0.0000    0.0000 H   0  0  0  0  0  0  0  0  0  0  0  0
    0.0000    0.0000    0.0000 H   0  0  0  0  0  0  0  0  0  0  0  0
    0.0000    0.0000    0.0000 H   0  0  0  0  0  0  0  0  0  0  0  0
    0.0000    0.0000    0.0000 H   0  0  0  0  0  0  0  0  0  0  0  0
    6.9043   -1.5174   -0.3675 C   0  0  0  0  0  0  0  0  0  0  0  0
    6.0427   -2.4928   -0.6971 C   0  0  0  0  0  0  0  0  0  0  0  0
    4.6803   -2.1548   -0.6122 C   0  0  0  0  0  0  0  0  0  0  0  0
    4.2929   -0.8957   -0.2131 C   0  0  0  0  0  0  0  0  0  0  0  0
    5.2468    0.0568    0.1108 C   0  0  0  0  0  0  0  0  0  0  0  0
    6.6034   -0.2689    0.0298 C   0  0  0  0  0  0  0  0  0  0  0  0
    7.7869    0.9262    0.4359 Cl  0  0  0  0  0  0  0  0  0  0  0  0
    6.3628   -3.4669   -1.0056 H   0  0  0  0  0  0  0  0  0  0  0  0
    3.9607   -2.9124   -0.8692 H   0  0  0  0  0  0  0  0  0  0  0  0
    3.2319   -0.6866   -0.1644 H   0  0  0  0  0  0  0  0  0  0  0  0
    4.8843    1.0225    0.4157 H   0  0  0  0  0  0  0  0  0  0  0  0
  1  2  1  0
  2  3  1  0
  2 19  1  0
  3  4  1  0
  3  5  2  0
  5  6  1  0
  6  7  1  1
  6 19  1  0
  7  8  2  0
  7 18  1  0
  8  9  1  0
  9 10  2  0
 10 11  1  0
 11 12  1  0
 11 18  2  0
 12 13  2  0
 12 17  1  0
 13 14  1  0
 14 15  2  0
 15 16  1  0
 16 17  2  0
 19 20  2  0
  1 21  1  0
  1 22  1  0
  1 23  1  0
  4 24  1  0
  4 25  1  0
  5 26  1  0
  8 27  1  0
  9 28  1  0
 10 29  1  0
 13 30  1  0
 14 31  1  0
 15 32  1  0
 17 33  1  0
 18 34  1  0
 35 36  2  0
 36 37  1  0
 37 38  2  0
 38 39  1  0
 39 40  2  0
 40 41  1  0
 40 35  1  0
 36 42  1  0
 37 43  1  0
 38 44  1  0
 39 45  1  0
  6 35  1  0
M  CHG  1   5   1
M  END
>  <attachment_point>  (64) 
26

>  <score>  (64) 
<NA>

$$$$
CAT-4j
     RDKit          3D

 40 42  0  0  1  0  0  0  0  0999 V2000
   11.7106   -2.3098    1.2658 C   0  0  0  0  0  0  0  0  0  0  0  0
   13.0313   -2.6523    0.7225 N   0  0  0  0  0  0  0  0  0  0  0  0
   14.2010   -2.6281    1.3773 C   0  0  0  0  0  0  0  0  0  0  0  0
   14.3777   -2.3568    2.6732 N   0  0  0  0  0  0  0  0  0  0  0  0
   15.2217   -2.9197    0.5738 N   0  0  0  0  0  0  0  0  0  0  0  0
   14.7965   -3.2519   -0.7875 C   0  0  1  0  0  0  0  0  0  0  0  0
   15.3794   -2.2443   -1.7949 C   0  0  0  0  0  0  0  0  0  0  0  0
   15.9522   -2.6550   -3.0208 C   0  0  0  0  0  0  0  0  0  0  0  0
   16.4340   -1.6937   -3.9273 C   0  0  0  0  0  0  0  0  0  0  0  0
   16.3364   -0.3224   -3.6308 C   0  0  0  0  0  0  0  0  0  0  0  0
   15.7943    0.1250   -2.4073 C   0  0  0  0  0  0  0  0  0  0  0  0
   15.6711    1.5693   -2.0915 C   0  0  0  0  0  0  0  0  0  0  0  0
   15.3832    2.0354   -0.7903 C   0  0  0  0  0  0  0  0  0  0  0  0
   15.3534    3.4188   -0.5357 C   0  0  0  0  0  0  0  0  0  0  0  0
   15.5968    4.3049   -1.5946 C   0  0  0  0  0  0  0  0  0  0  0  0
   15.8275    3.8920   -2.8511 N   0  0  0  0  0  0  0  0  0  0  0  0
   15.8598    2.5642   -3.0762 C   0  0  0  0  0  0  0  0  0  0  0  0
   15.3327   -0.8573   -1.5012 C   0  0  0  0  0  0  0  0  0  0  0  0
   13.2767   -3.0094   -0.6368 C   0  0  0  0  0  0  0  0  0  0  0  0
   12.3981   -3.0674   -1.5055 O   0  0  0  0  0  0  0  0  0  0  0  0
    0.0000    0.0000    0.0000 H   0  0  0  0  0  0  0  0  0  0  0  0
    0.0000    0.0000    0.0000 H   0  0  0  0  0  0  0  0  0  0  0  0
    0.0000    0.0000    0.0000 H   0  0  0  0  0  0  0  0  0  0  0  0
    0.0000    0.0000    0.0000 H   0  0  0  0  0  0  0  0  0  0  0  0
    0.0000    0.0000    0.0000 H   0  0  0  0  0  0  0  0  0  0  0  0
    0.0000    0.0000    0.0000 H   0  0  0  0  0  0  0  0  0  0  0  0
    0.0000    0.0000    0.0000 H   0  0  0  0  0  0  0  0  0  0  0  0
    0.0000    0.0000    0.0000 H   0  0  0  0  0  0  0  0  0  0  0  0
    0.0000    0.0000    0.0000 H   0  0  0  0  0  0  0  0  0  0  0  0
    0.0000    0.0000    0.0000 H   0  0  0  0  0  0  0  0  0  0  0  0
    0.0000    0.0000    0.0000 H   0  0  0  0  0  0  0  0  0  0  0  0
    0.0000    0.0000    0.0000 H   0  0  0  0  0  0  0  0  0  0  0  0
    0.0000    0.0000    0.0000 H   0  0  0  0  0  0  0  0  0  0  0  0
    0.0000    0.0000    0.0000 H   0  0  0  0  0  0  0  0  0  0  0  0
    6.9873   -1.5356   -0.3719 C   0  0  0  0  0  0  0  0  0  0  0  0
    6.1068   -2.4290   -0.4096 O   0  0  0  0  0  0  0  0  0  0  0  0
    6.5612   -0.1819   -0.2510 N   0  0  0  0  0  0  0  0  0  0  0  0
    5.2413    0.1591   -0.1768 O   0  0  0  0  0  0  0  0  0  0  0  0
    7.2903    0.5811   -0.2180 H   0  0  0  0  0  0  0  0  0  0  0  0
    5.1227    0.7223    0.6185 H   0  0  0  0  0  0  0  0  0  0  0  0
  1  2  1  0
  2  3  1  0
  2 19  1  0
  3  4  1  0
  3  5  2  0
  5  6  1  0
  6  7  1  0
  6 19  1  0
  7  8  2  0
  7 18  1  0
  8  9  1  0
  9 10  2  0
 10 11  1  0
 11 12  1  0
 11 18  2  0
 12 13  2  0
 12 17  1  0
 13 14  1  0
 14 15  2  0
 15 16  1  0
 16 17  2  0
 19 20  2  0
  1 21  1  0
  1 22  1  0
  1 23  1  0
  4 24  1  0
  4 25  1  0
  5 26  1  0
  8 27  1  0
  9 28  1  0
 10 29  1  0
 13 30  1  0
 14 31  1  0
 15 32  1  0
 17 33  1  0
 18 34  1  0
 35 36  2  0
 35 37  1  0
 37 38  1  0
 37 39  1  0
 38 40  1  0
  6 35  1  6
M  CHG  1   5   1
M  END
>  <attachment_point>  (65) 
26

>  <score>  (65) 
<NA>

$$$$
CAT-4j
     RDKit          3D

 42 44  0  0  1  0  0  0  0  0999 V2000
   11.7106   -2.3098    1.2658 C   0  0  0  0  0  0  0  0  0  0  0  0
   13.0313   -2.6523    0.7225 N   0  0  0  0  0  0  0  0  0  0  0  0
   14.2010   -2.6281    1.3773 C   0  0  0  0  0  0  0  0  0  0  0  0
   14.3777   -2.3568    2.6732 N   0  0  0  0  0  0  0  0  0  0  0  0
   15.2217   -2.9197    0.5738 N   0  0  0  0  0  0  0  0  0  0  0  0
   14.7965   -3.2519   -0.7875 C   0  0  1  0  0  0  0  0  0  0  0  0
   15.3794   -2.2443   -1.7949 C   0  0  0  0  0  0  0  0  0  0  0  0
   15.9522   -2.6550   -3.0208 C   0  0  0  0  0  0  0  0  0  0  0  0
   16.4340   -1.6937   -3.9273 C   0  0  0  0  0  0  0  0  0  0  0  0
   16.3364   -0.3224   -3.6308 C   0  0  0  0  0  0  0  0  0  0  0  0
   15.7943    0.1250   -2.4073 C   0  0  0  0  0  0  0  0  0  0  0  0
   15.6711    1.5693   -2.0915 C   0  0  0  0  0  0  0  0  0  0  0  0
   15.3832    2.0354   -0.7903 C   0  0  0  0  0  0  0  0  0  0  0  0
   15.3534    3.4188   -0.5357 C   0  0  0  0  0  0  0  0  0  0  0  0
   15.5968    4.3049   -1.5946 C   0  0  0  0  0  0  0  0  0  0  0  0
   15.8275    3.8920   -2.8511 N   0  0  0  0  0  0  0  0  0  0  0  0
   15.8598    2.5642   -3.0762 C   0  0  0  0  0  0  0  0  0  0  0  0
   15.3327   -0.8573   -1.5012 C   0  0  0  0  0  0  0  0  0  0  0  0
   13.2767   -3.0094   -0.6368 C   0  0  0  0  0  0  0  0  0  0  0  0
   12.3981   -3.0674   -1.5055 O   0  0  0  0  0  0  0  0  0  0  0  0
    0.0000    0.0000    0.0000 H   0  0  0  0  0  0  0  0  0  0  0  0
    0.0000    0.0000    0.0000 H   0  0  0  0  0  0  0  0  0  0  0  0
    0.0000    0.0000    0.0000 H   0  0  0  0  0  0  0  0  0  0  0  0
    0.0000    0.0000    0.0000 H   0  0  0  0  0  0  0  0  0  0  0  0
    0.0000    0.0000    0.0000 H   0  0  0  0  0  0  0  0  0  0  0  0
    0.0000    0.0000    0.0000 H   0  0  0  0  0  0  0  0  0  0  0  0
    0.0000    0.0000    0.0000 H   0  0  0  0  0  0  0  0  0  0  0  0
    0.0000    0.0000    0.0000 H   0  0  0  0  0  0  0  0  0  0  0  0
    0.0000    0.0000    0.0000 H   0  0  0  0  0  0  0  0  0  0  0  0
    0.0000    0.0000    0.0000 H   0  0  0  0  0  0  0  0  0  0  0  0
    0.0000    0.0000    0.0000 H   0  0  0  0  0  0  0  0  0  0  0  0
    0.0000    0.0000    0.0000 H   0  0  0  0  0  0  0  0  0  0  0  0
    0.0000    0.0000    0.0000 H   0  0  0  0  0  0  0  0  0  0  0  0
    0.0000    0.0000    0.0000 H   0  0  0  0  0  0  0  0  0  0  0  0
    7.0054   -1.5396   -0.3728 C   0  0  0  0  0  0  0  0  0  0  0  0
    6.7418   -0.0648   -0.1405 C   0  0  0  0  0  0  0  0  0  0  0  0
    7.2459    0.7379   -1.1286 O   0  0  0  0  0  0  0  0  0  0  0  0
    6.5552   -2.1284    0.4547 H   0  0  0  0  0  0  0  0  0  0  0  0
    6.4987   -1.9033   -1.2981 H   0  0  0  0  0  0  0  0  0  0  0  0
    7.0757    0.1938    0.8804 H   0  0  0  0  0  0  0  0  0  0  0  0
    5.6244    0.0600   -0.1523 H   0  0  0  0  0  0  0  0  0  0  0  0
    8.2060    0.9924   -0.9903 H   0  0  0  0  0  0  0  0  0  0  0  0
  1  2  1  0
  2  3  1  0
  2 19  1  0
  3  4  1  0
  3  5  2  0
  5  6  1  0
  6  7  1  0
  6 19  1  0
  7  8  2  0
  7 18  1  0
  8  9  1  0
  9 10  2  0
 10 11  1  0
 11 12  1  0
 11 18  2  0
 12 13  2  0
 12 17  1  0
 13 14  1  0
 14 15  2  0
 15 16  1  0
 16 17  2  0
 19 20  2  0
  1 21  1  0
  1 22  1  0
  1 23  1  0
  4 24  1  0
  4 25  1  0
  5 26  1  0
  8 27  1  0
  9 28  1  0
 10 29  1  0
 13 30  1  0
 14 31  1  0
 15 32  1  0
 17 33  1  0
 18 34  1  0
 35 36  1  0
 36 37  1  0
 35 38  1  0
 35 39  1  0
 36 40  1  0
 36 41  1  0
 37 42  1  0
  6 35  1  6
M  CHG  1   5   1
M  END
>  <attachment_point>  (66) 
26

>  <score>  (66) 
<NA>

$$$$
CAT-4j
     RDKit          3D

 43 46  0  0  1  0  0  0  0  0999 V2000
   11.7106   -2.3098    1.2658 C   0  0  0  0  0  0  0  0  0  0  0  0
   13.0313   -2.6523    0.7225 N   0  0  0  0  0  0  0  0  0  0  0  0
   14.2010   -2.6281    1.3773 C   0  0  0  0  0  0  0  0  0  0  0  0
   14.3777   -2.3568    2.6732 N   0  0  0  0  0  0  0  0  0  0  0  0
   15.2217   -2.9197    0.5738 N   0  0  0  0  0  0  0  0  0  0  0  0
   14.7965   -3.2519   -0.7875 C   0  0  1  0  0  0  0  0  0  0  0  0
   15.3794   -2.2443   -1.7949 C   0  0  0  0  0  0  0  0  0  0  0  0
   15.9522   -2.6550   -3.0208 C   0  0  0  0  0  0  0  0  0  0  0  0
   16.4340   -1.6937   -3.9273 C   0  0  0  0  0  0  0  0  0  0  0  0
   16.3364   -0.3224   -3.6308 C   0  0  0  0  0  0  0  0  0  0  0  0
   15.7943    0.1250   -2.4073 C   0  0  0  0  0  0  0  0  0  0  0  0
   15.6711    1.5693   -2.0915 C   0  0  0  0  0  0  0  0  0  0  0  0
   15.3832    2.0354   -0.7903 C   0  0  0  0  0  0  0  0  0  0  0  0
   15.3534    3.4188   -0.5357 C   0  0  0  0  0  0  0  0  0  0  0  0
   15.5968    4.3049   -1.5946 C   0  0  0  0  0  0  0  0  0  0  0  0
   15.8275    3.8920   -2.8511 N   0  0  0  0  0  0  0  0  0  0  0  0
   15.8598    2.5642   -3.0762 C   0  0  0  0  0  0  0  0  0  0  0  0
   15.3327   -0.8573   -1.5012 C   0  0  0  0  0  0  0  0  0  0  0  0
   13.2767   -3.0094   -0.6368 C   0  0  0  0  0  0  0  0  0  0  0  0
   12.3981   -3.0674   -1.5055 O   0  0  0  0  0  0  0  0  0  0  0  0
    0.0000    0.0000    0.0000 H   0  0  0  0  0  0  0  0  0  0  0  0
    0.0000    0.0000    0.0000 H   0  0  0  0  0  0  0  0  0  0  0  0
    0.0000    0.0000    0.0000 H   0  0  0  0  0  0  0  0  0  0  0  0
    0.0000    0.0000    0.0000 H   0  0  0  0  0  0  0  0  0  0  0  0
    0.0000    0.0000    0.0000 H   0  0  0  0  0  0  0  0  0  0  0  0
    0.0000    0.0000    0.0000 H   0  0  0  0  0  0  0  0  0  0  0  0
    0.0000    0.0000    0.0000 H   0  0  0  0  0  0  0  0  0  0  0  0
    0.0000    0.0000    0.0000 H   0  0  0  0  0  0  0  0  0  0  0  0
    0.0000    0.0000    0.0000 H   0  0  0  0  0  0  0  0  0  0  0  0
    0.0000    0.0000    0.0000 H   0  0  0  0  0  0  0  0  0  0  0  0
    0.0000    0.0000    0.0000 H   0  0  0  0  0  0  0  0  0  0  0  0
    0.0000    0.0000    0.0000 H   0  0  0  0  0  0  0  0  0  0  0  0
    0.0000    0.0000    0.0000 H   0  0  0  0  0  0  0  0  0  0  0  0
    0.0000    0.0000    0.0000 H   0  0  0  0  0  0  0  0  0  0  0  0
    6.8636   -1.5084   -0.3653 C   0  0  0  0  0  0  0  0  0  0  0  0
    6.5664   -0.2215   -0.3413 C   0  0  0  0  0  0  0  0  0  0  0  0
    5.2201    0.0429   -0.2698 N   0  0  0  0  0  0  0  0  0  0  0  0
    4.3346   -0.9484   -0.2307 C   0  0  0  0  0  0  0  0  0  0  0  0
    4.6992   -2.2378   -0.2582 N   0  0  0  0  0  0  0  0  0  0  0  0
    6.0503   -2.5540   -0.3303 C   0  0  0  0  0  0  0  0  0  0  0  0
    7.3151    0.5430   -0.3748 H   0  0  0  0  0  0  0  0  0  0  0  0
    3.2785   -0.7270   -0.1744 H   0  0  0  0  0  0  0  0  0  0  0  0
    6.3636   -3.5992   -0.3535 H   0  0  0  0  0  0  0  0  0  0  0  0
  1  2  1  0
  2  3  1  0
  2 19  1  0
  3  4  1  0
  3  5  2  0
  5  6  1  0
  6  7  1  1
  6 19  1  0
  7  8  2  0
  7 18  1  0
  8  9  1  0
  9 10  2  0
 10 11  1  0
 11 12  1  0
 11 18  2  0
 12 13  2  0
 12 17  1  0
 13 14  1  0
 14 15  2  0
 15 16  1  0
 16 17  2  0
 19 20  2  0
  1 21  1  0
  1 22  1  0
  1 23  1  0
  4 24  1  0
  4 25  1  0
  5 26  1  0
  8 27  1  0
  9 28  1  0
 10 29  1  0
 13 30  1  0
 14 31  1  0
 15 32  1  0
 17 33  1  0
 18 34  1  0
 35 36  2  0
 36 37  1  0
 37 38  2  0
 38 39  1  0
 39 40  2  0
 40 35  1  0
 36 41  1  0
 38 42  1  0
 40 43  1  0
  6 35  1  0
M  CHG  1   5   1
M  END
>  <attachment_point>  (67) 
26

>  <score>  (67) 
<NA>

$$$$
CAT-4j
     RDKit          3D

 42 45  0  0  1  0  0  0  0  0999 V2000
   11.7106   -2.3098    1.2658 C   0  0  0  0  0  0  0  0  0  0  0  0
   13.0313   -2.6523    0.7225 N   0  0  0  0  0  0  0  0  0  0  0  0
   14.2010   -2.6281    1.3773 C   0  0  0  0  0  0  0  0  0  0  0  0
   14.3777   -2.3568    2.6732 N   0  0  0  0  0  0  0  0  0  0  0  0
   15.2217   -2.9197    0.5738 N   0  0  0  0  0  0  0  0  0  0  0  0
   14.7965   -3.2519   -0.7875 C   0  0  1  0  0  0  0  0  0  0  0  0
   15.3794   -2.2443   -1.7949 C   0  0  0  0  0  0  0  0  0  0  0  0
   15.9522   -2.6550   -3.0208 C   0  0  0  0  0  0  0  0  0  0  0  0
   16.4340   -1.6937   -3.9273 C   0  0  0  0  0  0  0  0  0  0  0  0
   16.3364   -0.3224   -3.6308 C   0  0  0  0  0  0  0  0  0  0  0  0
   15.7943    0.1250   -2.4073 C   0  0  0  0  0  0  0  0  0  0  0  0
   15.6711    1.5693   -2.0915 C   0  0  0  0  0  0  0  0  0  0  0  0
   15.3832    2.0354   -0.7903 C   0  0  0  0  0  0  0  0  0  0  0  0
   15.3534    3.4188   -0.5357 C   0  0  0  0  0  0  0  0  0  0  0  0
   15.5968    4.3049   -1.5946 C   0  0  0  0  0  0  0  0  0  0  0  0
   15.8275    3.8920   -2.8511 N   0  0  0  0  0  0  0  0  0  0  0  0
   15.8598    2.5642   -3.0762 C   0  0  0  0  0  0  0  0  0  0  0  0
   15.3327   -0.8573   -1.5012 C   0  0  0  0  0  0  0  0  0  0  0  0
   13.2767   -3.0094   -0.6368 C   0  0  0  0  0  0  0  0  0  0  0  0
   12.3981   -3.0674   -1.5055 O   0  0  0  0  0  0  0  0  0  0  0  0
    0.0000    0.0000    0.0000 H   0  0  0  0  0  0  0  0  0  0  0  0
    0.0000    0.0000    0.0000 H   0  0  0  0  0  0  0  0  0  0  0  0
    0.0000    0.0000    0.0000 H   0  0  0  0  0  0  0  0  0  0  0  0
    0.0000    0.0000    0.0000 H   0  0  0  0  0  0  0  0  0  0  0  0
    0.0000    0.0000    0.0000 H   0  0  0  0  0  0  0  0  0  0  0  0
    0.0000    0.0000    0.0000 H   0  0  0  0  0  0  0  0  0  0  0  0
    0.0000    0.0000    0.0000 H   0  0  0  0  0  0  0  0  0  0  0  0
    0.0000    0.0000    0.0000 H   0  0  0  0  0  0  0  0  0  0  0  0
    0.0000    0.0000    0.0000 H   0  0  0  0  0  0  0  0  0  0  0  0
    0.0000    0.0000    0.0000 H   0  0  0  0  0  0  0  0  0  0  0  0
    0.0000    0.0000    0.0000 H   0  0  0  0  0  0  0  0  0  0  0  0
    0.0000    0.0000    0.0000 H   0  0  0  0  0  0  0  0  0  0  0  0
    0.0000    0.0000    0.0000 H   0  0  0  0  0  0  0  0  0  0  0  0
    0.0000    0.0000    0.0000 H   0  0  0  0  0  0  0  0  0  0  0  0
    6.9578   -1.5292   -0.3703 C   0  0  0  0  0  0  0  0  0  0  0  0
    6.4387   -0.3260    0.0162 C   0  0  0  0  0  0  0  0  0  0  0  0
    5.0686   -0.4809   -0.0610 C   0  0  0  0  0  0  0  0  0  0  0  0
    4.8267   -1.7711   -0.4908 C   0  0  0  0  0  0  0  0  0  0  0  0
    5.9913   -2.3377   -0.6552 O   0  0  0  0  0  0  0  0  0  0  0  0
    6.9817    0.5432    0.3130 H   0  0  0  0  0  0  0  0  0  0  0  0
    4.3651    0.3101    0.1861 H   0  0  0  0  0  0  0  0  0  0  0  0
    3.8669   -2.2154   -0.6556 H   0  0  0  0  0  0  0  0  0  0  0  0
  1  2  1  0
  2  3  1  0
  2 19  1  0
  3  4  1  0
  3  5  2  0
  5  6  1  0
  6  7  1  1
  6 19  1  0
  7  8  2  0
  7 18  1  0
  8  9  1  0
  9 10  2  0
 10 11  1  0
 11 12  1  0
 11 18  2  0
 12 13  2  0
 12 17  1  0
 13 14  1  0
 14 15  2  0
 15 16  1  0
 16 17  2  0
 19 20  2  0
  1 21  1  0
  1 22  1  0
  1 23  1  0
  4 24  1  0
  4 25  1  0
  5 26  1  0
  8 27  1  0
  9 28  1  0
 10 29  1  0
 13 30  1  0
 14 31  1  0
 15 32  1  0
 17 33  1  0
 18 34  1  0
 35 36  2  0
 36 37  1  0
 37 38  2  0
 38 39  1  0
 39 35  1  0
 36 40  1  0
 37 41  1  0
 38 42  1  0
  6 35  1  0
M  CHG  1   5   1
M  END
>  <attachment_point>  (68) 
26

>  <score>  (68) 
<NA>

$$$$
CAT-4j
     RDKit          3D

 43 45  0  0  1  0  0  0  0  0999 V2000
   11.7106   -2.3098    1.2658 C   0  0  0  0  0  0  0  0  0  0  0  0
   13.0313   -2.6523    0.7225 N   0  0  0  0  0  0  0  0  0  0  0  0
   14.2010   -2.6281    1.3773 C   0  0  0  0  0  0  0  0  0  0  0  0
   14.3777   -2.3568    2.6732 N   0  0  0  0  0  0  0  0  0  0  0  0
   15.2217   -2.9197    0.5738 N   0  0  0  0  0  0  0  0  0  0  0  0
   14.7965   -3.2519   -0.7875 C   0  0  1  0  0  0  0  0  0  0  0  0
   15.3794   -2.2443   -1.7949 C   0  0  0  0  0  0  0  0  0  0  0  0
   15.9522   -2.6550   -3.0208 C   0  0  0  0  0  0  0  0  0  0  0  0
   16.4340   -1.6937   -3.9273 C   0  0  0  0  0  0  0  0  0  0  0  0
   16.3364   -0.3224   -3.6308 C   0  0  0  0  0  0  0  0  0  0  0  0
   15.7943    0.1250   -2.4073 C   0  0  0  0  0  0  0  0  0  0  0  0
   15.6711    1.5693   -2.0915 C   0  0  0  0  0  0  0  0  0  0  0  0
   15.3832    2.0354   -0.7903 C   0  0  0  0  0  0  0  0  0  0  0  0
   15.3534    3.4188   -0.5357 C   0  0  0  0  0  0  0  0  0  0  0  0
   15.5968    4.3049   -1.5946 C   0  0  0  0  0  0  0  0  0  0  0  0
   15.8275    3.8920   -2.8511 N   0  0  0  0  0  0  0  0  0  0  0  0
   15.8598    2.5642   -3.0762 C   0  0  0  0  0  0  0  0  0  0  0  0
   15.3327   -0.8573   -1.5012 C   0  0  0  0  0  0  0  0  0  0  0  0
   13.2767   -3.0094   -0.6368 C   0  0  0  0  0  0  0  0  0  0  0  0
   12.3981   -3.0674   -1.5055 O   0  0  0  0  0  0  0  0  0  0  0  0
    0.0000    0.0000    0.0000 H   0  0  0  0  0  0  0  0  0  0  0  0
    0.0000    0.0000    0.0000 H   0  0  0  0  0  0  0  0  0  0  0  0
    0.0000    0.0000    0.0000 H   0  0  0  0  0  0  0  0  0  0  0  0
    0.0000    0.0000    0.0000 H   0  0  0  0  0  0  0  0  0  0  0  0
    0.0000    0.0000    0.0000 H   0  0  0  0  0  0  0  0  0  0  0  0
    0.0000    0.0000    0.0000 H   0  0  0  0  0  0  0  0  0  0  0  0
    0.0000    0.0000    0.0000 H   0  0  0  0  0  0  0  0  0  0  0  0
    0.0000    0.0000    0.0000 H   0  0  0  0  0  0  0  0  0  0  0  0
    0.0000    0.0000    0.0000 H   0  0  0  0  0  0  0  0  0  0  0  0
    0.0000    0.0000    0.0000 H   0  0  0  0  0  0  0  0  0  0  0  0
    0.0000    0.0000    0.0000 H   0  0  0  0  0  0  0  0  0  0  0  0
    0.0000    0.0000    0.0000 H   0  0  0  0  0  0  0  0  0  0  0  0
    0.0000    0.0000    0.0000 H   0  0  0  0  0  0  0  0  0  0  0  0
    0.0000    0.0000    0.0000 H   0  0  0  0  0  0  0  0  0  0  0  0
    6.9698   -1.5318   -0.3709 C   0  0  0  0  0  0  0  0  0  0  0  0
    6.2481   -1.9847   -1.6140 C   0  0  0  0  0  0  0  0  0  0  0  0
    6.4168   -3.4171   -1.7397 N   0  0  0  0  0  0  0  0  0  0  0  0
    6.8390   -0.4366   -0.2010 H   0  0  0  0  0  0  0  0  0  0  0  0
    6.6058   -2.1388    0.4824 H   0  0  0  0  0  0  0  0  0  0  0  0
    5.1665   -1.8090   -1.4365 H   0  0  0  0  0  0  0  0  0  0  0  0
    6.5329   -1.4281   -2.5091 H   0  0  0  0  0  0  0  0  0  0  0  0
    7.4016   -3.7182   -1.7692 H   0  0  0  0  0  0  0  0  0  0  0  0
    5.9983   -3.8427   -0.8814 H   0  0  0  0  0  0  0  0  0  0  0  0
  1  2  1  0
  2  3  1  0
  2 19  1  0
  3  4  1  0
  3  5  2  0
  5  6  1  0
  6  7  1  0
  6 19  1  0
  7  8  2  0
  7 18  1  0
  8  9  1  0
  9 10  2  0
 10 11  1  0
 11 12  1  0
 11 18  2  0
 12 13  2  0
 12 17  1  0
 13 14  1  0
 14 15  2  0
 15 16  1  0
 16 17  2  0
 19 20  2  0
  1 21  1  0
  1 22  1  0
  1 23  1  0
  4 24  1  0
  4 25  1  0
  5 26  1  0
  8 27  1  0
  9 28  1  0
 10 29  1  0
 13 30  1  0
 14 31  1  0
 15 32  1  0
 17 33  1  0
 18 34  1  0
 35 36  1  0
 36 37  1  0
 35 38  1  0
 35 39  1  0
 36 40  1  0
 36 41  1  0
 37 42  1  0
 37 43  1  0
  6 35  1  6
M  CHG  1   5   1
M  END
>  <attachment_point>  (69) 
26

>  <score>  (69) 
<NA>

$$$$
CAT-4j
     RDKit          3D

 46 49  0  0  1  0  0  0  0  0999 V2000
   11.7106   -2.3098    1.2658 C   0  0  0  0  0  0  0  0  0  0  0  0
   13.0313   -2.6523    0.7225 N   0  0  0  0  0  0  0  0  0  0  0  0
   14.2010   -2.6281    1.3773 C   0  0  0  0  0  0  0  0  0  0  0  0
   14.3777   -2.3568    2.6732 N   0  0  0  0  0  0  0  0  0  0  0  0
   15.2217   -2.9197    0.5738 N   0  0  0  0  0  0  0  0  0  0  0  0
   14.7965   -3.2519   -0.7875 C   0  0  1  0  0  0  0  0  0  0  0  0
   15.3794   -2.2443   -1.7949 C   0  0  0  0  0  0  0  0  0  0  0  0
   15.9522   -2.6550   -3.0208 C   0  0  0  0  0  0  0  0  0  0  0  0
   16.4340   -1.6937   -3.9273 C   0  0  0  0  0  0  0  0  0  0  0  0
   16.3364   -0.3224   -3.6308 C   0  0  0  0  0  0  0  0  0  0  0  0
   15.7943    0.1250   -2.4073 C   0  0  0  0  0  0  0  0  0  0  0  0
   15.6711    1.5693   -2.0915 C   0  0  0  0  0  0  0  0  0  0  0  0
   15.3832    2.0354   -0.7903 C   0  0  0  0  0  0  0  0  0  0  0  0
   15.3534    3.4188   -0.5357 C   0  0  0  0  0  0  0  0  0  0  0  0
   15.5968    4.3049   -1.5946 C   0  0  0  0  0  0  0  0  0  0  0  0
   15.8275    3.8920   -2.8511 N   0  0  0  0  0  0  0  0  0  0  0  0
   15.8598    2.5642   -3.0762 C   0  0  0  0  0  0  0  0  0  0  0  0
   15.3327   -0.8573   -1.5012 C   0  0  0  0  0  0  0  0  0  0  0  0
   13.2767   -3.0094   -0.6368 C   0  0  0  0  0  0  0  0  0  0  0  0
   12.3981   -3.0674   -1.5055 O   0  0  0  0  0  0  0  0  0  0  0  0
    0.0000    0.0000    0.0000 H   0  0  0  0  0  0  0  0  0  0  0  0
    0.0000    0.0000    0.0000 H   0  0  0  0  0  0  0  0  0  0  0  0
    0.0000    0.0000    0.0000 H   0  0  0  0  0  0  0  0  0  0  0  0
    0.0000    0.0000    0.0000 H   0  0  0  0  0  0  0  0  0  0  0  0
    0.0000    0.0000    0.0000 H   0  0  0  0  0  0  0  0  0  0  0  0
    0.0000    0.0000    0.0000 H   0  0  0  0  0  0  0  0  0  0  0  0
    0.0000    0.0000    0.0000 H   0  0  0  0  0  0  0  0  0  0  0  0
    0.0000    0.0000    0.0000 H   0  0  0  0  0  0  0  0  0  0  0  0
    0.0000    0.0000    0.0000 H   0  0  0  0  0  0  0  0  0  0  0  0
    0.0000    0.0000    0.0000 H   0  0  0  0  0  0  0  0  0  0  0  0
    0.0000    0.0000    0.0000 H   0  0  0  0  0  0  0  0  0  0  0  0
    0.0000    0.0000    0.0000 H   0  0  0  0  0  0  0  0  0  0  0  0
    0.0000    0.0000    0.0000 H   0  0  0  0  0  0  0  0  0  0  0  0
    0.0000    0.0000    0.0000 H   0  0  0  0  0  0  0  0  0  0  0  0
    6.9000   -1.5164   -0.3672 C   0  0  0  0  0  0  0  0  0  0  0  0
    6.1501   -2.2681    0.4518 C   0  0  0  0  0  0  0  0  0  0  0  0
    4.7673   -1.9976    0.5539 C   0  0  0  0  0  0  0  0  0  0  0  0
    4.2389   -0.9718   -0.1915 C   0  0  0  0  0  0  0  0  0  0  0  0
    2.8183   -0.6846   -0.0948 C   0  0  0  0  0  0  0  0  0  0  0  0
    1.6883   -0.4613   -0.0375 N   0  0  0  0  0  0  0  0  0  0  0  0
    5.0579   -0.2357   -1.0141 C   0  0  0  0  0  0  0  0  0  0  0  0
    6.4401   -0.5084   -1.1140 C   0  0  0  0  0  0  0  0  0  0  0  0
    6.5786   -3.0657    1.0274 H   0  0  0  0  0  0  0  0  0  0  0  0
    4.1459   -2.5759    1.1949 H   0  0  0  0  0  0  0  0  0  0  0  0
    4.6385    0.5607   -1.5906 H   0  0  0  0  0  0  0  0  0  0  0  0
    7.0757    0.0572   -1.7475 H   0  0  0  0  0  0  0  0  0  0  0  0
  1  2  1  0
  2  3  1  0
  2 19  1  0
  3  4  1  0
  3  5  2  0
  5  6  1  0
  6  7  1  1
  6 19  1  0
  7  8  2  0
  7 18  1  0
  8  9  1  0
  9 10  2  0
 10 11  1  0
 11 12  1  0
 11 18  2  0
 12 13  2  0
 12 17  1  0
 13 14  1  0
 14 15  2  0
 15 16  1  0
 16 17  2  0
 19 20  2  0
  1 21  1  0
  1 22  1  0
  1 23  1  0
  4 24  1  0
  4 25  1  0
  5 26  1  0
  8 27  1  0
  9 28  1  0
 10 29  1  0
 13 30  1  0
 14 31  1  0
 15 32  1  0
 17 33  1  0
 18 34  1  0
 35 36  2  0
 36 37  1  0
 37 38  2  0
 38 39  1  0
 39 40  3  0
 38 41  1  0
 41 42  2  0
 42 35  1  0
 36 43  1  0
 37 44  1  0
 41 45  1  0
 42 46  1  0
  6 35  1  0
M  CHG  1   5   1
M  END
>  <attachment_point>  (70) 
26

>  <score>  (70) 
<NA>

$$$$
CAT-4j
     RDKit          3D

 44 46  0  0  1  0  0  0  0  0999 V2000
   11.7106   -2.3098    1.2658 C   0  0  0  0  0  0  0  0  0  0  0  0
   13.0313   -2.6523    0.7225 N   0  0  0  0  0  0  0  0  0  0  0  0
   14.2010   -2.6281    1.3773 C   0  0  0  0  0  0  0  0  0  0  0  0
   14.3777   -2.3568    2.6732 N   0  0  0  0  0  0  0  0  0  0  0  0
   15.2217   -2.9197    0.5738 N   0  0  0  0  0  0  0  0  0  0  0  0
   14.7965   -3.2519   -0.7875 C   0  0  1  0  0  0  0  0  0  0  0  0
   15.3794   -2.2443   -1.7949 C   0  0  0  0  0  0  0  0  0  0  0  0
   15.9522   -2.6550   -3.0208 C   0  0  0  0  0  0  0  0  0  0  0  0
   16.4340   -1.6937   -3.9273 C   0  0  0  0  0  0  0  0  0  0  0  0
   16.3364   -0.3224   -3.6308 C   0  0  0  0  0  0  0  0  0  0  0  0
   15.7943    0.1250   -2.4073 C   0  0  0  0  0  0  0  0  0  0  0  0
   15.6711    1.5693   -2.0915 C   0  0  0  0  0  0  0  0  0  0  0  0
   15.3832    2.0354   -0.7903 C   0  0  0  0  0  0  0  0  0  0  0  0
   15.3534    3.4188   -0.5357 C   0  0  0  0  0  0  0  0  0  0  0  0
   15.5968    4.3049   -1.5946 C   0  0  0  0  0  0  0  0  0  0  0  0
   15.8275    3.8920   -2.8511 N   0  0  0  0  0  0  0  0  0  0  0  0
   15.8598    2.5642   -3.0762 C   0  0  0  0  0  0  0  0  0  0  0  0
   15.3327   -0.8573   -1.5012 C   0  0  0  0  0  0  0  0  0  0  0  0
   13.2767   -3.0094   -0.6368 C   0  0  0  0  0  0  0  0  0  0  0  0
   12.3981   -3.0674   -1.5055 O   0  0  0  0  0  0  0  0  0  0  0  0
    0.0000    0.0000    0.0000 H   0  0  0  0  0  0  0  0  0  0  0  0
    0.0000    0.0000    0.0000 H   0  0  0  0  0  0  0  0  0  0  0  0
    0.0000    0.0000    0.0000 H   0  0  0  0  0  0  0  0  0  0  0  0
    0.0000    0.0000    0.0000 H   0  0  0  0  0  0  0  0  0  0  0  0
    0.0000    0.0000    0.0000 H   0  0  0  0  0  0  0  0  0  0  0  0
    0.0000    0.0000    0.0000 H   0  0  0  0  0  0  0  0  0  0  0  0
    0.0000    0.0000    0.0000 H   0  0  0  0  0  0  0  0  0  0  0  0
    0.0000    0.0000    0.0000 H   0  0  0  0  0  0  0  0  0  0  0  0
    0.0000    0.0000    0.0000 H   0  0  0  0  0  0  0  0  0  0  0  0
    0.0000    0.0000    0.0000 H   0  0  0  0  0  0  0  0  0  0  0  0
    0.0000    0.0000    0.0000 H   0  0  0  0  0  0  0  0  0  0  0  0
    0.0000    0.0000    0.0000 H   0  0  0  0  0  0  0  0  0  0  0  0
    0.0000    0.0000    0.0000 H   0  0  0  0  0  0  0  0  0  0  0  0
    0.0000    0.0000    0.0000 H   0  0  0  0  0  0  0  0  0  0  0  0
    6.9562   -1.5288   -0.3702 C   0  0  0  0  0  0  0  0  0  0  0  0
    6.2381   -2.4948   -1.2758 C   0  0  0  0  0  0  0  0  0  0  0  0
    6.4901   -3.8694   -0.8113 C   0  0  0  0  0  0  0  0  0  0  0  0
    7.6916   -4.2397   -0.6984 O   0  0  0  0  0  0  0  0  0  0  0  0
    5.5122   -4.7736   -0.4897 O   0  0  0  0  0  0  0  0  0  0  0  0
    6.6584   -1.6372    0.6617 H   0  0  0  0  0  0  0  0  0  0  0  0
    6.9186   -0.4874   -0.7544 H   0  0  0  0  0  0  0  0  0  0  0  0
    5.1734   -2.2840   -1.3221 H   0  0  0  0  0  0  0  0  0  0  0  0
    6.6454   -2.4194   -2.3112 H   0  0  0  0  0  0  0  0  0  0  0  0
    5.5918   -5.4193    0.3048 H   0  0  0  0  0  0  0  0  0  0  0  0
  1  2  1  0
  2  3  1  0
  2 19  1  0
  3  4  1  0
  3  5  2  0
  5  6  1  0
  6  7  1  0
  6 19  1  0
  7  8  2  0
  7 18  1  0
  8  9  1  0
  9 10  2  0
 10 11  1  0
 11 12  1  0
 11 18  2  0
 12 13  2  0
 12 17  1  0
 13 14  1  0
 14 15  2  0
 15 16  1  0
 16 17  2  0
 19 20  2  0
  1 21  1  0
  1 22  1  0
  1 23  1  0
  4 24  1  0
  4 25  1  0
  5 26  1  0
  8 27  1  0
  9 28  1  0
 10 29  1  0
 13 30  1  0
 14 31  1  0
 15 32  1  0
 17 33  1  0
 18 34  1  0
 35 36  1  0
 36 37  1  0
 37 38  2  0
 37 39  1  0
 35 40  1  0
 35 41  1  0
 36 42  1  0
 36 43  1  0
 39 44  1  0
  6 35  1  6
M  CHG  1   5   1
M  END
>  <attachment_point>  (71) 
26

>  <score>  (71) 
<NA>

$$$$
CAT-4j
     RDKit          3D

 48 51  0  0  1  0  0  0  0  0999 V2000
   11.7106   -2.3098    1.2658 C   0  0  0  0  0  0  0  0  0  0  0  0
   13.0313   -2.6523    0.7225 N   0  0  0  0  0  0  0  0  0  0  0  0
   14.2010   -2.6281    1.3773 C   0  0  0  0  0  0  0  0  0  0  0  0
   14.3777   -2.3568    2.6732 N   0  0  0  0  0  0  0  0  0  0  0  0
   15.2217   -2.9197    0.5738 N   0  0  0  0  0  0  0  0  0  0  0  0
   14.7965   -3.2519   -0.7875 C   0  0  1  0  0  0  0  0  0  0  0  0
   15.3794   -2.2443   -1.7949 C   0  0  0  0  0  0  0  0  0  0  0  0
   15.9522   -2.6550   -3.0208 C   0  0  0  0  0  0  0  0  0  0  0  0
   16.4340   -1.6937   -3.9273 C   0  0  0  0  0  0  0  0  0  0  0  0
   16.3364   -0.3224   -3.6308 C   0  0  0  0  0  0  0  0  0  0  0  0
   15.7943    0.1250   -2.4073 C   0  0  0  0  0  0  0  0  0  0  0  0
   15.6711    1.5693   -2.0915 C   0  0  0  0  0  0  0  0  0  0  0  0
   15.3832    2.0354   -0.7903 C   0  0  0  0  0  0  0  0  0  0  0  0
   15.3534    3.4188   -0.5357 C   0  0  0  0  0  0  0  0  0  0  0  0
   15.5968    4.3049   -1.5946 C   0  0  0  0  0  0  0  0  0  0  0  0
   15.8275    3.8920   -2.8511 N   0  0  0  0  0  0  0  0  0  0  0  0
   15.8598    2.5642   -3.0762 C   0  0  0  0  0  0  0  0  0  0  0  0
   15.3327   -0.8573   -1.5012 C   0  0  0  0  0  0  0  0  0  0  0  0
   13.2767   -3.0094   -0.6368 C   0  0  0  0  0  0  0  0  0  0  0  0
   12.3981   -3.0674   -1.5055 O   0  0  0  0  0  0  0  0  0  0  0  0
    0.0000    0.0000    0.0000 H   0  0  0  0  0  0  0  0  0  0  0  0
    0.0000    0.0000    0.0000 H   0  0  0  0  0  0  0  0  0  0  0  0
    0.0000    0.0000    0.0000 H   0  0  0  0  0  0  0  0  0  0  0  0
    0.0000    0.0000    0.0000 H   0  0  0  0  0  0  0  0  0  0  0  0
    0.0000    0.0000    0.0000 H   0  0  0  0  0  0  0  0  0  0  0  0
    0.0000    0.0000    0.0000 H   0  0  0  0  0  0  0  0  0  0  0  0
    0.0000    0.0000    0.0000 H   0  0  0  0  0  0  0  0  0  0  0  0
    0.0000    0.0000    0.0000 H   0  0  0  0  0  0  0  0  0  0  0  0
    0.0000    0.0000    0.0000 H   0  0  0  0  0  0  0  0  0  0  0  0
    0.0000    0.0000    0.0000 H   0  0  0  0  0  0  0  0  0  0  0  0
    0.0000    0.0000    0.0000 H   0  0  0  0  0  0  0  0  0  0  0  0
    0.0000    0.0000    0.0000 H   0  0  0  0  0  0  0  0  0  0  0  0
    0.0000    0.0000    0.0000 H   0  0  0  0  0  0  0  0  0  0  0  0
    0.0000    0.0000    0.0000 H   0  0  0  0  0  0  0  0  0  0  0  0
    6.9741   -1.5327   -0.3712 C   0  0  0  0  0  0  0  0  0  0  0  0
    6.6181   -0.2113   -0.5453 C   0  0  0  0  0  0  0  0  0  0  0  0
    5.2708    0.0811   -0.4729 C   0  0  0  0  0  0  0  0  0  0  0  0
    4.3436   -0.9140   -0.2373 C   0  0  0  0  0  0  0  0  0  0  0  0
    4.7062   -2.2348   -0.0638 C   0  0  0  0  0  0  0  0  0  0  0  0
    3.6797   -3.2957    0.1909 C   0  0  0  0  0  0  0  0  0  0  0  0
    6.0516   -2.5302   -0.1355 C   0  0  0  0  0  0  0  0  0  0  0  0
    7.3531    0.5623   -0.7298 H   0  0  0  0  0  0  0  0  0  0  0  0
    4.9360    1.1132   -0.6041 H   0  0  0  0  0  0  0  0  0  0  0  0
    3.2775   -0.7049   -0.1765 H   0  0  0  0  0  0  0  0  0  0  0  0
    3.9550   -4.2300   -0.3061 H   0  0  0  0  0  0  0  0  0  0  0  0
    3.5647   -3.4013    1.2829 H   0  0  0  0  0  0  0  0  0  0  0  0
    2.7452   -2.9355   -0.2933 H   0  0  0  0  0  0  0  0  0  0  0  0
    6.3542   -3.5707   -0.0003 H   0  0  0  0  0  0  0  0  0  0  0  0
  1  2  1  0
  2  3  1  0
  2 19  1  0
  3  4  1  0
  3  5  2  0
  5  6  1  0
  6  7  1  1
  6 19  1  0
  7  8  2  0
  7 18  1  0
  8  9  1  0
  9 10  2  0
 10 11  1  0
 11 12  1  0
 11 18  2  0
 12 13  2  0
 12 17  1  0
 13 14  1  0
 14 15  2  0
 15 16  1  0
 16 17  2  0
 19 20  2  0
  1 21  1  0
  1 22  1  0
  1 23  1  0
  4 24  1  0
  4 25  1  0
  5 26  1  0
  8 27  1  0
  9 28  1  0
 10 29  1  0
 13 30  1  0
 14 31  1  0
 15 32  1  0
 17 33  1  0
 18 34  1  0
 35 36  2  0
 36 37  1  0
 37 38  2  0
 38 39  1  0
 39 40  1  0
 39 41  2  0
 41 35  1  0
 36 42  1  0
 37 43  1  0
 38 44  1  0
 40 45  1  0
 40 46  1  0
 40 47  1  0
 41 48  1  0
  6 35  1  0
M  CHG  1   5   1
M  END
>  <attachment_point>  (72) 
26

>  <score>  (72) 
<NA>

$$$$
CAT-4j
     RDKit          3D

 45 48  0  0  1  0  0  0  0  0999 V2000
   11.7106   -2.3098    1.2658 C   0  0  0  0  0  0  0  0  0  0  0  0
   13.0313   -2.6523    0.7225 N   0  0  0  0  0  0  0  0  0  0  0  0
   14.2010   -2.6281    1.3773 C   0  0  0  0  0  0  0  0  0  0  0  0
   14.3777   -2.3568    2.6732 N   0  0  0  0  0  0  0  0  0  0  0  0
   15.2217   -2.9197    0.5738 N   0  0  0  0  0  0  0  0  0  0  0  0
   14.7965   -3.2519   -0.7875 C   0  0  1  0  0  0  0  0  0  0  0  0
   15.3794   -2.2443   -1.7949 C   0  0  0  0  0  0  0  0  0  0  0  0
   15.9522   -2.6550   -3.0208 C   0  0  0  0  0  0  0  0  0  0  0  0
   16.4340   -1.6937   -3.9273 C   0  0  0  0  0  0  0  0  0  0  0  0
   16.3364   -0.3224   -3.6308 C   0  0  0  0  0  0  0  0  0  0  0  0
   15.7943    0.1250   -2.4073 C   0  0  0  0  0  0  0  0  0  0  0  0
   15.6711    1.5693   -2.0915 C   0  0  0  0  0  0  0  0  0  0  0  0
   15.3832    2.0354   -0.7903 C   0  0  0  0  0  0  0  0  0  0  0  0
   15.3534    3.4188   -0.5357 C   0  0  0  0  0  0  0  0  0  0  0  0
   15.5968    4.3049   -1.5946 C   0  0  0  0  0  0  0  0  0  0  0  0
   15.8275    3.8920   -2.8511 N   0  0  0  0  0  0  0  0  0  0  0  0
   15.8598    2.5642   -3.0762 C   0  0  0  0  0  0  0  0  0  0  0  0
   15.3327   -0.8573   -1.5012 C   0  0  0  0  0  0  0  0  0  0  0  0
   13.2767   -3.0094   -0.6368 C   0  0  0  0  0  0  0  0  0  0  0  0
   12.3981   -3.0674   -1.5055 O   0  0  0  0  0  0  0  0  0  0  0  0
    0.0000    0.0000    0.0000 H   0  0  0  0  0  0  0  0  0  0  0  0
    0.0000    0.0000    0.0000 H   0  0  0  0  0  0  0  0  0  0  0  0
    0.0000    0.0000    0.0000 H   0  0  0  0  0  0  0  0  0  0  0  0
    0.0000    0.0000    0.0000 H   0  0  0  0  0  0  0  0  0  0  0  0
    0.0000    0.0000    0.0000 H   0  0  0  0  0  0  0  0  0  0  0  0
    0.0000    0.0000    0.0000 H   0  0  0  0  0  0  0  0  0  0  0  0
    0.0000    0.0000    0.0000 H   0  0  0  0  0  0  0  0  0  0  0  0
    0.0000    0.0000    0.0000 H   0  0  0  0  0  0  0  0  0  0  0  0
    0.0000    0.0000    0.0000 H   0  0  0  0  0  0  0  0  0  0  0  0
    0.0000    0.0000    0.0000 H   0  0  0  0  0  0  0  0  0  0  0  0
    0.0000    0.0000    0.0000 H   0  0  0  0  0  0  0  0  0  0  0  0
    0.0000    0.0000    0.0000 H   0  0  0  0  0  0  0  0  0  0  0  0
    0.0000    0.0000    0.0000 H   0  0  0  0  0  0  0  0  0  0  0  0
    0.0000    0.0000    0.0000 H   0  0  0  0  0  0  0  0  0  0  0  0
    6.9720   -1.5323   -0.3711 C   0  0  0  0  0  0  0  0  0  0  0  0
    6.5147   -0.2269   -0.3309 C   0  0  0  0  0  0  0  0  0  0  0  0
    5.1713    0.0787   -0.2593 C   0  0  0  0  0  0  0  0  0  0  0  0
    4.2747   -0.9722   -0.2280 C   0  0  0  0  0  0  0  0  0  0  0  0
    4.7459   -2.2734   -0.2688 C   0  0  0  0  0  0  0  0  0  0  0  0
    3.8655   -3.3056   -0.2380 F   0  0  0  0  0  0  0  0  0  0  0  0
    6.0840   -2.5868   -0.3402 C   0  0  0  0  0  0  0  0  0  0  0  0
    7.2019    0.6034   -0.3546 H   0  0  0  0  0  0  0  0  0  0  0  0
    4.8038    1.0797   -0.2277 H   0  0  0  0  0  0  0  0  0  0  0  0
    3.2182   -0.7636   -0.1720 H   0  0  0  0  0  0  0  0  0  0  0  0
    6.4606   -3.5996   -0.3725 H   0  0  0  0  0  0  0  0  0  0  0  0
  1  2  1  0
  2  3  1  0
  2 19  1  0
  3  4  1  0
  3  5  2  0
  5  6  1  0
  6  7  1  1
  6 19  1  0
  7  8  2  0
  7 18  1  0
  8  9  1  0
  9 10  2  0
 10 11  1  0
 11 12  1  0
 11 18  2  0
 12 13  2  0
 12 17  1  0
 13 14  1  0
 14 15  2  0
 15 16  1  0
 16 17  2  0
 19 20  2  0
  1 21  1  0
  1 22  1  0
  1 23  1  0
  4 24  1  0
  4 25  1  0
  5 26  1  0
  8 27  1  0
  9 28  1  0
 10 29  1  0
 13 30  1  0
 14 31  1  0
 15 32  1  0
 17 33  1  0
 18 34  1  0
 35 36  2  0
 36 37  1  0
 37 38  2  0
 38 39  1  0
 39 40  1  0
 39 41  2  0
 41 35  1  0
 36 42  1  0
 37 43  1  0
 38 44  1  0
 41 45  1  0
  6 35  1  0
M  CHG  1   5   1
M  END
>  <attachment_point>  (73) 
26

>  <score>  (73) 
<NA>

$$$$
CAT-4j
     RDKit          3D

 47 49  0  0  1  0  0  0  0  0999 V2000
   11.7106   -2.3098    1.2658 C   0  0  0  0  0  0  0  0  0  0  0  0
   13.0313   -2.6523    0.7225 N   0  0  0  0  0  0  0  0  0  0  0  0
   14.2010   -2.6281    1.3773 C   0  0  0  0  0  0  0  0  0  0  0  0
   14.3777   -2.3568    2.6732 N   0  0  0  0  0  0  0  0  0  0  0  0
   15.2217   -2.9197    0.5738 N   0  0  0  0  0  0  0  0  0  0  0  0
   14.7965   -3.2519   -0.7875 C   0  0  1  0  0  0  0  0  0  0  0  0
   15.3794   -2.2443   -1.7949 C   0  0  0  0  0  0  0  0  0  0  0  0
   15.9522   -2.6550   -3.0208 C   0  0  0  0  0  0  0  0  0  0  0  0
   16.4340   -1.6937   -3.9273 C   0  0  0  0  0  0  0  0  0  0  0  0
   16.3364   -0.3224   -3.6308 C   0  0  0  0  0  0  0  0  0  0  0  0
   15.7943    0.1250   -2.4073 C   0  0  0  0  0  0  0  0  0  0  0  0
   15.6711    1.5693   -2.0915 C   0  0  0  0  0  0  0  0  0  0  0  0
   15.3832    2.0354   -0.7903 C   0  0  0  0  0  0  0  0  0  0  0  0
   15.3534    3.4188   -0.5357 C   0  0  0  0  0  0  0  0  0  0  0  0
   15.5968    4.3049   -1.5946 C   0  0  0  0  0  0  0  0  0  0  0  0
   15.8275    3.8920   -2.8511 N   0  0  0  0  0  0  0  0  0  0  0  0
   15.8598    2.5642   -3.0762 C   0  0  0  0  0  0  0  0  0  0  0  0
   15.3327   -0.8573   -1.5012 C   0  0  0  0  0  0  0  0  0  0  0  0
   13.2767   -3.0094   -0.6368 C   0  0  0  0  0  0  0  0  0  0  0  0
   12.3981   -3.0674   -1.5055 O   0  0  0  0  0  0  0  0  0  0  0  0
    0.0000    0.0000    0.0000 H   0  0  0  0  0  0  0  0  0  0  0  0
    0.0000    0.0000    0.0000 H   0  0  0  0  0  0  0  0  0  0  0  0
    0.0000    0.0000    0.0000 H   0  0  0  0  0  0  0  0  0  0  0  0
    0.0000    0.0000    0.0000 H   0  0  0  0  0  0  0  0  0  0  0  0
    0.0000    0.0000    0.0000 H   0  0  0  0  0  0  0  0  0  0  0  0
    0.0000    0.0000    0.0000 H   0  0  0  0  0  0  0  0  0  0  0  0
    0.0000    0.0000    0.0000 H   0  0  0  0  0  0  0  0  0  0  0  0
    0.0000    0.0000    0.0000 H   0  0  0  0  0  0  0  0  0  0  0  0
    0.0000    0.0000    0.0000 H   0  0  0  0  0  0  0  0  0  0  0  0
    0.0000    0.0000    0.0000 H   0  0  0  0  0  0  0  0  0  0  0  0
    0.0000    0.0000    0.0000 H   0  0  0  0  0  0  0  0  0  0  0  0
    0.0000    0.0000    0.0000 H   0  0  0  0  0  0  0  0  0  0  0  0
    0.0000    0.0000    0.0000 H   0  0  0  0  0  0  0  0  0  0  0  0
    0.0000    0.0000    0.0000 H   0  0  0  0  0  0  0  0  0  0  0  0
    6.9691   -1.5316   -0.3709 C   0  0  0  0  0  0  0  0  0  0  0  0
    6.7307   -0.1309   -0.8465 C   0  0  0  0  0  0  0  0  0  0  0  0
    7.1652    0.0921   -2.2679 C   0  0  0  0  0  0  0  0  0  0  0  0
    7.5816    0.7849    0.0349 C   0  0  0  0  0  0  0  0  0  0  0  0
    6.3772   -2.2949   -0.9028 H   0  0  0  0  0  0  0  0  0  0  0  0
    6.7240   -1.5540    0.7142 H   0  0  0  0  0  0  0  0  0  0  0  0
    5.6527    0.0959   -0.6974 H   0  0  0  0  0  0  0  0  0  0  0  0
    8.2381    0.3881   -2.3365 H   0  0  0  0  0  0  0  0  0  0  0  0
    7.0017   -0.7734   -2.9248 H   0  0  0  0  0  0  0  0  0  0  0  0
    6.5959    0.9945   -2.6316 H   0  0  0  0  0  0  0  0  0  0  0  0
    8.1389    1.5326   -0.5849 H   0  0  0  0  0  0  0  0  0  0  0  0
    8.3396    0.2272    0.6012 H   0  0  0  0  0  0  0  0  0  0  0  0
    6.9266    1.3731    0.6975 H   0  0  0  0  0  0  0  0  0  0  0  0
  1  2  1  0
  2  3  1  0
  2 19  1  0
  3  4  1  0
  3  5  2  0
  5  6  1  0
  6  7  1  0
  6 19  1  0
  7  8  2  0
  7 18  1  0
  8  9  1  0
  9 10  2  0
 10 11  1  0
 11 12  1  0
 11 18  2  0
 12 13  2  0
 12 17  1  0
 13 14  1  0
 14 15  2  0
 15 16  1  0
 16 17  2  0
 19 20  2  0
  1 21  1  0
  1 22  1  0
  1 23  1  0
  4 24  1  0
  4 25  1  0
  5 26  1  0
  8 27  1  0
  9 28  1  0
 10 29  1  0
 13 30  1  0
 14 31  1  0
 15 32  1  0
 17 33  1  0
 18 34  1  0
 35 36  1  0
 36 37  1  0
 36 38  1  0
 35 39  1  0
 35 40  1  0
 36 41  1  0
 37 42  1  0
 37 43  1  0
 37 44  1  0
 38 45  1  0
 38 46  1  0
 38 47  1  0
  6 35  1  6
M  CHG  1   5   1
M  END
>  <attachment_point>  (74) 
26

>  <score>  (74) 
<NA>

$$$$
CAT-4j
     RDKit          3D

 45 47  0  0  1  0  0  0  0  0999 V2000
   11.7106   -2.3098    1.2658 C   0  0  0  0  0  0  0  0  0  0  0  0
   13.0313   -2.6523    0.7225 N   0  0  0  0  0  0  0  0  0  0  0  0
   14.2010   -2.6281    1.3773 C   0  0  0  0  0  0  0  0  0  0  0  0
   14.3777   -2.3568    2.6732 N   0  0  0  0  0  0  0  0  0  0  0  0
   15.2217   -2.9197    0.5738 N   0  0  0  0  0  0  0  0  0  0  0  0
   14.7965   -3.2519   -0.7875 C   0  0  1  0  0  0  0  0  0  0  0  0
   15.3794   -2.2443   -1.7949 C   0  0  0  0  0  0  0  0  0  0  0  0
   15.9522   -2.6550   -3.0208 C   0  0  0  0  0  0  0  0  0  0  0  0
   16.4340   -1.6937   -3.9273 C   0  0  0  0  0  0  0  0  0  0  0  0
   16.3364   -0.3224   -3.6308 C   0  0  0  0  0  0  0  0  0  0  0  0
   15.7943    0.1250   -2.4073 C   0  0  0  0  0  0  0  0  0  0  0  0
   15.6711    1.5693   -2.0915 C   0  0  0  0  0  0  0  0  0  0  0  0
   15.3832    2.0354   -0.7903 C   0  0  0  0  0  0  0  0  0  0  0  0
   15.3534    3.4188   -0.5357 C   0  0  0  0  0  0  0  0  0  0  0  0
   15.5968    4.3049   -1.5946 C   0  0  0  0  0  0  0  0  0  0  0  0
   15.8275    3.8920   -2.8511 N   0  0  0  0  0  0  0  0  0  0  0  0
   15.8598    2.5642   -3.0762 C   0  0  0  0  0  0  0  0  0  0  0  0
   15.3327   -0.8573   -1.5012 C   0  0  0  0  0  0  0  0  0  0  0  0
   13.2767   -3.0094   -0.6368 C   0  0  0  0  0  0  0  0  0  0  0  0
   12.3981   -3.0674   -1.5055 O   0  0  0  0  0  0  0  0  0  0  0  0
    0.0000    0.0000    0.0000 H   0  0  0  0  0  0  0  0  0  0  0  0
    0.0000    0.0000    0.0000 H   0  0  0  0  0  0  0  0  0  0  0  0
    0.0000    0.0000    0.0000 H   0  0  0  0  0  0  0  0  0  0  0  0
    0.0000    0.0000    0.0000 H   0  0  0  0  0  0  0  0  0  0  0  0
    0.0000    0.0000    0.0000 H   0  0  0  0  0  0  0  0  0  0  0  0
    0.0000    0.0000    0.0000 H   0  0  0  0  0  0  0  0  0  0  0  0
    0.0000    0.0000    0.0000 H   0  0  0  0  0  0  0  0  0  0  0  0
    0.0000    0.0000    0.0000 H   0  0  0  0  0  0  0  0  0  0  0  0
    0.0000    0.0000    0.0000 H   0  0  0  0  0  0  0  0  0  0  0  0
    0.0000    0.0000    0.0000 H   0  0  0  0  0  0  0  0  0  0  0  0
    0.0000    0.0000    0.0000 H   0  0  0  0  0  0  0  0  0  0  0  0
    0.0000    0.0000    0.0000 H   0  0  0  0  0  0  0  0  0  0  0  0
    0.0000    0.0000    0.0000 H   0  0  0  0  0  0  0  0  0  0  0  0
    0.0000    0.0000    0.0000 H   0  0  0  0  0  0  0  0  0  0  0  0
    7.1553   -1.5726   -0.3808 O   0  0  0  0  0  0  0  0  0  0  0  0
    6.1631   -1.5832    0.6168 C   0  0  0  0  0  0  0  0  0  0  0  0
    5.0404   -2.5370    0.1876 C   0  0  0  0  0  0  0  0  0  0  0  0
    5.5651   -0.1963    0.7542 C   0  0  0  0  0  0  0  0  0  0  0  0
    6.5954   -1.9181    1.5814 H   0  0  0  0  0  0  0  0  0  0  0  0
    5.4026   -3.1763   -0.6200 H   0  0  0  0  0  0  0  0  0  0  0  0
    4.1712   -1.9578   -0.2073 H   0  0  0  0  0  0  0  0  0  0  0  0
    4.6727   -3.0790    1.0683 H   0  0  0  0  0  0  0  0  0  0  0  0
    5.5944    0.1710    1.8000 H   0  0  0  0  0  0  0  0  0  0  0  0
    4.4717   -0.2023    0.4817 H   0  0  0  0  0  0  0  0  0  0  0  0
    6.0481    0.5391    0.0851 H   0  0  0  0  0  0  0  0  0  0  0  0
  1  2  1  0
  2  3  1  0
  2 19  1  0
  3  4  1  0
  3  5  2  0
  5  6  1  0
  6  7  1  0
  6 19  1  0
  7  8  2  0
  7 18  1  0
  8  9  1  0
  9 10  2  0
 10 11  1  0
 11 12  1  0
 11 18  2  0
 12 13  2  0
 12 17  1  0
 13 14  1  0
 14 15  2  0
 15 16  1  0
 16 17  2  0
 19 20  2  0
  1 21  1  0
  1 22  1  0
  1 23  1  0
  4 24  1  0
  4 25  1  0
  5 26  1  0
  8 27  1  0
  9 28  1  0
 10 29  1  0
 13 30  1  0
 14 31  1  0
 15 32  1  0
 17 33  1  0
 18 34  1  0
 35 36  1  0
 36 37  1  0
 36 38  1  0
 36 39  1  0
 37 40  1  0
 37 41  1  0
 37 42  1  0
 38 43  1  0
 38 44  1  0
 38 45  1  0
  6 35  1  6
M  CHG  1   5   1
M  END
>  <attachment_point>  (75) 
26

>  <score>  (75) 
<NA>

$$$$
CAT-4j
     RDKit          3D

 43 45  0  0  1  0  0  0  0  0999 V2000
   11.7106   -2.3098    1.2658 C   0  0  0  0  0  0  0  0  0  0  0  0
   13.0313   -2.6523    0.7225 N   0  0  0  0  0  0  0  0  0  0  0  0
   14.2010   -2.6281    1.3773 C   0  0  0  0  0  0  0  0  0  0  0  0
   14.3777   -2.3568    2.6732 N   0  0  0  0  0  0  0  0  0  0  0  0
   15.2217   -2.9197    0.5738 N   0  0  0  0  0  0  0  0  0  0  0  0
   14.7965   -3.2519   -0.7875 C   0  0  1  0  0  0  0  0  0  0  0  0
   15.3794   -2.2443   -1.7949 C   0  0  0  0  0  0  0  0  0  0  0  0
   15.9522   -2.6550   -3.0208 C   0  0  0  0  0  0  0  0  0  0  0  0
   16.4340   -1.6937   -3.9273 C   0  0  0  0  0  0  0  0  0  0  0  0
   16.3364   -0.3224   -3.6308 C   0  0  0  0  0  0  0  0  0  0  0  0
   15.7943    0.1250   -2.4073 C   0  0  0  0  0  0  0  0  0  0  0  0
   15.6711    1.5693   -2.0915 C   0  0  0  0  0  0  0  0  0  0  0  0
   15.3832    2.0354   -0.7903 C   0  0  0  0  0  0  0  0  0  0  0  0
   15.3534    3.4188   -0.5357 C   0  0  0  0  0  0  0  0  0  0  0  0
   15.5968    4.3049   -1.5946 C   0  0  0  0  0  0  0  0  0  0  0  0
   15.8275    3.8920   -2.8511 N   0  0  0  0  0  0  0  0  0  0  0  0
   15.8598    2.5642   -3.0762 C   0  0  0  0  0  0  0  0  0  0  0  0
   15.3327   -0.8573   -1.5012 C   0  0  0  0  0  0  0  0  0  0  0  0
   13.2767   -3.0094   -0.6368 C   0  0  0  0  0  0  0  0  0  0  0  0
   12.3981   -3.0674   -1.5055 O   0  0  0  0  0  0  0  0  0  0  0  0
    0.0000    0.0000    0.0000 H   0  0  0  0  0  0  0  0  0  0  0  0
    0.0000    0.0000    0.0000 H   0  0  0  0  0  0  0  0  0  0  0  0
    0.0000    0.0000    0.0000 H   0  0  0  0  0  0  0  0  0  0  0  0
    0.0000    0.0000    0.0000 H   0  0  0  0  0  0  0  0  0  0  0  0
    0.0000    0.0000    0.0000 H   0  0  0  0  0  0  0  0  0  0  0  0
    0.0000    0.0000    0.0000 H   0  0  0  0  0  0  0  0  0  0  0  0
    0.0000    0.0000    0.0000 H   0  0  0  0  0  0  0  0  0  0  0  0
    0.0000    0.0000    0.0000 H   0  0  0  0  0  0  0  0  0  0  0  0
    0.0000    0.0000    0.0000 H   0  0  0  0  0  0  0  0  0  0  0  0
    0.0000    0.0000    0.0000 H   0  0  0  0  0  0  0  0  0  0  0  0
    0.0000    0.0000    0.0000 H   0  0  0  0  0  0  0  0  0  0  0  0
    0.0000    0.0000    0.0000 H   0  0  0  0  0  0  0  0  0  0  0  0
    0.0000    0.0000    0.0000 H   0  0  0  0  0  0  0  0  0  0  0  0
    0.0000    0.0000    0.0000 H   0  0  0  0  0  0  0  0  0  0  0  0
    6.9075   -1.5181   -0.3676 N   0  0  0  0  0  0  0  0  0  0  0  0
    7.1566   -0.2700    0.8307 S   0  0  0  0  0  6  0  0  0  0  0  0
    7.8649   -0.9526    2.3094 C   0  0  0  0  0  0  0  0  0  0  0  0
    5.8779    0.3767    1.1926 O   0  0  0  0  0  0  0  0  0  0  0  0
    8.0654    0.7502    0.2093 O   0  0  0  0  0  0  0  0  0  0  0  0
    6.6438   -2.4241    0.0829 H   0  0  0  0  0  0  0  0  0  0  0  0
    8.5860   -1.7269    2.0439 H   0  0  0  0  0  0  0  0  0  0  0  0
    7.0783   -1.3146    3.0075 H   0  0  0  0  0  0  0  0  0  0  0  0
    8.4527   -0.1160    2.7826 H   0  0  0  0  0  0  0  0  0  0  0  0
  1  2  1  0
  2  3  1  0
  2 19  1  0
  3  4  1  0
  3  5  2  0
  5  6  1  0
  6  7  1  0
  6 19  1  0
  7  8  2  0
  7 18  1  0
  8  9  1  0
  9 10  2  0
 10 11  1  0
 11 12  1  0
 11 18  2  0
 12 13  2  0
 12 17  1  0
 13 14  1  0
 14 15  2  0
 15 16  1  0
 16 17  2  0
 19 20  2  0
  1 21  1  0
  1 22  1  0
  1 23  1  0
  4 24  1  0
  4 25  1  0
  5 26  1  0
  8 27  1  0
  9 28  1  0
 10 29  1  0
 13 30  1  0
 14 31  1  0
 15 32  1  0
 17 33  1  0
 18 34  1  0
 35 36  1  0
 36 37  1  0
 36 38  2  0
 36 39  2  0
 35 40  1  0
 37 41  1  0
 37 42  1  0
 37 43  1  0
  6 35  1  6
M  CHG  1   5   1
M  END
>  <attachment_point>  (76) 
26

>  <score>  (76) 
<NA>

$$$$
CAT-4j
     RDKit          3D

 50 52  0  0  1  0  0  0  0  0999 V2000
   11.7106   -2.3098    1.2658 C   0  0  0  0  0  0  0  0  0  0  0  0
   13.0313   -2.6523    0.7225 N   0  0  0  0  0  0  0  0  0  0  0  0
   14.2010   -2.6281    1.3773 C   0  0  0  0  0  0  0  0  0  0  0  0
   14.3777   -2.3568    2.6732 N   0  0  0  0  0  0  0  0  0  0  0  0
   15.2217   -2.9197    0.5738 N   0  0  0  0  0  0  0  0  0  0  0  0
   14.7965   -3.2519   -0.7875 C   0  0  1  0  0  0  0  0  0  0  0  0
   15.3794   -2.2443   -1.7949 C   0  0  0  0  0  0  0  0  0  0  0  0
   15.9522   -2.6550   -3.0208 C   0  0  0  0  0  0  0  0  0  0  0  0
   16.4340   -1.6937   -3.9273 C   0  0  0  0  0  0  0  0  0  0  0  0
   16.3364   -0.3224   -3.6308 C   0  0  0  0  0  0  0  0  0  0  0  0
   15.7943    0.1250   -2.4073 C   0  0  0  0  0  0  0  0  0  0  0  0
   15.6711    1.5693   -2.0915 C   0  0  0  0  0  0  0  0  0  0  0  0
   15.3832    2.0354   -0.7903 C   0  0  0  0  0  0  0  0  0  0  0  0
   15.3534    3.4188   -0.5357 C   0  0  0  0  0  0  0  0  0  0  0  0
   15.5968    4.3049   -1.5946 C   0  0  0  0  0  0  0  0  0  0  0  0
   15.8275    3.8920   -2.8511 N   0  0  0  0  0  0  0  0  0  0  0  0
   15.8598    2.5642   -3.0762 C   0  0  0  0  0  0  0  0  0  0  0  0
   15.3327   -0.8573   -1.5012 C   0  0  0  0  0  0  0  0  0  0  0  0
   13.2767   -3.0094   -0.6368 C   0  0  0  0  0  0  0  0  0  0  0  0
   12.3981   -3.0674   -1.5055 O   0  0  0  0  0  0  0  0  0  0  0  0
    0.0000    0.0000    0.0000 H   0  0  0  0  0  0  0  0  0  0  0  0
    0.0000    0.0000    0.0000 H   0  0  0  0  0  0  0  0  0  0  0  0
    0.0000    0.0000    0.0000 H   0  0  0  0  0  0  0  0  0  0  0  0
    0.0000    0.0000    0.0000 H   0  0  0  0  0  0  0  0  0  0  0  0
    0.0000    0.0000    0.0000 H   0  0  0  0  0  0  0  0  0  0  0  0
    0.0000    0.0000    0.0000 H   0  0  0  0  0  0  0  0  0  0  0  0
    0.0000    0.0000    0.0000 H   0  0  0  0  0  0  0  0  0  0  0  0
    0.0000    0.0000    0.0000 H   0  0  0  0  0  0  0  0  0  0  0  0
    0.0000    0.0000    0.0000 H   0  0  0  0  0  0  0  0  0  0  0  0
    0.0000    0.0000    0.0000 H   0  0  0  0  0  0  0  0  0  0  0  0
    0.0000    0.0000    0.0000 H   0  0  0  0  0  0  0  0  0  0  0  0
    0.0000    0.0000    0.0000 H   0  0  0  0  0  0  0  0  0  0  0  0
    0.0000    0.0000    0.0000 H   0  0  0  0  0  0  0  0  0  0  0  0
    0.0000    0.0000    0.0000 H   0  0  0  0  0  0  0  0  0  0  0  0
    6.8022   -1.4949   -0.3620 C   0  0  0  0  0  0  0  0  0  0  0  0
    6.5133   -2.8850   -0.7939 C   0  0  0  0  0  0  0  0  0  0  0  0
    5.0467   -3.0546   -0.8652 C   0  0  0  0  0  0  0  0  0  0  0  0
    4.7488   -4.4918   -1.3117 C   0  0  0  0  0  0  0  0  0  0  0  0
    3.2588   -4.7286   -1.4038 C   0  0  0  0  0  0  0  0  0  0  0  0
    6.9710   -1.3029    0.6694 H   0  0  0  0  0  0  0  0  0  0  0  0
    7.0025   -0.7606   -1.1115 H   0  0  0  0  0  0  0  0  0  0  0  0
    6.9091   -2.9927   -1.8463 H   0  0  0  0  0  0  0  0  0  0  0  0
    6.9336   -3.6737   -0.1523 H   0  0  0  0  0  0  0  0  0  0  0  0
    4.4881   -2.7993    0.0445 H   0  0  0  0  0  0  0  0  0  0  0  0
    4.6685   -2.4170   -1.7168 H   0  0  0  0  0  0  0  0  0  0  0  0
    5.2083   -4.7200   -2.2718 H   0  0  0  0  0  0  0  0  0  0  0  0
    5.1594   -5.1563   -0.5318 H   0  0  0  0  0  0  0  0  0  0  0  0
    2.8890   -5.2794   -0.4947 H   0  0  0  0  0  0  0  0  0  0  0  0
    3.0677   -5.4289   -2.2528 H   0  0  0  0  0  0  0  0  0  0  0  0
    2.6709   -3.8137   -1.5049 H   0  0  0  0  0  0  0  0  0  0  0  0
  1  2  1  0
  2  3  1  0
  2 19  1  0
  3  4  1  0
  3  5  2  0
  5  6  1  0
  6  7  1  0
  6 19  1  0
  7  8  2  0
  7 18  1  0
  8  9  1  0
  9 10  2  0
 10 11  1  0
 11 12  1  0
 11 18  2  0
 12 13  2  0
 12 17  1  0
 13 14  1  0
 14 15  2  0
 15 16  1  0
 16 17  2  0
 19 20  2  0
  1 21  1  0
  1 22  1  0
  1 23  1  0
  4 24  1  0
  4 25  1  0
  5 26  1  0
  8 27  1  0
  9 28  1  0
 10 29  1  0
 13 30  1  0
 14 31  1  0
 15 32  1  0
 17 33  1  0
 18 34  1  0
 35 36  1  0
 36 37  1  0
 37 38  1  0
 38 39  1  0
 35 40  1  0
 35 41  1  0
 36 42  1  0
 36 43  1  0
 37 44  1  0
 37 45  1  0
 38 46  1  0
 38 47  1  0
 39 48  1  0
 39 49  1  0
 39 50  1  0
  6 35  1  6
M  CHG  1   5   1
M  END
>  <attachment_point>  (77) 
26

>  <score>  (77) 
<NA>

$$$$
CAT-4j
     RDKit          3D

 45 48  0  0  1  0  0  0  0  0999 V2000
   11.7106   -2.3098    1.2658 C   0  0  0  0  0  0  0  0  0  0  0  0
   13.0313   -2.6523    0.7225 N   0  0  0  0  0  0  0  0  0  0  0  0
   14.2010   -2.6281    1.3773 C   0  0  0  0  0  0  0  0  0  0  0  0
   14.3777   -2.3568    2.6732 N   0  0  0  0  0  0  0  0  0  0  0  0
   15.2217   -2.9197    0.5738 N   0  0  0  0  0  0  0  0  0  0  0  0
   14.7965   -3.2519   -0.7875 C   0  0  1  0  0  0  0  0  0  0  0  0
   15.3794   -2.2443   -1.7949 C   0  0  0  0  0  0  0  0  0  0  0  0
   15.9522   -2.6550   -3.0208 C   0  0  0  0  0  0  0  0  0  0  0  0
   16.4340   -1.6937   -3.9273 C   0  0  0  0  0  0  0  0  0  0  0  0
   16.3364   -0.3224   -3.6308 C   0  0  0  0  0  0  0  0  0  0  0  0
   15.7943    0.1250   -2.4073 C   0  0  0  0  0  0  0  0  0  0  0  0
   15.6711    1.5693   -2.0915 C   0  0  0  0  0  0  0  0  0  0  0  0
   15.3832    2.0354   -0.7903 C   0  0  0  0  0  0  0  0  0  0  0  0
   15.3534    3.4188   -0.5357 C   0  0  0  0  0  0  0  0  0  0  0  0
   15.5968    4.3049   -1.5946 C   0  0  0  0  0  0  0  0  0  0  0  0
   15.8275    3.8920   -2.8511 N   0  0  0  0  0  0  0  0  0  0  0  0
   15.8598    2.5642   -3.0762 C   0  0  0  0  0  0  0  0  0  0  0  0
   15.3327   -0.8573   -1.5012 C   0  0  0  0  0  0  0  0  0  0  0  0
   13.2767   -3.0094   -0.6368 C   0  0  0  0  0  0  0  0  0  0  0  0
   12.3981   -3.0674   -1.5055 O   0  0  0  0  0  0  0  0  0  0  0  0
    0.0000    0.0000    0.0000 H   0  0  0  0  0  0  0  0  0  0  0  0
    0.0000    0.0000    0.0000 H   0  0  0  0  0  0  0  0  0  0  0  0
    0.0000    0.0000    0.0000 H   0  0  0  0  0  0  0  0  0  0  0  0
    0.0000    0.0000    0.0000 H   0  0  0  0  0  0  0  0  0  0  0  0
    0.0000    0.0000    0.0000 H   0  0  0  0  0  0  0  0  0  0  0  0
    0.0000    0.0000    0.0000 H   0  0  0  0  0  0  0  0  0  0  0  0
    0.0000    0.0000    0.0000 H   0  0  0  0  0  0  0  0  0  0  0  0
    0.0000    0.0000    0.0000 H   0  0  0  0  0  0  0  0  0  0  0  0
    0.0000    0.0000    0.0000 H   0  0  0  0  0  0  0  0  0  0  0  0
    0.0000    0.0000    0.0000 H   0  0  0  0  0  0  0  0  0  0  0  0
    0.0000    0.0000    0.0000 H   0  0  0  0  0  0  0  0  0  0  0  0
    0.0000    0.0000    0.0000 H   0  0  0  0  0  0  0  0  0  0  0  0
    0.0000    0.0000    0.0000 H   0  0  0  0  0  0  0  0  0  0  0  0
    0.0000    0.0000    0.0000 H   0  0  0  0  0  0  0  0  0  0  0  0
    6.9560   -1.5288   -0.3702 C   0  0  0  0  0  0  0  0  0  0  0  0
    6.5329   -0.5313    0.4907 C   0  0  0  0  0  0  0  0  0  0  0  0
    5.1677   -0.2599    0.5367 C   0  0  0  0  0  0  0  0  0  0  0  0
    4.2616   -0.9505   -0.2401 C   0  0  0  0  0  0  0  0  0  0  0  0
    4.7216   -1.9378   -1.0860 C   0  0  0  0  0  0  0  0  0  0  0  0
    6.0725   -2.2250   -1.1488 C   0  0  0  0  0  0  0  0  0  0  0  0
    6.5381   -3.2038   -1.9860 F   0  0  0  0  0  0  0  0  0  0  0  0
    7.2185    0.0292    1.1136 H   0  0  0  0  0  0  0  0  0  0  0  0
    4.7612    0.5130    1.1919 H   0  0  0  0  0  0  0  0  0  0  0  0
    3.2140   -0.7221   -0.1862 H   0  0  0  0  0  0  0  0  0  0  0  0
    4.0581   -2.4987   -1.7060 H   0  0  0  0  0  0  0  0  0  0  0  0
  1  2  1  0
  2  3  1  0
  2 19  1  0
  3  4  1  0
  3  5  2  0
  5  6  1  0
  6  7  1  1
  6 19  1  0
  7  8  2  0
  7 18  1  0
  8  9  1  0
  9 10  2  0
 10 11  1  0
 11 12  1  0
 11 18  2  0
 12 13  2  0
 12 17  1  0
 13 14  1  0
 14 15  2  0
 15 16  1  0
 16 17  2  0
 19 20  2  0
  1 21  1  0
  1 22  1  0
  1 23  1  0
  4 24  1  0
  4 25  1  0
  5 26  1  0
  8 27  1  0
  9 28  1  0
 10 29  1  0
 13 30  1  0
 14 31  1  0
 15 32  1  0
 17 33  1  0
 18 34  1  0
 35 36  2  0
 36 37  1  0
 37 38  2  0
 38 39  1  0
 39 40  2  0
 40 41  1  0
 40 35  1  0
 36 42  1  0
 37 43  1  0
 38 44  1  0
 39 45  1  0
  6 35  1  0
M  CHG  1   5   1
M  END
>  <attachment_point>  (78) 
26

>  <score>  (78) 
<NA>

$$$$
CAT-4j
     RDKit          3D

 50 53  0  0  1  0  0  0  0  0999 V2000
   11.7106   -2.3098    1.2658 C   0  0  0  0  0  0  0  0  0  0  0  0
   13.0313   -2.6523    0.7225 N   0  0  0  0  0  0  0  0  0  0  0  0
   14.2010   -2.6281    1.3773 C   0  0  0  0  0  0  0  0  0  0  0  0
   14.3777   -2.3568    2.6732 N   0  0  0  0  0  0  0  0  0  0  0  0
   15.2217   -2.9197    0.5738 N   0  0  0  0  0  0  0  0  0  0  0  0
   14.7965   -3.2519   -0.7875 C   0  0  1  0  0  0  0  0  0  0  0  0
   15.3794   -2.2443   -1.7949 C   0  0  0  0  0  0  0  0  0  0  0  0
   15.9522   -2.6550   -3.0208 C   0  0  0  0  0  0  0  0  0  0  0  0
   16.4340   -1.6937   -3.9273 C   0  0  0  0  0  0  0  0  0  0  0  0
   16.3364   -0.3224   -3.6308 C   0  0  0  0  0  0  0  0  0  0  0  0
   15.7943    0.1250   -2.4073 C   0  0  0  0  0  0  0  0  0  0  0  0
   15.6711    1.5693   -2.0915 C   0  0  0  0  0  0  0  0  0  0  0  0
   15.3832    2.0354   -0.7903 C   0  0  0  0  0  0  0  0  0  0  0  0
   15.3534    3.4188   -0.5357 C   0  0  0  0  0  0  0  0  0  0  0  0
   15.5968    4.3049   -1.5946 C   0  0  0  0  0  0  0  0  0  0  0  0
   15.8275    3.8920   -2.8511 N   0  0  0  0  0  0  0  0  0  0  0  0
   15.8598    2.5642   -3.0762 C   0  0  0  0  0  0  0  0  0  0  0  0
   15.3327   -0.8573   -1.5012 C   0  0  0  0  0  0  0  0  0  0  0  0
   13.2767   -3.0094   -0.6368 C   0  0  0  0  0  0  0  0  0  0  0  0
   12.3981   -3.0674   -1.5055 O   0  0  0  0  0  0  0  0  0  0  0  0
    0.0000    0.0000    0.0000 H   0  0  0  0  0  0  0  0  0  0  0  0
    0.0000    0.0000    0.0000 H   0  0  0  0  0  0  0  0  0  0  0  0
    0.0000    0.0000    0.0000 H   0  0  0  0  0  0  0  0  0  0  0  0
    0.0000    0.0000    0.0000 H   0  0  0  0  0  0  0  0  0  0  0  0
    0.0000    0.0000    0.0000 H   0  0  0  0  0  0  0  0  0  0  0  0
    0.0000    0.0000    0.0000 H   0  0  0  0  0  0  0  0  0  0  0  0
    0.0000    0.0000    0.0000 H   0  0  0  0  0  0  0  0  0  0  0  0
    0.0000    0.0000    0.0000 H   0  0  0  0  0  0  0  0  0  0  0  0
    0.0000    0.0000    0.0000 H   0  0  0  0  0  0  0  0  0  0  0  0
    0.0000    0.0000    0.0000 H   0  0  0  0  0  0  0  0  0  0  0  0
    0.0000    0.0000    0.0000 H   0  0  0  0  0  0  0  0  0  0  0  0
    0.0000    0.0000    0.0000 H   0  0  0  0  0  0  0  0  0  0  0  0
    0.0000    0.0000    0.0000 H   0  0  0  0  0  0  0  0  0  0  0  0
    0.0000    0.0000    0.0000 H   0  0  0  0  0  0  0  0  0  0  0  0
    6.9707   -1.5320   -0.3710 C   0  0  0  0  0  0  0  0  0  0  0  0
    6.2460   -2.1011   -1.2116 O   0  0  0  0  0  0  0  0  0  0  0  0
    6.5341   -0.6282    0.6272 N   0  0  0  0  0  0  0  0  0  0  0  0
    5.1287   -0.2941    0.7325 C   0  0  0  0  0  0  0  0  0  0  0  0
    5.0127    1.1981    0.9077 C   0  0  0  0  0  0  0  0  0  0  0  0
    5.6889    1.5357    2.0722 O   0  0  0  0  0  0  0  0  0  0  0  0
    7.0545    1.3978    1.9243 C   0  0  0  0  0  0  0  0  0  0  0  0
    7.4294   -0.0031    1.5717 C   0  0  0  0  0  0  0  0  0  0  0  0
    4.6391   -0.7777    1.5901 H   0  0  0  0  0  0  0  0  0  0  0  0
    4.5632   -0.5961   -0.1870 H   0  0  0  0  0  0  0  0  0  0  0  0
    5.4780    1.6782    0.0290 H   0  0  0  0  0  0  0  0  0  0  0  0
    3.9466    1.4738    1.0331 H   0  0  0  0  0  0  0  0  0  0  0  0
    7.5008    1.6156    2.9391 H   0  0  0  0  0  0  0  0  0  0  0  0
    7.4464    2.1381    1.1804 H   0  0  0  0  0  0  0  0  0  0  0  0
    7.4315   -0.6334    2.4831 H   0  0  0  0  0  0  0  0  0  0  0  0
    8.4457   -0.0168    1.0897 H   0  0  0  0  0  0  0  0  0  0  0  0
  1  2  1  0
  2  3  1  0
  2 19  1  0
  3  4  1  0
  3  5  2  0
  5  6  1  0
  6  7  1  0
  6 19  1  0
  7  8  2  0
  7 18  1  0
  8  9  1  0
  9 10  2  0
 10 11  1  0
 11 12  1  0
 11 18  2  0
 12 13  2  0
 12 17  1  0
 13 14  1  0
 14 15  2  0
 15 16  1  0
 16 17  2  0
 19 20  2  0
  1 21  1  0
  1 22  1  0
  1 23  1  0
  4 24  1  0
  4 25  1  0
  5 26  1  0
  8 27  1  0
  9 28  1  0
 10 29  1  0
 13 30  1  0
 14 31  1  0
 15 32  1  0
 17 33  1  0
 18 34  1  0
 35 36  2  0
 35 37  1  0
 37 38  1  0
 38 39  1  0
 39 40  1  0
 40 41  1  0
 41 42  1  0
 42 37  1  0
 38 43  1  0
 38 44  1  0
 39 45  1  0
 39 46  1  0
 41 47  1  0
 41 48  1  0
 42 49  1  0
 42 50  1  0
  6 35  1  6
M  CHG  1   5   1
M  END
>  <attachment_point>  (79) 
26

>  <score>  (79) 
<NA>

$$$$
CAT-4j
     RDKit          3D

 39 41  0  0  1  0  0  0  0  0999 V2000
   11.7106   -2.3098    1.2658 C   0  0  0  0  0  0  0  0  0  0  0  0
   13.0313   -2.6523    0.7225 N   0  0  0  0  0  0  0  0  0  0  0  0
   14.2010   -2.6281    1.3773 C   0  0  0  0  0  0  0  0  0  0  0  0
   14.3777   -2.3568    2.6732 N   0  0  0  0  0  0  0  0  0  0  0  0
   15.2217   -2.9197    0.5738 N   0  0  0  0  0  0  0  0  0  0  0  0
   14.7965   -3.2519   -0.7875 C   0  0  1  0  0  0  0  0  0  0  0  0
   15.3794   -2.2443   -1.7949 C   0  0  0  0  0  0  0  0  0  0  0  0
   15.9522   -2.6550   -3.0208 C   0  0  0  0  0  0  0  0  0  0  0  0
   16.4340   -1.6937   -3.9273 C   0  0  0  0  0  0  0  0  0  0  0  0
   16.3364   -0.3224   -3.6308 C   0  0  0  0  0  0  0  0  0  0  0  0
   15.7943    0.1250   -2.4073 C   0  0  0  0  0  0  0  0  0  0  0  0
   15.6711    1.5693   -2.0915 C   0  0  0  0  0  0  0  0  0  0  0  0
   15.3832    2.0354   -0.7903 C   0  0  0  0  0  0  0  0  0  0  0  0
   15.3534    3.4188   -0.5357 C   0  0  0  0  0  0  0  0  0  0  0  0
   15.5968    4.3049   -1.5946 C   0  0  0  0  0  0  0  0  0  0  0  0
   15.8275    3.8920   -2.8511 N   0  0  0  0  0  0  0  0  0  0  0  0
   15.8598    2.5642   -3.0762 C   0  0  0  0  0  0  0  0  0  0  0  0
   15.3327   -0.8573   -1.5012 C   0  0  0  0  0  0  0  0  0  0  0  0
   13.2767   -3.0094   -0.6368 C   0  0  0  0  0  0  0  0  0  0  0  0
   12.3981   -3.0674   -1.5055 O   0  0  0  0  0  0  0  0  0  0  0  0
    0.0000    0.0000    0.0000 H   0  0  0  0  0  0  0  0  0  0  0  0
    0.0000    0.0000    0.0000 H   0  0  0  0  0  0  0  0  0  0  0  0
    0.0000    0.0000    0.0000 H   0  0  0  0  0  0  0  0  0  0  0  0
    0.0000    0.0000    0.0000 H   0  0  0  0  0  0  0  0  0  0  0  0
    0.0000    0.0000    0.0000 H   0  0  0  0  0  0  0  0  0  0  0  0
    0.0000    0.0000    0.0000 H   0  0  0  0  0  0  0  0  0  0  0  0
    0.0000    0.0000    0.0000 H   0  0  0  0  0  0  0  0  0  0  0  0
    0.0000    0.0000    0.0000 H   0  0  0  0  0  0  0  0  0  0  0  0
    0.0000    0.0000    0.0000 H   0  0  0  0  0  0  0  0  0  0  0  0
    0.0000    0.0000    0.0000 H   0  0  0  0  0  0  0  0  0  0  0  0
    0.0000    0.0000    0.0000 H   0  0  0  0  0  0  0  0  0  0  0  0
    0.0000    0.0000    0.0000 H   0  0  0  0  0  0  0  0  0  0  0  0
    0.0000    0.0000    0.0000 H   0  0  0  0  0  0  0  0  0  0  0  0
    0.0000    0.0000    0.0000 H   0  0  0  0  0  0  0  0  0  0  0  0
    7.1188   -1.5645   -0.3789 O   0  0  0  0  0  0  0  0  0  0  0  0
    6.4840   -0.3564   -0.1321 C   0  0  0  0  0  0  0  0  0  0  0  0
    5.1332   -0.5798   -0.1641 F   0  0  0  0  0  0  0  0  0  0  0  0
    6.8934    0.1083    1.0985 F   0  0  0  0  0  0  0  0  0  0  0  0
    6.8664    0.5184   -1.1214 F   0  0  0  0  0  0  0  0  0  0  0  0
  1  2  1  0
  2  3  1  0
  2 19  1  0
  3  4  1  0
  3  5  2  0
  5  6  1  0
  6  7  1  0
  6 19  1  0
  7  8  2  0
  7 18  1  0
  8  9  1  0
  9 10  2  0
 10 11  1  0
 11 12  1  0
 11 18  2  0
 12 13  2  0
 12 17  1  0
 13 14  1  0
 14 15  2  0
 15 16  1  0
 16 17  2  0
 19 20  2  0
  1 21  1  0
  1 22  1  0
  1 23  1  0
  4 24  1  0
  4 25  1  0
  5 26  1  0
  8 27  1  0
  9 28  1  0
 10 29  1  0
 13 30  1  0
 14 31  1  0
 15 32  1  0
 17 33  1  0
 18 34  1  0
 35 36  1  0
 36 37  1  0
 36 38  1  0
 36 39  1  0
  6 35  1  6
M  CHG  1   5   1
M  END
>  <attachment_point>  (80) 
26

>  <score>  (80) 
<NA>

$$$$
CAT-4j
     RDKit          3D

 42 44  0  0  1  0  0  0  0  0999 V2000
   11.7106   -2.3098    1.2658 C   0  0  0  0  0  0  0  0  0  0  0  0
   13.0313   -2.6523    0.7225 N   0  0  0  0  0  0  0  0  0  0  0  0
   14.2010   -2.6281    1.3773 C   0  0  0  0  0  0  0  0  0  0  0  0
   14.3777   -2.3568    2.6732 N   0  0  0  0  0  0  0  0  0  0  0  0
   15.2217   -2.9197    0.5738 N   0  0  0  0  0  0  0  0  0  0  0  0
   14.7965   -3.2519   -0.7875 C   0  0  1  0  0  0  0  0  0  0  0  0
   15.3794   -2.2443   -1.7949 C   0  0  0  0  0  0  0  0  0  0  0  0
   15.9522   -2.6550   -3.0208 C   0  0  0  0  0  0  0  0  0  0  0  0
   16.4340   -1.6937   -3.9273 C   0  0  0  0  0  0  0  0  0  0  0  0
   16.3364   -0.3224   -3.6308 C   0  0  0  0  0  0  0  0  0  0  0  0
   15.7943    0.1250   -2.4073 C   0  0  0  0  0  0  0  0  0  0  0  0
   15.6711    1.5693   -2.0915 C   0  0  0  0  0  0  0  0  0  0  0  0
   15.3832    2.0354   -0.7903 C   0  0  0  0  0  0  0  0  0  0  0  0
   15.3534    3.4188   -0.5357 C   0  0  0  0  0  0  0  0  0  0  0  0
   15.5968    4.3049   -1.5946 C   0  0  0  0  0  0  0  0  0  0  0  0
   15.8275    3.8920   -2.8511 N   0  0  0  0  0  0  0  0  0  0  0  0
   15.8598    2.5642   -3.0762 C   0  0  0  0  0  0  0  0  0  0  0  0
   15.3327   -0.8573   -1.5012 C   0  0  0  0  0  0  0  0  0  0  0  0
   13.2767   -3.0094   -0.6368 C   0  0  0  0  0  0  0  0  0  0  0  0
   12.3981   -3.0674   -1.5055 O   0  0  0  0  0  0  0  0  0  0  0  0
    0.0000    0.0000    0.0000 H   0  0  0  0  0  0  0  0  0  0  0  0
    0.0000    0.0000    0.0000 H   0  0  0  0  0  0  0  0  0  0  0  0
    0.0000    0.0000    0.0000 H   0  0  0  0  0  0  0  0  0  0  0  0
    0.0000    0.0000    0.0000 H   0  0  0  0  0  0  0  0  0  0  0  0
    0.0000    0.0000    0.0000 H   0  0  0  0  0  0  0  0  0  0  0  0
    0.0000    0.0000    0.0000 H   0  0  0  0  0  0  0  0  0  0  0  0
    0.0000    0.0000    0.0000 H   0  0  0  0  0  0  0  0  0  0  0  0
    0.0000    0.0000    0.0000 H   0  0  0  0  0  0  0  0  0  0  0  0
    0.0000    0.0000    0.0000 H   0  0  0  0  0  0  0  0  0  0  0  0
    0.0000    0.0000    0.0000 H   0  0  0  0  0  0  0  0  0  0  0  0
    0.0000    0.0000    0.0000 H   0  0  0  0  0  0  0  0  0  0  0  0
    0.0000    0.0000    0.0000 H   0  0  0  0  0  0  0  0  0  0  0  0
    0.0000    0.0000    0.0000 H   0  0  0  0  0  0  0  0  0  0  0  0
    0.0000    0.0000    0.0000 H   0  0  0  0  0  0  0  0  0  0  0  0
    6.9887   -1.5359   -0.3720 C   0  0  0  0  0  0  0  0  0  0  0  0
    6.6851   -0.2220   -0.0774 O   0  0  0  0  0  0  0  0  0  0  0  0
    7.1690    0.6823   -0.9897 C   0  0  0  0  0  0  0  0  0  0  0  0
    6.4629   -1.8942   -1.2872 H   0  0  0  0  0  0  0  0  0  0  0  0
    6.5996   -2.1530    0.4851 H   0  0  0  0  0  0  0  0  0  0  0  0
    6.8675    1.6956   -0.6540 H   0  0  0  0  0  0  0  0  0  0  0  0
    6.6940    0.5110   -1.9680 H   0  0  0  0  0  0  0  0  0  0  0  0
    8.2818    0.7058   -1.0532 H   0  0  0  0  0  0  0  0  0  0  0  0
  1  2  1  0
  2  3  1  0
  2 19  1  0
  3  4  1  0
  3  5  2  0
  5  6  1  0
  6  7  1  0
  6 19  1  0
  7  8  2  0
  7 18  1  0
  8  9  1  0
  9 10  2  0
 10 11  1  0
 11 12  1  0
 11 18  2  0
 12 13  2  0
 12 17  1  0
 13 14  1  0
 14 15  2  0
 15 16  1  0
 16 17  2  0
 19 20  2  0
  1 21  1  0
  1 22  1  0
  1 23  1  0
  4 24  1  0
  4 25  1  0
  5 26  1  0
  8 27  1  0
  9 28  1  0
 10 29  1  0
 13 30  1  0
 14 31  1  0
 15 32  1  0
 17 33  1  0
 18 34  1  0
 35 36  1  0
 36 37  1  0
 35 38  1  0
 35 39  1  0
 37 40  1  0
 37 41  1  0
 37 42  1  0
  6 35  1  6
M  CHG  1   5   1
M  END
>  <attachment_point>  (81) 
26

>  <score>  (81) 
<NA>

$$$$
CAT-4j
     RDKit          3D

 53 56  0  0  1  0  0  0  0  0999 V2000
   11.7106   -2.3098    1.2658 C   0  0  0  0  0  0  0  0  0  0  0  0
   13.0313   -2.6523    0.7225 N   0  0  0  0  0  0  0  0  0  0  0  0
   14.2010   -2.6281    1.3773 C   0  0  0  0  0  0  0  0  0  0  0  0
   14.3777   -2.3568    2.6732 N   0  0  0  0  0  0  0  0  0  0  0  0
   15.2217   -2.9197    0.5738 N   0  0  0  0  0  0  0  0  0  0  0  0
   14.7965   -3.2519   -0.7875 C   0  0  1  0  0  0  0  0  0  0  0  0
   15.3794   -2.2443   -1.7949 C   0  0  0  0  0  0  0  0  0  0  0  0
   15.9522   -2.6550   -3.0208 C   0  0  0  0  0  0  0  0  0  0  0  0
   16.4340   -1.6937   -3.9273 C   0  0  0  0  0  0  0  0  0  0  0  0
   16.3364   -0.3224   -3.6308 C   0  0  0  0  0  0  0  0  0  0  0  0
   15.7943    0.1250   -2.4073 C   0  0  0  0  0  0  0  0  0  0  0  0
   15.6711    1.5693   -2.0915 C   0  0  0  0  0  0  0  0  0  0  0  0
   15.3832    2.0354   -0.7903 C   0  0  0  0  0  0  0  0  0  0  0  0
   15.3534    3.4188   -0.5357 C   0  0  0  0  0  0  0  0  0  0  0  0
   15.5968    4.3049   -1.5946 C   0  0  0  0  0  0  0  0  0  0  0  0
   15.8275    3.8920   -2.8511 N   0  0  0  0  0  0  0  0  0  0  0  0
   15.8598    2.5642   -3.0762 C   0  0  0  0  0  0  0  0  0  0  0  0
   15.3327   -0.8573   -1.5012 C   0  0  0  0  0  0  0  0  0  0  0  0
   13.2767   -3.0094   -0.6368 C   0  0  0  0  0  0  0  0  0  0  0  0
   12.3981   -3.0674   -1.5055 O   0  0  0  0  0  0  0  0  0  0  0  0
    0.0000    0.0000    0.0000 H   0  0  0  0  0  0  0  0  0  0  0  0
    0.0000    0.0000    0.0000 H   0  0  0  0  0  0  0  0  0  0  0  0
    0.0000    0.0000    0.0000 H   0  0  0  0  0  0  0  0  0  0  0  0
    0.0000    0.0000    0.0000 H   0  0  0  0  0  0  0  0  0  0  0  0
    0.0000    0.0000    0.0000 H   0  0  0  0  0  0  0  0  0  0  0  0
    0.0000    0.0000    0.0000 H   0  0  0  0  0  0  0  0  0  0  0  0
    0.0000    0.0000    0.0000 H   0  0  0  0  0  0  0  0  0  0  0  0
    0.0000    0.0000    0.0000 H   0  0  0  0  0  0  0  0  0  0  0  0
    0.0000    0.0000    0.0000 H   0  0  0  0  0  0  0  0  0  0  0  0
    0.0000    0.0000    0.0000 H   0  0  0  0  0  0  0  0  0  0  0  0
    0.0000    0.0000    0.0000 H   0  0  0  0  0  0  0  0  0  0  0  0
    0.0000    0.0000    0.0000 H   0  0  0  0  0  0  0  0  0  0  0  0
    0.0000    0.0000    0.0000 H   0  0  0  0  0  0  0  0  0  0  0  0
    0.0000    0.0000    0.0000 H   0  0  0  0  0  0  0  0  0  0  0  0
    7.0790   -1.5558   -0.3768 N   0  0  0  0  0  0  0  0  0  0  0  0
    6.4595   -1.0135    0.8483 C   0  0  0  0  0  0  0  0  0  0  0  0
    6.6912   -2.0397    1.9168 C   0  0  0  0  0  0  0  0  0  0  0  0
    8.0339   -1.8542    2.5812 C   0  0  0  0  0  0  0  0  0  0  0  0
    7.9827   -0.5181    3.2617 C   0  0  0  0  0  0  0  0  0  0  0  0
    7.6574    0.6241    2.3693 C   0  0  0  0  0  0  0  0  0  0  0  0
    6.9185    0.3516    1.1370 C   0  0  0  0  0  0  0  0  0  0  0  0
    6.4151   -2.1731   -0.8956 H   0  0  0  0  0  0  0  0  0  0  0  0
    5.3511   -1.0503    0.6221 H   0  0  0  0  0  0  0  0  0  0  0  0
    6.6770   -3.0463    1.4528 H   0  0  0  0  0  0  0  0  0  0  0  0
    5.8817   -2.0136    2.6576 H   0  0  0  0  0  0  0  0  0  0  0  0
    8.8484   -1.8680    1.8603 H   0  0  0  0  0  0  0  0  0  0  0  0
    8.1248   -2.6294    3.3711 H   0  0  0  0  0  0  0  0  0  0  0  0
    8.9599   -0.3763    3.7765 H   0  0  0  0  0  0  0  0  0  0  0  0
    7.2309   -0.5801    4.1035 H   0  0  0  0  0  0  0  0  0  0  0  0
    7.1318    1.3921    3.0166 H   0  0  0  0  0  0  0  0  0  0  0  0
    8.6404    1.1398    2.1402 H   0  0  0  0  0  0  0  0  0  0  0  0
    7.5205    0.7052    0.2438 H   0  0  0  0  0  0  0  0  0  0  0  0
    6.0194    1.0399    1.0985 H   0  0  0  0  0  0  0  0  0  0  0  0
  1  2  1  0
  2  3  1  0
  2 19  1  0
  3  4  1  0
  3  5  2  0
  5  6  1  0
  6  7  1  0
  6 19  1  0
  7  8  2  0
  7 18  1  0
  8  9  1  0
  9 10  2  0
 10 11  1  0
 11 12  1  0
 11 18  2  0
 12 13  2  0
 12 17  1  0
 13 14  1  0
 14 15  2  0
 15 16  1  0
 16 17  2  0
 19 20  2  0
  1 21  1  0
  1 22  1  0
  1 23  1  0
  4 24  1  0
  4 25  1  0
  5 26  1  0
  8 27  1  0
  9 28  1  0
 10 29  1  0
 13 30  1  0
 14 31  1  0
 15 32  1  0
 17 33  1  0
 18 34  1  0
 35 36  1  0
 36 37  1  0
 37 38  1  0
 38 39  1  0
 39 40  1  0
 40 41  1  0
 41 36  1  0
 35 42  1  0
 36 43  1  0
 37 44  1  0
 37 45  1  0
 38 46  1  0
 38 47  1  0
 39 48  1  0
 39 49  1  0
 40 50  1  0
 40 51  1  0
 41 52  1  0
 41 53  1  0
  6 35  1  6
M  CHG  1   5   1
M  END
>  <attachment_point>  (82) 
26

>  <score>  (82) 
<NA>

$$$$
CAT-4j
     RDKit          3D

 37 39  0  0  1  0  0  0  0  0999 V2000
   11.7106   -2.3098    1.2658 C   0  0  0  0  0  0  0  0  0  0  0  0
   13.0313   -2.6523    0.7225 N   0  0  0  0  0  0  0  0  0  0  0  0
   14.2010   -2.6281    1.3773 C   0  0  0  0  0  0  0  0  0  0  0  0
   14.3777   -2.3568    2.6732 N   0  0  0  0  0  0  0  0  0  0  0  0
   15.2217   -2.9197    0.5738 N   0  0  0  0  0  0  0  0  0  0  0  0
   14.7965   -3.2519   -0.7875 C   0  0  1  0  0  0  0  0  0  0  0  0
   15.3794   -2.2443   -1.7949 C   0  0  0  0  0  0  0  0  0  0  0  0
   15.9522   -2.6550   -3.0208 C   0  0  0  0  0  0  0  0  0  0  0  0
   16.4340   -1.6937   -3.9273 C   0  0  0  0  0  0  0  0  0  0  0  0
   16.3364   -0.3224   -3.6308 C   0  0  0  0  0  0  0  0  0  0  0  0
   15.7943    0.1250   -2.4073 C   0  0  0  0  0  0  0  0  0  0  0  0
   15.6711    1.5693   -2.0915 C   0  0  0  0  0  0  0  0  0  0  0  0
   15.3832    2.0354   -0.7903 C   0  0  0  0  0  0  0  0  0  0  0  0
   15.3534    3.4188   -0.5357 C   0  0  0  0  0  0  0  0  0  0  0  0
   15.5968    4.3049   -1.5946 C   0  0  0  0  0  0  0  0  0  0  0  0
   15.8275    3.8920   -2.8511 N   0  0  0  0  0  0  0  0  0  0  0  0
   15.8598    2.5642   -3.0762 C   0  0  0  0  0  0  0  0  0  0  0  0
   15.3327   -0.8573   -1.5012 C   0  0  0  0  0  0  0  0  0  0  0  0
   13.2767   -3.0094   -0.6368 C   0  0  0  0  0  0  0  0  0  0  0  0
   12.3981   -3.0674   -1.5055 O   0  0  0  0  0  0  0  0  0  0  0  0
    0.0000    0.0000    0.0000 H   0  0  0  0  0  0  0  0  0  0  0  0
    0.0000    0.0000    0.0000 H   0  0  0  0  0  0  0  0  0  0  0  0
    0.0000    0.0000    0.0000 H   0  0  0  0  0  0  0  0  0  0  0  0
    0.0000    0.0000    0.0000 H   0  0  0  0  0  0  0  0  0  0  0  0
    0.0000    0.0000    0.0000 H   0  0  0  0  0  0  0  0  0  0  0  0
    0.0000    0.0000    0.0000 H   0  0  0  0  0  0  0  0  0  0  0  0
    0.0000    0.0000    0.0000 H   0  0  0  0  0  0  0  0  0  0  0  0
    0.0000    0.0000    0.0000 H   0  0  0  0  0  0  0  0  0  0  0  0
    0.0000    0.0000    0.0000 H   0  0  0  0  0  0  0  0  0  0  0  0
    0.0000    0.0000    0.0000 H   0  0  0  0  0  0  0  0  0  0  0  0
    0.0000    0.0000    0.0000 H   0  0  0  0  0  0  0  0  0  0  0  0
    0.0000    0.0000    0.0000 H   0  0  0  0  0  0  0  0  0  0  0  0
    0.0000    0.0000    0.0000 H   0  0  0  0  0  0  0  0  0  0  0  0
    0.0000    0.0000    0.0000 H   0  0  0  0  0  0  0  0  0  0  0  0
    6.8336   -1.5019   -0.3637 C   0  0  0  0  0  0  0  0  0  0  0  0
    6.2740   -2.4696   -0.5929 O   0  0  0  0  0  0  0  0  0  0  0  0
    6.8011   -0.5107   -0.1283 H   0  0  0  0  0  0  0  0  0  0  0  0
  1  2  1  0
  2  3  1  0
  2 19  1  0
  3  4  1  0
  3  5  2  0
  5  6  1  0
  6  7  1  0
  6 19  1  0
  7  8  2  0
  7 18  1  0
  8  9  1  0
  9 10  2  0
 10 11  1  0
 11 12  1  0
 11 18  2  0
 12 13  2  0
 12 17  1  0
 13 14  1  0
 14 15  2  0
 15 16  1  0
 16 17  2  0
 19 20  2  0
  1 21  1  0
  1 22  1  0
  1 23  1  0
  4 24  1  0
  4 25  1  0
  5 26  1  0
  8 27  1  0
  9 28  1  0
 10 29  1  0
 13 30  1  0
 14 31  1  0
 15 32  1  0
 17 33  1  0
 18 34  1  0
 35 36  2  0
 35 37  1  0
  6 35  1  6
M  CHG  1   5   1
M  END
>  <attachment_point>  (83) 
26

>  <score>  (83) 
<NA>

$$$$
CAT-4j
     RDKit          3D

 49 52  0  0  1  0  0  0  0  0999 V2000
   11.7106   -2.3098    1.2658 C   0  0  0  0  0  0  0  0  0  0  0  0
   13.0313   -2.6523    0.7225 N   0  0  0  0  0  0  0  0  0  0  0  0
   14.2010   -2.6281    1.3773 C   0  0  0  0  0  0  0  0  0  0  0  0
   14.3777   -2.3568    2.6732 N   0  0  0  0  0  0  0  0  0  0  0  0
   15.2217   -2.9197    0.5738 N   0  0  0  0  0  0  0  0  0  0  0  0
   14.7965   -3.2519   -0.7875 C   0  0  1  0  0  0  0  0  0  0  0  0
   15.3794   -2.2443   -1.7949 C   0  0  0  0  0  0  0  0  0  0  0  0
   15.9522   -2.6550   -3.0208 C   0  0  0  0  0  0  0  0  0  0  0  0
   16.4340   -1.6937   -3.9273 C   0  0  0  0  0  0  0  0  0  0  0  0
   16.3364   -0.3224   -3.6308 C   0  0  0  0  0  0  0  0  0  0  0  0
   15.7943    0.1250   -2.4073 C   0  0  0  0  0  0  0  0  0  0  0  0
   15.6711    1.5693   -2.0915 C   0  0  0  0  0  0  0  0  0  0  0  0
   15.3832    2.0354   -0.7903 C   0  0  0  0  0  0  0  0  0  0  0  0
   15.3534    3.4188   -0.5357 C   0  0  0  0  0  0  0  0  0  0  0  0
   15.5968    4.3049   -1.5946 C   0  0  0  0  0  0  0  0  0  0  0  0
   15.8275    3.8920   -2.8511 N   0  0  0  0  0  0  0  0  0  0  0  0
   15.8598    2.5642   -3.0762 C   0  0  0  0  0  0  0  0  0  0  0  0
   15.3327   -0.8573   -1.5012 C   0  0  0  0  0  0  0  0  0  0  0  0
   13.2767   -3.0094   -0.6368 C   0  0  0  0  0  0  0  0  0  0  0  0
   12.3981   -3.0674   -1.5055 O   0  0  0  0  0  0  0  0  0  0  0  0
    0.0000    0.0000    0.0000 H   0  0  0  0  0  0  0  0  0  0  0  0
    0.0000    0.0000    0.0000 H   0  0  0  0  0  0  0  0  0  0  0  0
    0.0000    0.0000    0.0000 H   0  0  0  0  0  0  0  0  0  0  0  0
    0.0000    0.0000    0.0000 H   0  0  0  0  0  0  0  0  0  0  0  0
    0.0000    0.0000    0.0000 H   0  0  0  0  0  0  0  0  0  0  0  0
    0.0000    0.0000    0.0000 H   0  0  0  0  0  0  0  0  0  0  0  0
    0.0000    0.0000    0.0000 H   0  0  0  0  0  0  0  0  0  0  0  0
    0.0000    0.0000    0.0000 H   0  0  0  0  0  0  0  0  0  0  0  0
    0.0000    0.0000    0.0000 H   0  0  0  0  0  0  0  0  0  0  0  0
    0.0000    0.0000    0.0000 H   0  0  0  0  0  0  0  0  0  0  0  0
    0.0000    0.0000    0.0000 H   0  0  0  0  0  0  0  0  0  0  0  0
    0.0000    0.0000    0.0000 H   0  0  0  0  0  0  0  0  0  0  0  0
    0.0000    0.0000    0.0000 H   0  0  0  0  0  0  0  0  0  0  0  0
    0.0000    0.0000    0.0000 H   0  0  0  0  0  0  0  0  0  0  0  0
    6.9777   -1.5335   -0.3714 C   0  0  0  0  0  0  0  0  0  0  0  0
    6.4173   -0.9086    0.6845 C   0  0  0  0  0  0  0  0  0  0  0  0
    5.0705   -0.6244    0.7351 C   0  0  0  0  0  0  0  0  0  0  0  0
    4.3181   -1.0103   -0.3508 C   0  0  0  0  0  0  0  0  0  0  0  0
    4.8597   -1.6336   -1.4107 C   0  0  0  0  0  0  0  0  0  0  0  0
    6.2594   -1.9618   -1.5273 C   0  0  0  0  0  0  0  0  0  0  0  0
    6.6947   -2.5208   -2.4860 O   0  0  0  0  0  0  0  0  0  0  0  0
    7.1985   -3.1688   -3.5977 C   0  0  0  0  0  0  0  0  0  0  0  0
    6.9946   -0.5880    1.5663 H   0  0  0  0  0  0  0  0  0  0  0  0
    4.6315   -0.1250    1.5848 H   0  0  0  0  0  0  0  0  0  0  0  0
    3.2500   -0.7693   -0.2747 H   0  0  0  0  0  0  0  0  0  0  0  0
    4.2357   -1.9215   -2.2547 H   0  0  0  0  0  0  0  0  0  0  0  0
    8.2189   -2.7441   -3.8214 H   0  0  0  0  0  0  0  0  0  0  0  0
    6.5607   -3.1121   -4.5104 H   0  0  0  0  0  0  0  0  0  0  0  0
    7.3576   -4.2427   -3.3841 H   0  0  0  0  0  0  0  0  0  0  0  0
  1  2  1  0
  2  3  1  0
  2 19  1  0
  3  4  1  0
  3  5  2  0
  5  6  1  0
  6  7  1  1
  6 19  1  0
  7  8  2  0
  7 18  1  0
  8  9  1  0
  9 10  2  0
 10 11  1  0
 11 12  1  0
 11 18  2  0
 12 13  2  0
 12 17  1  0
 13 14  1  0
 14 15  2  0
 15 16  1  0
 16 17  2  0
 19 20  2  0
  1 21  1  0
  1 22  1  0
  1 23  1  0
  4 24  1  0
  4 25  1  0
  5 26  1  0
  8 27  1  0
  9 28  1  0
 10 29  1  0
 13 30  1  0
 14 31  1  0
 15 32  1  0
 17 33  1  0
 18 34  1  0
 35 36  2  0
 36 37  1  0
 37 38  2  0
 38 39  1  0
 39 40  2  0
 40 41  1  0
 41 42  1  0
 40 35  1  0
 36 43  1  0
 37 44  1  0
 38 45  1  0
 39 46  1  0
 42 47  1  0
 42 48  1  0
 42 49  1  0
  6 35  1  0
M  CHG  1   5   1
M  END
>  <attachment_point>  (84) 
26

>  <score>  (84) 
<NA>

$$$$
CAT-4j
     RDKit          3D

 49 52  0  0  1  0  0  0  0  0999 V2000
   11.7106   -2.3098    1.2658 C   0  0  0  0  0  0  0  0  0  0  0  0
   13.0313   -2.6523    0.7225 N   0  0  0  0  0  0  0  0  0  0  0  0
   14.2010   -2.6281    1.3773 C   0  0  0  0  0  0  0  0  0  0  0  0
   14.3777   -2.3568    2.6732 N   0  0  0  0  0  0  0  0  0  0  0  0
   15.2217   -2.9197    0.5738 N   0  0  0  0  0  0  0  0  0  0  0  0
   14.7965   -3.2519   -0.7875 C   0  0  1  0  0  0  0  0  0  0  0  0
   15.3794   -2.2443   -1.7949 C   0  0  0  0  0  0  0  0  0  0  0  0
   15.9522   -2.6550   -3.0208 C   0  0  0  0  0  0  0  0  0  0  0  0
   16.4340   -1.6937   -3.9273 C   0  0  0  0  0  0  0  0  0  0  0  0
   16.3364   -0.3224   -3.6308 C   0  0  0  0  0  0  0  0  0  0  0  0
   15.7943    0.1250   -2.4073 C   0  0  0  0  0  0  0  0  0  0  0  0
   15.6711    1.5693   -2.0915 C   0  0  0  0  0  0  0  0  0  0  0  0
   15.3832    2.0354   -0.7903 C   0  0  0  0  0  0  0  0  0  0  0  0
   15.3534    3.4188   -0.5357 C   0  0  0  0  0  0  0  0  0  0  0  0
   15.5968    4.3049   -1.5946 C   0  0  0  0  0  0  0  0  0  0  0  0
   15.8275    3.8920   -2.8511 N   0  0  0  0  0  0  0  0  0  0  0  0
   15.8598    2.5642   -3.0762 C   0  0  0  0  0  0  0  0  0  0  0  0
   15.3327   -0.8573   -1.5012 C   0  0  0  0  0  0  0  0  0  0  0  0
   13.2767   -3.0094   -0.6368 C   0  0  0  0  0  0  0  0  0  0  0  0
   12.3981   -3.0674   -1.5055 O   0  0  0  0  0  0  0  0  0  0  0  0
    0.0000    0.0000    0.0000 H   0  0  0  0  0  0  0  0  0  0  0  0
    0.0000    0.0000    0.0000 H   0  0  0  0  0  0  0  0  0  0  0  0
    0.0000    0.0000    0.0000 H   0  0  0  0  0  0  0  0  0  0  0  0
    0.0000    0.0000    0.0000 H   0  0  0  0  0  0  0  0  0  0  0  0
    0.0000    0.0000    0.0000 H   0  0  0  0  0  0  0  0  0  0  0  0
    0.0000    0.0000    0.0000 H   0  0  0  0  0  0  0  0  0  0  0  0
    0.0000    0.0000    0.0000 H   0  0  0  0  0  0  0  0  0  0  0  0
    0.0000    0.0000    0.0000 H   0  0  0  0  0  0  0  0  0  0  0  0
    0.0000    0.0000    0.0000 H   0  0  0  0  0  0  0  0  0  0  0  0
    0.0000    0.0000    0.0000 H   0  0  0  0  0  0  0  0  0  0  0  0
    0.0000    0.0000    0.0000 H   0  0  0  0  0  0  0  0  0  0  0  0
    0.0000    0.0000    0.0000 H   0  0  0  0  0  0  0  0  0  0  0  0
    0.0000    0.0000    0.0000 H   0  0  0  0  0  0  0  0  0  0  0  0
    0.0000    0.0000    0.0000 H   0  0  0  0  0  0  0  0  0  0  0  0
    6.9716   -1.5322   -0.3710 C   0  0  0  0  0  0  0  0  0  0  0  0
    6.3959   -1.9457    0.6628 O   0  0  0  0  0  0  0  0  0  0  0  0
    6.2585   -0.8181   -1.3687 N   0  0  0  0  0  0  0  0  0  0  0  0
    4.8722   -0.5594   -1.2097 C   0  0  0  0  0  0  0  0  0  0  0  0
    3.9022   -1.4255   -1.6655 C   0  0  0  0  0  0  0  0  0  0  0  0
    2.5508   -1.1654   -1.5062 C   0  0  0  0  0  0  0  0  0  0  0  0
    2.1100   -0.0206   -0.8800 C   0  0  0  0  0  0  0  0  0  0  0  0
    3.0730    0.8484   -0.4225 C   0  0  0  0  0  0  0  0  0  0  0  0
    4.4293    0.5851   -0.5836 C   0  0  0  0  0  0  0  0  0  0  0  0
    6.7468   -0.4775   -2.2268 H   0  0  0  0  0  0  0  0  0  0  0  0
    4.2480   -2.3319   -2.1612 H   0  0  0  0  0  0  0  0  0  0  0  0
    1.8506   -1.8879   -1.8880 H   0  0  0  0  0  0  0  0  0  0  0  0
    1.0370    0.1880   -0.7524 H   0  0  0  0  0  0  0  0  0  0  0  0
    2.7483    1.7562    0.0737 H   0  0  0  0  0  0  0  0  0  0  0  0
    5.1778    1.2779   -0.2186 H   0  0  0  0  0  0  0  0  0  0  0  0
  1  2  1  0
  2  3  1  0
  2 19  1  0
  3  4  1  0
  3  5  2  0
  5  6  1  0
  6  7  1  0
  6 19  1  0
  7  8  2  0
  7 18  1  0
  8  9  1  0
  9 10  2  0
 10 11  1  0
 11 12  1  0
 11 18  2  0
 12 13  2  0
 12 17  1  0
 13 14  1  0
 14 15  2  0
 15 16  1  0
 16 17  2  0
 19 20  2  0
  1 21  1  0
  1 22  1  0
  1 23  1  0
  4 24  1  0
  4 25  1  0
  5 26  1  0
  8 27  1  0
  9 28  1  0
 10 29  1  0
 13 30  1  0
 14 31  1  0
 15 32  1  0
 17 33  1  0
 18 34  1  0
 35 36  2  0
 35 37  1  0
 37 38  1  0
 38 39  2  0
 39 40  1  0
 40 41  2  0
 41 42  1  0
 42 43  2  0
 43 38  1  0
 37 44  1  0
 39 45  1  0
 40 46  1  0
 41 47  1  0
 42 48  1  0
 43 49  1  0
  6 35  1  6
M  CHG  1   5   1
M  END
>  <attachment_point>  (85) 
26

>  <score>  (85) 
<NA>

$$$$
CAT-4j
     RDKit          3D

 48 50  0  0  1  0  0  0  0  0999 V2000
   11.7106   -2.3098    1.2658 C   0  0  0  0  0  0  0  0  0  0  0  0
   13.0313   -2.6523    0.7225 N   0  0  0  0  0  0  0  0  0  0  0  0
   14.2010   -2.6281    1.3773 C   0  0  0  0  0  0  0  0  0  0  0  0
   14.3777   -2.3568    2.6732 N   0  0  0  0  0  0  0  0  0  0  0  0
   15.2217   -2.9197    0.5738 N   0  0  0  0  0  0  0  0  0  0  0  0
   14.7965   -3.2519   -0.7875 C   0  0  1  0  0  0  0  0  0  0  0  0
   15.3794   -2.2443   -1.7949 C   0  0  0  0  0  0  0  0  0  0  0  0
   15.9522   -2.6550   -3.0208 C   0  0  0  0  0  0  0  0  0  0  0  0
   16.4340   -1.6937   -3.9273 C   0  0  0  0  0  0  0  0  0  0  0  0
   16.3364   -0.3224   -3.6308 C   0  0  0  0  0  0  0  0  0  0  0  0
   15.7943    0.1250   -2.4073 C   0  0  0  0  0  0  0  0  0  0  0  0
   15.6711    1.5693   -2.0915 C   0  0  0  0  0  0  0  0  0  0  0  0
   15.3832    2.0354   -0.7903 C   0  0  0  0  0  0  0  0  0  0  0  0
   15.3534    3.4188   -0.5357 C   0  0  0  0  0  0  0  0  0  0  0  0
   15.5968    4.3049   -1.5946 C   0  0  0  0  0  0  0  0  0  0  0  0
   15.8275    3.8920   -2.8511 N   0  0  0  0  0  0  0  0  0  0  0  0
   15.8598    2.5642   -3.0762 C   0  0  0  0  0  0  0  0  0  0  0  0
   15.3327   -0.8573   -1.5012 C   0  0  0  0  0  0  0  0  0  0  0  0
   13.2767   -3.0094   -0.6368 C   0  0  0  0  0  0  0  0  0  0  0  0
   12.3981   -3.0674   -1.5055 O   0  0  0  0  0  0  0  0  0  0  0  0
    0.0000    0.0000    0.0000 H   0  0  0  0  0  0  0  0  0  0  0  0
    0.0000    0.0000    0.0000 H   0  0  0  0  0  0  0  0  0  0  0  0
    0.0000    0.0000    0.0000 H   0  0  0  0  0  0  0  0  0  0  0  0
    0.0000    0.0000    0.0000 H   0  0  0  0  0  0  0  0  0  0  0  0
    0.0000    0.0000    0.0000 H   0  0  0  0  0  0  0  0  0  0  0  0
    0.0000    0.0000    0.0000 H   0  0  0  0  0  0  0  0  0  0  0  0
    0.0000    0.0000    0.0000 H   0  0  0  0  0  0  0  0  0  0  0  0
    0.0000    0.0000    0.0000 H   0  0  0  0  0  0  0  0  0  0  0  0
    0.0000    0.0000    0.0000 H   0  0  0  0  0  0  0  0  0  0  0  0
    0.0000    0.0000    0.0000 H   0  0  0  0  0  0  0  0  0  0  0  0
    0.0000    0.0000    0.0000 H   0  0  0  0  0  0  0  0  0  0  0  0
    0.0000    0.0000    0.0000 H   0  0  0  0  0  0  0  0  0  0  0  0
    0.0000    0.0000    0.0000 H   0  0  0  0  0  0  0  0  0  0  0  0
    0.0000    0.0000    0.0000 H   0  0  0  0  0  0  0  0  0  0  0  0
    7.0067   -1.5399   -0.3729 O   0  0  0  0  0  0  0  0  0  0  0  0
    6.3427   -2.7743   -0.1846 C   0  0  0  0  0  0  0  0  0  0  0  0
    4.8592   -2.5744   -0.0915 C   0  0  0  0  0  0  0  0  0  0  0  0
    4.2749   -1.9426   -1.3333 C   0  0  0  0  0  0  0  0  0  0  0  0
    2.7816   -1.7826   -1.1447 C   0  0  0  0  0  0  0  0  0  0  0  0
    6.6507   -3.5211   -0.9308 H   0  0  0  0  0  0  0  0  0  0  0  0
    6.7009   -3.1431    0.8007 H   0  0  0  0  0  0  0  0  0  0  0  0
    4.3866   -3.5611    0.0815 H   0  0  0  0  0  0  0  0  0  0  0  0
    4.6622   -1.9424    0.7918 H   0  0  0  0  0  0  0  0  0  0  0  0
    4.6843   -0.8963   -1.4247 H   0  0  0  0  0  0  0  0  0  0  0  0
    4.5504   -2.4574   -2.2524 H   0  0  0  0  0  0  0  0  0  0  0  0
    2.5675   -0.9126   -0.4808 H   0  0  0  0  0  0  0  0  0  0  0  0
    2.4080   -2.6753   -0.6079 H   0  0  0  0  0  0  0  0  0  0  0  0
    2.2626   -1.7069   -2.1153 H   0  0  0  0  0  0  0  0  0  0  0  0
  1  2  1  0
  2  3  1  0
  2 19  1  0
  3  4  1  0
  3  5  2  0
  5  6  1  0
  6  7  1  0
  6 19  1  0
  7  8  2  0
  7 18  1  0
  8  9  1  0
  9 10  2  0
 10 11  1  0
 11 12  1  0
 11 18  2  0
 12 13  2  0
 12 17  1  0
 13 14  1  0
 14 15  2  0
 15 16  1  0
 16 17  2  0
 19 20  2  0
  1 21  1  0
  1 22  1  0
  1 23  1  0
  4 24  1  0
  4 25  1  0
  5 26  1  0
  8 27  1  0
  9 28  1  0
 10 29  1  0
 13 30  1  0
 14 31  1  0
 15 32  1  0
 17 33  1  0
 18 34  1  0
 35 36  1  0
 36 37  1  0
 37 38  1  0
 38 39  1  0
 36 40  1  0
 36 41  1  0
 37 42  1  0
 37 43  1  0
 38 44  1  0
 38 45  1  0
 39 46  1  0
 39 47  1  0
 39 48  1  0
  6 35  1  6
M  CHG  1   5   1
M  END
>  <attachment_point>  (86) 
26

>  <score>  (86) 
<NA>

$$$$
CAT-4j
     RDKit          3D

 43 46  0  0  1  0  0  0  0  0999 V2000
   11.7106   -2.3098    1.2658 C   0  0  0  0  0  0  0  0  0  0  0  0
   13.0313   -2.6523    0.7225 N   0  0  0  0  0  0  0  0  0  0  0  0
   14.2010   -2.6281    1.3773 C   0  0  0  0  0  0  0  0  0  0  0  0
   14.3777   -2.3568    2.6732 N   0  0  0  0  0  0  0  0  0  0  0  0
   15.2217   -2.9197    0.5738 N   0  0  0  0  0  0  0  0  0  0  0  0
   14.7965   -3.2519   -0.7875 C   0  0  1  0  0  0  0  0  0  0  0  0
   15.3794   -2.2443   -1.7949 C   0  0  0  0  0  0  0  0  0  0  0  0
   15.9522   -2.6550   -3.0208 C   0  0  0  0  0  0  0  0  0  0  0  0
   16.4340   -1.6937   -3.9273 C   0  0  0  0  0  0  0  0  0  0  0  0
   16.3364   -0.3224   -3.6308 C   0  0  0  0  0  0  0  0  0  0  0  0
   15.7943    0.1250   -2.4073 C   0  0  0  0  0  0  0  0  0  0  0  0
   15.6711    1.5693   -2.0915 C   0  0  0  0  0  0  0  0  0  0  0  0
   15.3832    2.0354   -0.7903 C   0  0  0  0  0  0  0  0  0  0  0  0
   15.3534    3.4188   -0.5357 C   0  0  0  0  0  0  0  0  0  0  0  0
   15.5968    4.3049   -1.5946 C   0  0  0  0  0  0  0  0  0  0  0  0
   15.8275    3.8920   -2.8511 N   0  0  0  0  0  0  0  0  0  0  0  0
   15.8598    2.5642   -3.0762 C   0  0  0  0  0  0  0  0  0  0  0  0
   15.3327   -0.8573   -1.5012 C   0  0  0  0  0  0  0  0  0  0  0  0
   13.2767   -3.0094   -0.6368 C   0  0  0  0  0  0  0  0  0  0  0  0
   12.3981   -3.0674   -1.5055 O   0  0  0  0  0  0  0  0  0  0  0  0
    0.0000    0.0000    0.0000 H   0  0  0  0  0  0  0  0  0  0  0  0
    0.0000    0.0000    0.0000 H   0  0  0  0  0  0  0  0  0  0  0  0
    0.0000    0.0000    0.0000 H   0  0  0  0  0  0  0  0  0  0  0  0
    0.0000    0.0000    0.0000 H   0  0  0  0  0  0  0  0  0  0  0  0
    0.0000    0.0000    0.0000 H   0  0  0  0  0  0  0  0  0  0  0  0
    0.0000    0.0000    0.0000 H   0  0  0  0  0  0  0  0  0  0  0  0
    0.0000    0.0000    0.0000 H   0  0  0  0  0  0  0  0  0  0  0  0
    0.0000    0.0000    0.0000 H   0  0  0  0  0  0  0  0  0  0  0  0
    0.0000    0.0000    0.0000 H   0  0  0  0  0  0  0  0  0  0  0  0
    0.0000    0.0000    0.0000 H   0  0  0  0  0  0  0  0  0  0  0  0
    0.0000    0.0000    0.0000 H   0  0  0  0  0  0  0  0  0  0  0  0
    0.0000    0.0000    0.0000 H   0  0  0  0  0  0  0  0  0  0  0  0
    0.0000    0.0000    0.0000 H   0  0  0  0  0  0  0  0  0  0  0  0
    0.0000    0.0000    0.0000 H   0  0  0  0  0  0  0  0  0  0  0  0
    6.9812   -1.5343   -0.3716 C   0  0  0  0  0  0  0  0  0  0  0  0
    6.3189   -1.2114   -1.5346 C   0  0  0  0  0  0  0  0  0  0  0  0
    5.0172   -0.9257   -1.4634 N   0  0  0  0  0  0  0  0  0  0  0  0
    4.3778   -0.9578   -0.2627 C   0  0  0  0  0  0  0  0  0  0  0  0
    5.0461   -1.2821    0.9017 C   0  0  0  0  0  0  0  0  0  0  0  0
    6.3450   -1.5679    0.8338 N   0  0  0  0  0  0  0  0  0  0  0  0
    6.8931   -1.2064   -2.4515 H   0  0  0  0  0  0  0  0  0  0  0  0
    3.3163   -0.7191   -0.2430 H   0  0  0  0  0  0  0  0  0  0  0  0
    4.4708   -1.2872    1.8205 H   0  0  0  0  0  0  0  0  0  0  0  0
  1  2  1  0
  2  3  1  0
  2 19  1  0
  3  4  1  0
  3  5  2  0
  5  6  1  0
  6  7  1  1
  6 19  1  0
  7  8  2  0
  7 18  1  0
  8  9  1  0
  9 10  2  0
 10 11  1  0
 11 12  1  0
 11 18  2  0
 12 13  2  0
 12 17  1  0
 13 14  1  0
 14 15  2  0
 15 16  1  0
 16 17  2  0
 19 20  2  0
  1 21  1  0
  1 22  1  0
  1 23  1  0
  4 24  1  0
  4 25  1  0
  5 26  1  0
  8 27  1  0
  9 28  1  0
 10 29  1  0
 13 30  1  0
 14 31  1  0
 15 32  1  0
 17 33  1  0
 18 34  1  0
 35 36  2  0
 36 37  1  0
 37 38  2  0
 38 39  1  0
 39 40  2  0
 40 35  1  0
 36 41  1  0
 38 42  1  0
 39 43  1  0
  6 35  1  0
M  CHG  1   5   1
M  END
>  <attachment_point>  (87) 
26

>  <score>  (87) 
<NA>

$$$$
CAT-4j
     RDKit          3D

 51 55  0  0  1  0  0  0  0  0999 V2000
   11.7106   -2.3098    1.2658 C   0  0  0  0  0  0  0  0  0  0  0  0
   13.0313   -2.6523    0.7225 N   0  0  0  0  0  0  0  0  0  0  0  0
   14.2010   -2.6281    1.3773 C   0  0  0  0  0  0  0  0  0  0  0  0
   14.3777   -2.3568    2.6732 N   0  0  0  0  0  0  0  0  0  0  0  0
   15.2217   -2.9197    0.5738 N   0  0  0  0  0  0  0  0  0  0  0  0
   14.7965   -3.2519   -0.7875 C   0  0  1  0  0  0  0  0  0  0  0  0
   15.3794   -2.2443   -1.7949 C   0  0  0  0  0  0  0  0  0  0  0  0
   15.9522   -2.6550   -3.0208 C   0  0  0  0  0  0  0  0  0  0  0  0
   16.4340   -1.6937   -3.9273 C   0  0  0  0  0  0  0  0  0  0  0  0
   16.3364   -0.3224   -3.6308 C   0  0  0  0  0  0  0  0  0  0  0  0
   15.7943    0.1250   -2.4073 C   0  0  0  0  0  0  0  0  0  0  0  0
   15.6711    1.5693   -2.0915 C   0  0  0  0  0  0  0  0  0  0  0  0
   15.3832    2.0354   -0.7903 C   0  0  0  0  0  0  0  0  0  0  0  0
   15.3534    3.4188   -0.5357 C   0  0  0  0  0  0  0  0  0  0  0  0
   15.5968    4.3049   -1.5946 C   0  0  0  0  0  0  0  0  0  0  0  0
   15.8275    3.8920   -2.8511 N   0  0  0  0  0  0  0  0  0  0  0  0
   15.8598    2.5642   -3.0762 C   0  0  0  0  0  0  0  0  0  0  0  0
   15.3327   -0.8573   -1.5012 C   0  0  0  0  0  0  0  0  0  0  0  0
   13.2767   -3.0094   -0.6368 C   0  0  0  0  0  0  0  0  0  0  0  0
   12.3981   -3.0674   -1.5055 O   0  0  0  0  0  0  0  0  0  0  0  0
    0.0000    0.0000    0.0000 H   0  0  0  0  0  0  0  0  0  0  0  0
    0.0000    0.0000    0.0000 H   0  0  0  0  0  0  0  0  0  0  0  0
    0.0000    0.0000    0.0000 H   0  0  0  0  0  0  0  0  0  0  0  0
    0.0000    0.0000    0.0000 H   0  0  0  0  0  0  0  0  0  0  0  0
    0.0000    0.0000    0.0000 H   0  0  0  0  0  0  0  0  0  0  0  0
    0.0000    0.0000    0.0000 H   0  0  0  0  0  0  0  0  0  0  0  0
    0.0000    0.0000    0.0000 H   0  0  0  0  0  0  0  0  0  0  0  0
    0.0000    0.0000    0.0000 H   0  0  0  0  0  0  0  0  0  0  0  0
    0.0000    0.0000    0.0000 H   0  0  0  0  0  0  0  0  0  0  0  0
    0.0000    0.0000    0.0000 H   0  0  0  0  0  0  0  0  0  0  0  0
    0.0000    0.0000    0.0000 H   0  0  0  0  0  0  0  0  0  0  0  0
    0.0000    0.0000    0.0000 H   0  0  0  0  0  0  0  0  0  0  0  0
    0.0000    0.0000    0.0000 H   0  0  0  0  0  0  0  0  0  0  0  0
    0.0000    0.0000    0.0000 H   0  0  0  0  0  0  0  0  0  0  0  0
    6.9558   -1.5287   -0.3702 C   0  0  0  0  0  0  0  0  0  0  0  0
    6.5487   -0.2227   -0.3435 C   0  0  0  0  0  0  0  0  0  0  0  0
    5.2061    0.1113   -0.2719 C   0  0  0  0  0  0  0  0  0  0  0  0
    4.2983   -0.9365   -0.2288 C   0  0  0  0  0  0  0  0  0  0  0  0
    2.9344   -0.6706   -0.1563 C   0  0  0  0  0  0  0  0  0  0  0  0
    2.0270   -1.7107   -0.1131 C   0  0  0  0  0  0  0  0  0  0  0  0
    2.4142   -3.0312   -0.1388 C   0  0  0  0  0  0  0  0  0  0  0  0
    3.7646   -3.3007   -0.2106 C   0  0  0  0  0  0  0  0  0  0  0  0
    4.6851   -2.2600   -0.2544 C   0  0  0  0  0  0  0  0  0  0  0  0
    6.0362   -2.5528   -0.3264 C   0  0  0  0  0  0  0  0  0  0  0  0
    7.2772    0.5768   -0.3783 H   0  0  0  0  0  0  0  0  0  0  0  0
    4.8664    1.1389   -0.2499 H   0  0  0  0  0  0  0  0  0  0  0  0
    2.6464    0.3719   -0.1369 H   0  0  0  0  0  0  0  0  0  0  0  0
    0.9753   -1.5091   -0.0573 H   0  0  0  0  0  0  0  0  0  0  0  0
    1.6929   -3.8459   -0.1044 H   0  0  0  0  0  0  0  0  0  0  0  0
    4.1111   -4.3356   -0.2329 H   0  0  0  0  0  0  0  0  0  0  0  0
    6.3746   -3.5994   -0.3484 H   0  0  0  0  0  0  0  0  0  0  0  0
  1  2  1  0
  2  3  1  0
  2 19  1  0
  3  4  1  0
  3  5  2  0
  5  6  1  0
  6  7  1  1
  6 19  1  0
  7  8  2  0
  7 18  1  0
  8  9  1  0
  9 10  2  0
 10 11  1  0
 11 12  1  0
 11 18  2  0
 12 13  2  0
 12 17  1  0
 13 14  1  0
 14 15  2  0
 15 16  1  0
 16 17  2  0
 19 20  2  0
  1 21  1  0
  1 22  1  0
  1 23  1  0
  4 24  1  0
  4 25  1  0
  5 26  1  0
  8 27  1  0
  9 28  1  0
 10 29  1  0
 13 30  1  0
 14 31  1  0
 15 32  1  0
 17 33  1  0
 18 34  1  0
 35 36  2  0
 36 37  1  0
 37 38  2  0
 38 39  1  0
 39 40  2  0
 40 41  1  0
 41 42  2  0
 42 43  1  0
 43 44  2  0
 44 35  1  0
 43 38  1  0
 36 45  1  0
 37 46  1  0
 39 47  1  0
 40 48  1  0
 41 49  1  0
 42 50  1  0
 44 51  1  0
  6 35  1  0
M  CHG  1   5   1
M  END
>  <attachment_point>  (88) 
26

>  <score>  (88) 
<NA>

$$$$
CAT-4j
     RDKit          3D

 51 55  0  0  1  0  0  0  0  0999 V2000
   11.7106   -2.3098    1.2658 C   0  0  0  0  0  0  0  0  0  0  0  0
   13.0313   -2.6523    0.7225 N   0  0  0  0  0  0  0  0  0  0  0  0
   14.2010   -2.6281    1.3773 C   0  0  0  0  0  0  0  0  0  0  0  0
   14.3777   -2.3568    2.6732 N   0  0  0  0  0  0  0  0  0  0  0  0
   15.2217   -2.9197    0.5738 N   0  0  0  0  0  0  0  0  0  0  0  0
   14.7965   -3.2519   -0.7875 C   0  0  1  0  0  0  0  0  0  0  0  0
   15.3794   -2.2443   -1.7949 C   0  0  0  0  0  0  0  0  0  0  0  0
   15.9522   -2.6550   -3.0208 C   0  0  0  0  0  0  0  0  0  0  0  0
   16.4340   -1.6937   -3.9273 C   0  0  0  0  0  0  0  0  0  0  0  0
   16.3364   -0.3224   -3.6308 C   0  0  0  0  0  0  0  0  0  0  0  0
   15.7943    0.1250   -2.4073 C   0  0  0  0  0  0  0  0  0  0  0  0
   15.6711    1.5693   -2.0915 C   0  0  0  0  0  0  0  0  0  0  0  0
   15.3832    2.0354   -0.7903 C   0  0  0  0  0  0  0  0  0  0  0  0
   15.3534    3.4188   -0.5357 C   0  0  0  0  0  0  0  0  0  0  0  0
   15.5968    4.3049   -1.5946 C   0  0  0  0  0  0  0  0  0  0  0  0
   15.8275    3.8920   -2.8511 N   0  0  0  0  0  0  0  0  0  0  0  0
   15.8598    2.5642   -3.0762 C   0  0  0  0  0  0  0  0  0  0  0  0
   15.3327   -0.8573   -1.5012 C   0  0  0  0  0  0  0  0  0  0  0  0
   13.2767   -3.0094   -0.6368 C   0  0  0  0  0  0  0  0  0  0  0  0
   12.3981   -3.0674   -1.5055 O   0  0  0  0  0  0  0  0  0  0  0  0
    0.0000    0.0000    0.0000 H   0  0  0  0  0  0  0  0  0  0  0  0
    0.0000    0.0000    0.0000 H   0  0  0  0  0  0  0  0  0  0  0  0
    0.0000    0.0000    0.0000 H   0  0  0  0  0  0  0  0  0  0  0  0
    0.0000    0.0000    0.0000 H   0  0  0  0  0  0  0  0  0  0  0  0
    0.0000    0.0000    0.0000 H   0  0  0  0  0  0  0  0  0  0  0  0
    0.0000    0.0000    0.0000 H   0  0  0  0  0  0  0  0  0  0  0  0
    0.0000    0.0000    0.0000 H   0  0  0  0  0  0  0  0  0  0  0  0
    0.0000    0.0000    0.0000 H   0  0  0  0  0  0  0  0  0  0  0  0
    0.0000    0.0000    0.0000 H   0  0  0  0  0  0  0  0  0  0  0  0
    0.0000    0.0000    0.0000 H   0  0  0  0  0  0  0  0  0  0  0  0
    0.0000    0.0000    0.0000 H   0  0  0  0  0  0  0  0  0  0  0  0
    0.0000    0.0000    0.0000 H   0  0  0  0  0  0  0  0  0  0  0  0
    0.0000    0.0000    0.0000 H   0  0  0  0  0  0  0  0  0  0  0  0
    0.0000    0.0000    0.0000 H   0  0  0  0  0  0  0  0  0  0  0  0
    6.9658   -1.5309   -0.3707 C   0  0  0  0  0  0  0  0  0  0  0  0
    6.0721   -2.0615   -1.2765 C   0  0  0  0  0  0  0  0  0  0  0  0
    4.7207   -1.7503   -1.1859 C   0  0  0  0  0  0  0  0  0  0  0  0
    4.2948   -0.9080   -0.1814 C   0  0  0  0  0  0  0  0  0  0  0  0
    5.1644   -0.3569    0.7456 C   0  0  0  0  0  0  0  0  0  0  0  0
    4.7213    0.4902    1.7524 C   0  0  0  0  0  0  0  0  0  0  0  0
    5.5968    1.0331    2.6700 C   0  0  0  0  0  0  0  0  0  0  0  0
    6.9343    0.7009    2.5485 C   0  0  0  0  0  0  0  0  0  0  0  0
    7.3734   -0.1442    1.5436 C   0  0  0  0  0  0  0  0  0  0  0  0
    6.4993   -0.6855    0.6283 C   0  0  0  0  0  0  0  0  0  0  0  0
    6.4226   -2.7155   -2.0517 H   0  0  0  0  0  0  0  0  0  0  0  0
    4.0103   -2.1697   -1.9027 H   0  0  0  0  0  0  0  0  0  0  0  0
    3.2318   -0.6655   -0.1131 H   0  0  0  0  0  0  0  0  0  0  0  0
    3.6636    0.7410    1.8327 H   0  0  0  0  0  0  0  0  0  0  0  0
    5.2472    1.6999    3.4621 H   0  0  0  0  0  0  0  0  0  0  0  0
    7.6299    1.1058    3.2430 H   0  0  0  0  0  0  0  0  0  0  0  0
    8.4277   -0.4172    1.4332 H   0  0  0  0  0  0  0  0  0  0  0  0
  1  2  1  0
  2  3  1  0
  2 19  1  0
  3  4  1  0
  3  5  2  0
  5  6  1  0
  6  7  1  1
  6 19  1  0
  7  8  2  0
  7 18  1  0
  8  9  1  0
  9 10  2  0
 10 11  1  0
 11 12  1  0
 11 18  2  0
 12 13  2  0
 12 17  1  0
 13 14  1  0
 14 15  2  0
 15 16  1  0
 16 17  2  0
 19 20  2  0
  1 21  1  0
  1 22  1  0
  1 23  1  0
  4 24  1  0
  4 25  1  0
  5 26  1  0
  8 27  1  0
  9 28  1  0
 10 29  1  0
 13 30  1  0
 14 31  1  0
 15 32  1  0
 17 33  1  0
 18 34  1  0
 35 36  2  0
 36 37  1  0
 37 38  2  0
 38 39  1  0
 39 40  2  0
 40 41  1  0
 41 42  2  0
 42 43  1  0
 43 44  2  0
 44 35  1  0
 44 39  1  0
 36 45  1  0
 37 46  1  0
 38 47  1  0
 40 48  1  0
 41 49  1  0
 42 50  1  0
 43 51  1  0
  6 35  1  0
M  CHG  1   5   1
M  END
>  <attachment_point>  (89) 
26

>  <score>  (89) 
<NA>

$$$$
CAT-4j
     RDKit          3D

 46 49  0  0  1  0  0  0  0  0999 V2000
   11.7106   -2.3098    1.2658 C   0  0  0  0  0  0  0  0  0  0  0  0
   13.0313   -2.6523    0.7225 N   0  0  0  0  0  0  0  0  0  0  0  0
   14.2010   -2.6281    1.3773 C   0  0  0  0  0  0  0  0  0  0  0  0
   14.3777   -2.3568    2.6732 N   0  0  0  0  0  0  0  0  0  0  0  0
   15.2217   -2.9197    0.5738 N   0  0  0  0  0  0  0  0  0  0  0  0
   14.7965   -3.2519   -0.7875 C   0  0  1  0  0  0  0  0  0  0  0  0
   15.3794   -2.2443   -1.7949 C   0  0  0  0  0  0  0  0  0  0  0  0
   15.9522   -2.6550   -3.0208 C   0  0  0  0  0  0  0  0  0  0  0  0
   16.4340   -1.6937   -3.9273 C   0  0  0  0  0  0  0  0  0  0  0  0
   16.3364   -0.3224   -3.6308 C   0  0  0  0  0  0  0  0  0  0  0  0
   15.7943    0.1250   -2.4073 C   0  0  0  0  0  0  0  0  0  0  0  0
   15.6711    1.5693   -2.0915 C   0  0  0  0  0  0  0  0  0  0  0  0
   15.3832    2.0354   -0.7903 C   0  0  0  0  0  0  0  0  0  0  0  0
   15.3534    3.4188   -0.5357 C   0  0  0  0  0  0  0  0  0  0  0  0
   15.5968    4.3049   -1.5946 C   0  0  0  0  0  0  0  0  0  0  0  0
   15.8275    3.8920   -2.8511 N   0  0  0  0  0  0  0  0  0  0  0  0
   15.8598    2.5642   -3.0762 C   0  0  0  0  0  0  0  0  0  0  0  0
   15.3327   -0.8573   -1.5012 C   0  0  0  0  0  0  0  0  0  0  0  0
   13.2767   -3.0094   -0.6368 C   0  0  0  0  0  0  0  0  0  0  0  0
   12.3981   -3.0674   -1.5055 O   0  0  0  0  0  0  0  0  0  0  0  0
    0.0000    0.0000    0.0000 H   0  0  0  0  0  0  0  0  0  0  0  0
    0.0000    0.0000    0.0000 H   0  0  0  0  0  0  0  0  0  0  0  0
    0.0000    0.0000    0.0000 H   0  0  0  0  0  0  0  0  0  0  0  0
    0.0000    0.0000    0.0000 H   0  0  0  0  0  0  0  0  0  0  0  0
    0.0000    0.0000    0.0000 H   0  0  0  0  0  0  0  0  0  0  0  0
    0.0000    0.0000    0.0000 H   0  0  0  0  0  0  0  0  0  0  0  0
    0.0000    0.0000    0.0000 H   0  0  0  0  0  0  0  0  0  0  0  0
    0.0000    0.0000    0.0000 H   0  0  0  0  0  0  0  0  0  0  0  0
    0.0000    0.0000    0.0000 H   0  0  0  0  0  0  0  0  0  0  0  0
    0.0000    0.0000    0.0000 H   0  0  0  0  0  0  0  0  0  0  0  0
    0.0000    0.0000    0.0000 H   0  0  0  0  0  0  0  0  0  0  0  0
    0.0000    0.0000    0.0000 H   0  0  0  0  0  0  0  0  0  0  0  0
    0.0000    0.0000    0.0000 H   0  0  0  0  0  0  0  0  0  0  0  0
    0.0000    0.0000    0.0000 H   0  0  0  0  0  0  0  0  0  0  0  0
    6.9441   -1.5261   -0.3696 C   0  0  0  0  0  0  0  0  0  0  0  0
    6.2980   -1.9287    0.7260 C   0  0  0  0  0  0  0  0  0  0  0  0
    4.9409   -1.6372    0.8116 C   0  0  0  0  0  0  0  0  0  0  0  0
    4.3202   -0.9568   -0.2155 C   0  0  0  0  0  0  0  0  0  0  0  0
    4.9749   -0.5403   -1.3422 C   0  0  0  0  0  0  0  0  0  0  0  0
    4.3496    0.1690   -2.4235 C   0  0  0  0  0  0  0  0  0  0  0  0
    3.8243    0.7412   -3.2923 N   0  0  0  0  0  0  0  0  0  0  0  0
    6.3452   -0.8531   -1.3928 C   0  0  0  0  0  0  0  0  0  0  0  0
    6.7207   -2.4676    1.5727 H   0  0  0  0  0  0  0  0  0  0  0  0
    4.3800   -1.9487    1.6887 H   0  0  0  0  0  0  0  0  0  0  0  0
    3.2554   -0.7231   -0.1578 H   0  0  0  0  0  0  0  0  0  0  0  0
    6.9210   -0.5494   -2.2619 H   0  0  0  0  0  0  0  0  0  0  0  0
  1  2  1  0
  2  3  1  0
  2 19  1  0
  3  4  1  0
  3  5  2  0
  5  6  1  0
  6  7  1  1
  6 19  1  0
  7  8  2  0
  7 18  1  0
  8  9  1  0
  9 10  2  0
 10 11  1  0
 11 12  1  0
 11 18  2  0
 12 13  2  0
 12 17  1  0
 13 14  1  0
 14 15  2  0
 15 16  1  0
 16 17  2  0
 19 20  2  0
  1 21  1  0
  1 22  1  0
  1 23  1  0
  4 24  1  0
  4 25  1  0
  5 26  1  0
  8 27  1  0
  9 28  1  0
 10 29  1  0
 13 30  1  0
 14 31  1  0
 15 32  1  0
 17 33  1  0
 18 34  1  0
 35 36  2  0
 36 37  1  0
 37 38  2  0
 38 39  1  0
 39 40  1  0
 40 41  3  0
 39 42  2  0
 42 35  1  0
 36 43  1  0
 37 44  1  0
 38 45  1  0
 42 46  1  0
  6 35  1  0
M  CHG  1   5   1
M  END
>  <attachment_point>  (90) 
26

>  <score>  (90) 
<NA>

$$$$
CAT-4j
     RDKit          3D

 45 47  0  0  1  0  0  0  0  0999 V2000
   11.7106   -2.3098    1.2658 C   0  0  0  0  0  0  0  0  0  0  0  0
   13.0313   -2.6523    0.7225 N   0  0  0  0  0  0  0  0  0  0  0  0
   14.2010   -2.6281    1.3773 C   0  0  0  0  0  0  0  0  0  0  0  0
   14.3777   -2.3568    2.6732 N   0  0  0  0  0  0  0  0  0  0  0  0
   15.2217   -2.9197    0.5738 N   0  0  0  0  0  0  0  0  0  0  0  0
   14.7965   -3.2519   -0.7875 C   0  0  1  0  0  0  0  0  0  0  0  0
   15.3794   -2.2443   -1.7949 C   0  0  0  0  0  0  0  0  0  0  0  0
   15.9522   -2.6550   -3.0208 C   0  0  0  0  0  0  0  0  0  0  0  0
   16.4340   -1.6937   -3.9273 C   0  0  0  0  0  0  0  0  0  0  0  0
   16.3364   -0.3224   -3.6308 C   0  0  0  0  0  0  0  0  0  0  0  0
   15.7943    0.1250   -2.4073 C   0  0  0  0  0  0  0  0  0  0  0  0
   15.6711    1.5693   -2.0915 C   0  0  0  0  0  0  0  0  0  0  0  0
   15.3832    2.0354   -0.7903 C   0  0  0  0  0  0  0  0  0  0  0  0
   15.3534    3.4188   -0.5357 C   0  0  0  0  0  0  0  0  0  0  0  0
   15.5968    4.3049   -1.5946 C   0  0  0  0  0  0  0  0  0  0  0  0
   15.8275    3.8920   -2.8511 N   0  0  0  0  0  0  0  0  0  0  0  0
   15.8598    2.5642   -3.0762 C   0  0  0  0  0  0  0  0  0  0  0  0
   15.3327   -0.8573   -1.5012 C   0  0  0  0  0  0  0  0  0  0  0  0
   13.2767   -3.0094   -0.6368 C   0  0  0  0  0  0  0  0  0  0  0  0
   12.3981   -3.0674   -1.5055 O   0  0  0  0  0  0  0  0  0  0  0  0
    0.0000    0.0000    0.0000 H   0  0  0  0  0  0  0  0  0  0  0  0
    0.0000    0.0000    0.0000 H   0  0  0  0  0  0  0  0  0  0  0  0
    0.0000    0.0000    0.0000 H   0  0  0  0  0  0  0  0  0  0  0  0
    0.0000    0.0000    0.0000 H   0  0  0  0  0  0  0  0  0  0  0  0
    0.0000    0.0000    0.0000 H   0  0  0  0  0  0  0  0  0  0  0  0
    0.0000    0.0000    0.0000 H   0  0  0  0  0  0  0  0  0  0  0  0
    0.0000    0.0000    0.0000 H   0  0  0  0  0  0  0  0  0  0  0  0
    0.0000    0.0000    0.0000 H   0  0  0  0  0  0  0  0  0  0  0  0
    0.0000    0.0000    0.0000 H   0  0  0  0  0  0  0  0  0  0  0  0
    0.0000    0.0000    0.0000 H   0  0  0  0  0  0  0  0  0  0  0  0
    0.0000    0.0000    0.0000 H   0  0  0  0  0  0  0  0  0  0  0  0
    0.0000    0.0000    0.0000 H   0  0  0  0  0  0  0  0  0  0  0  0
    0.0000    0.0000    0.0000 H   0  0  0  0  0  0  0  0  0  0  0  0
    0.0000    0.0000    0.0000 H   0  0  0  0  0  0  0  0  0  0  0  0
    6.9739   -1.5327   -0.3712 O   0  0  0  0  0  0  0  0  0  0  0  0
    6.7974   -0.4821   -1.3014 C   0  0  0  0  0  0  0  0  0  0  0  0
    5.3222   -0.1258   -1.2531 C   0  0  0  0  0  0  0  0  0  0  0  0
    4.8785    0.3195    0.0913 C   0  0  0  0  0  0  0  0  0  0  0  0
    7.1144   -0.7637   -2.3043 H   0  0  0  0  0  0  0  0  0  0  0  0
    7.4189    0.3493   -0.9245 H   0  0  0  0  0  0  0  0  0  0  0  0
    4.7103   -0.9943   -1.5759 H   0  0  0  0  0  0  0  0  0  0  0  0
    5.1661    0.6511   -2.0457 H   0  0  0  0  0  0  0  0  0  0  0  0
    5.6803    0.7850    0.7120 H   0  0  0  0  0  0  0  0  0  0  0  0
    4.4745   -0.5173    0.7136 H   0  0  0  0  0  0  0  0  0  0  0  0
    4.0548    1.0774    0.0652 H   0  0  0  0  0  0  0  0  0  0  0  0
  1  2  1  0
  2  3  1  0
  2 19  1  0
  3  4  1  0
  3  5  2  0
  5  6  1  0
  6  7  1  0
  6 19  1  0
  7  8  2  0
  7 18  1  0
  8  9  1  0
  9 10  2  0
 10 11  1  0
 11 12  1  0
 11 18  2  0
 12 13  2  0
 12 17  1  0
 13 14  1  0
 14 15  2  0
 15 16  1  0
 16 17  2  0
 19 20  2  0
  1 21  1  0
  1 22  1  0
  1 23  1  0
  4 24  1  0
  4 25  1  0
  5 26  1  0
  8 27  1  0
  9 28  1  0
 10 29  1  0
 13 30  1  0
 14 31  1  0
 15 32  1  0
 17 33  1  0
 18 34  1  0
 35 36  1  0
 36 37  1  0
 37 38  1  0
 36 39  1  0
 36 40  1  0
 37 41  1  0
 37 42  1  0
 38 43  1  0
 38 44  1  0
 38 45  1  0
  6 35  1  6
M  CHG  1   5   1
M  END
>  <attachment_point>  (91) 
26

>  <score>  (91) 
<NA>

$$$$
CAT-4j
     RDKit          3D

 49 52  0  0  1  0  0  0  0  0999 V2000
   11.7106   -2.3098    1.2658 C   0  0  0  0  0  0  0  0  0  0  0  0
   13.0313   -2.6523    0.7225 N   0  0  0  0  0  0  0  0  0  0  0  0
   14.2010   -2.6281    1.3773 C   0  0  0  0  0  0  0  0  0  0  0  0
   14.3777   -2.3568    2.6732 N   0  0  0  0  0  0  0  0  0  0  0  0
   15.2217   -2.9197    0.5738 N   0  0  0  0  0  0  0  0  0  0  0  0
   14.7965   -3.2519   -0.7875 C   0  0  1  0  0  0  0  0  0  0  0  0
   15.3794   -2.2443   -1.7949 C   0  0  0  0  0  0  0  0  0  0  0  0
   15.9522   -2.6550   -3.0208 C   0  0  0  0  0  0  0  0  0  0  0  0
   16.4340   -1.6937   -3.9273 C   0  0  0  0  0  0  0  0  0  0  0  0
   16.3364   -0.3224   -3.6308 C   0  0  0  0  0  0  0  0  0  0  0  0
   15.7943    0.1250   -2.4073 C   0  0  0  0  0  0  0  0  0  0  0  0
   15.6711    1.5693   -2.0915 C   0  0  0  0  0  0  0  0  0  0  0  0
   15.3832    2.0354   -0.7903 C   0  0  0  0  0  0  0  0  0  0  0  0
   15.3534    3.4188   -0.5357 C   0  0  0  0  0  0  0  0  0  0  0  0
   15.5968    4.3049   -1.5946 C   0  0  0  0  0  0  0  0  0  0  0  0
   15.8275    3.8920   -2.8511 N   0  0  0  0  0  0  0  0  0  0  0  0
   15.8598    2.5642   -3.0762 C   0  0  0  0  0  0  0  0  0  0  0  0
   15.3327   -0.8573   -1.5012 C   0  0  0  0  0  0  0  0  0  0  0  0
   13.2767   -3.0094   -0.6368 C   0  0  0  0  0  0  0  0  0  0  0  0
   12.3981   -3.0674   -1.5055 O   0  0  0  0  0  0  0  0  0  0  0  0
    0.0000    0.0000    0.0000 H   0  0  0  0  0  0  0  0  0  0  0  0
    0.0000    0.0000    0.0000 H   0  0  0  0  0  0  0  0  0  0  0  0
    0.0000    0.0000    0.0000 H   0  0  0  0  0  0  0  0  0  0  0  0
    0.0000    0.0000    0.0000 H   0  0  0  0  0  0  0  0  0  0  0  0
    0.0000    0.0000    0.0000 H   0  0  0  0  0  0  0  0  0  0  0  0
    0.0000    0.0000    0.0000 H   0  0  0  0  0  0  0  0  0  0  0  0
    0.0000    0.0000    0.0000 H   0  0  0  0  0  0  0  0  0  0  0  0
    0.0000    0.0000    0.0000 H   0  0  0  0  0  0  0  0  0  0  0  0
    0.0000    0.0000    0.0000 H   0  0  0  0  0  0  0  0  0  0  0  0
    0.0000    0.0000    0.0000 H   0  0  0  0  0  0  0  0  0  0  0  0
    0.0000    0.0000    0.0000 H   0  0  0  0  0  0  0  0  0  0  0  0
    0.0000    0.0000    0.0000 H   0  0  0  0  0  0  0  0  0  0  0  0
    0.0000    0.0000    0.0000 H   0  0  0  0  0  0  0  0  0  0  0  0
    0.0000    0.0000    0.0000 H   0  0  0  0  0  0  0  0  0  0  0  0
    6.9680   -1.5314   -0.3708 N   0  0  0  0  0  0  0  0  0  0  0  0
    6.2978   -0.9261   -1.4329 C   0  0  0  0  0  0  0  0  0  0  0  0
    6.9862   -0.6601   -2.4696 O   0  0  0  0  0  0  0  0  0  0  0  0
    4.8784   -0.5923   -1.4102 C   0  0  0  0  0  0  0  0  0  0  0  0
    4.3032    0.0062   -2.5109 C   0  0  0  0  0  0  0  0  0  0  0  0
    2.9634    0.3408   -2.5359 C   0  0  0  0  0  0  0  0  0  0  0  0
    2.1540    0.0785   -1.4381 C   0  0  0  0  0  0  0  0  0  0  0  0
    2.7213   -0.5180   -0.3376 C   0  0  0  0  0  0  0  0  0  0  0  0
    4.0820   -0.8473   -0.3372 C   0  0  0  0  0  0  0  0  0  0  0  0
    6.4489   -1.7672    0.4951 H   0  0  0  0  0  0  0  0  0  0  0  0
    4.9370    0.2156   -3.3802 H   0  0  0  0  0  0  0  0  0  0  0  0
    2.5169    0.8163   -3.4166 H   0  0  0  0  0  0  0  0  0  0  0  0
    1.0987    0.3457   -1.4666 H   0  0  0  0  0  0  0  0  0  0  0  0
    2.1144   -0.7334    0.5304 H   0  0  0  0  0  0  0  0  0  0  0  0
    4.4646   -1.3116    0.5535 H   0  0  0  0  0  0  0  0  0  0  0  0
  1  2  1  0
  2  3  1  0
  2 19  1  0
  3  4  1  0
  3  5  2  0
  5  6  1  0
  6  7  1  0
  6 19  1  0
  7  8  2  0
  7 18  1  0
  8  9  1  0
  9 10  2  0
 10 11  1  0
 11 12  1  0
 11 18  2  0
 12 13  2  0
 12 17  1  0
 13 14  1  0
 14 15  2  0
 15 16  1  0
 16 17  2  0
 19 20  2  0
  1 21  1  0
  1 22  1  0
  1 23  1  0
  4 24  1  0
  4 25  1  0
  5 26  1  0
  8 27  1  0
  9 28  1  0
 10 29  1  0
 13 30  1  0
 14 31  1  0
 15 32  1  0
 17 33  1  0
 18 34  1  0
 35 36  1  0
 36 37  2  0
 36 38  1  0
 38 39  2  0
 39 40  1  0
 40 41  2  0
 41 42  1  0
 42 43  2  0
 43 38  1  0
 35 44  1  0
 39 45  1  0
 40 46  1  0
 41 47  1  0
 42 48  1  0
 43 49  1  0
  6 35  1  6
M  CHG  1   5   1
M  END
>  <attachment_point>  (92) 
26

>  <score>  (92) 
<NA>

$$$$
CAT-4j
     RDKit          3D

 45 48  0  0  1  0  0  0  0  0999 V2000
   11.7106   -2.3098    1.2658 C   0  0  0  0  0  0  0  0  0  0  0  0
   13.0313   -2.6523    0.7225 N   0  0  0  0  0  0  0  0  0  0  0  0
   14.2010   -2.6281    1.3773 C   0  0  0  0  0  0  0  0  0  0  0  0
   14.3777   -2.3568    2.6732 N   0  0  0  0  0  0  0  0  0  0  0  0
   15.2217   -2.9197    0.5738 N   0  0  0  0  0  0  0  0  0  0  0  0
   14.7965   -3.2519   -0.7875 C   0  0  1  0  0  0  0  0  0  0  0  0
   15.3794   -2.2443   -1.7949 C   0  0  0  0  0  0  0  0  0  0  0  0
   15.9522   -2.6550   -3.0208 C   0  0  0  0  0  0  0  0  0  0  0  0
   16.4340   -1.6937   -3.9273 C   0  0  0  0  0  0  0  0  0  0  0  0
   16.3364   -0.3224   -3.6308 C   0  0  0  0  0  0  0  0  0  0  0  0
   15.7943    0.1250   -2.4073 C   0  0  0  0  0  0  0  0  0  0  0  0
   15.6711    1.5693   -2.0915 C   0  0  0  0  0  0  0  0  0  0  0  0
   15.3832    2.0354   -0.7903 C   0  0  0  0  0  0  0  0  0  0  0  0
   15.3534    3.4188   -0.5357 C   0  0  0  0  0  0  0  0  0  0  0  0
   15.5968    4.3049   -1.5946 C   0  0  0  0  0  0  0  0  0  0  0  0
   15.8275    3.8920   -2.8511 N   0  0  0  0  0  0  0  0  0  0  0  0
   15.8598    2.5642   -3.0762 C   0  0  0  0  0  0  0  0  0  0  0  0
   15.3327   -0.8573   -1.5012 C   0  0  0  0  0  0  0  0  0  0  0  0
   13.2767   -3.0094   -0.6368 C   0  0  0  0  0  0  0  0  0  0  0  0
   12.3981   -3.0674   -1.5055 O   0  0  0  0  0  0  0  0  0  0  0  0
    0.0000    0.0000    0.0000 H   0  0  0  0  0  0  0  0  0  0  0  0
    0.0000    0.0000    0.0000 H   0  0  0  0  0  0  0  0  0  0  0  0
    0.0000    0.0000    0.0000 H   0  0  0  0  0  0  0  0  0  0  0  0
    0.0000    0.0000    0.0000 H   0  0  0  0  0  0  0  0  0  0  0  0
    0.0000    0.0000    0.0000 H   0  0  0  0  0  0  0  0  0  0  0  0
    0.0000    0.0000    0.0000 H   0  0  0  0  0  0  0  0  0  0  0  0
    0.0000    0.0000    0.0000 H   0  0  0  0  0  0  0  0  0  0  0  0
    0.0000    0.0000    0.0000 H   0  0  0  0  0  0  0  0  0  0  0  0
    0.0000    0.0000    0.0000 H   0  0  0  0  0  0  0  0  0  0  0  0
    0.0000    0.0000    0.0000 H   0  0  0  0  0  0  0  0  0  0  0  0
    0.0000    0.0000    0.0000 H   0  0  0  0  0  0  0  0  0  0  0  0
    0.0000    0.0000    0.0000 H   0  0  0  0  0  0  0  0  0  0  0  0
    0.0000    0.0000    0.0000 H   0  0  0  0  0  0  0  0  0  0  0  0
    0.0000    0.0000    0.0000 H   0  0  0  0  0  0  0  0  0  0  0  0
    6.9223   -1.5214   -0.3684 C   0  0  0  0  0  0  0  0  0  0  0  0
    6.3994   -0.3180   -0.0922 C   0  0  0  0  0  0  0  0  0  0  0  0
    5.0462   -0.4913   -0.1277 N   0  0  0  0  0  0  0  0  0  0  0  0
    4.7217   -1.7297   -0.4094 N   0  0  0  0  0  0  0  0  0  0  0  0
    3.4144   -2.3453   -0.5461 C   0  0  0  0  0  0  0  0  0  0  0  0
    5.9125   -2.3885   -0.5634 C   0  0  0  0  0  0  0  0  0  0  0  0
    6.8653    0.6417    0.1255 H   0  0  0  0  0  0  0  0  0  0  0  0
    2.8303   -2.3154    0.3922 H   0  0  0  0  0  0  0  0  0  0  0  0
    3.5175   -3.3493   -0.9638 H   0  0  0  0  0  0  0  0  0  0  0  0
    2.8344   -1.7145   -1.2818 H   0  0  0  0  0  0  0  0  0  0  0  0
    6.0090   -3.4424   -0.8043 H   0  0  0  0  0  0  0  0  0  0  0  0
  1  2  1  0
  2  3  1  0
  2 19  1  0
  3  4  1  0
  3  5  2  0
  5  6  1  0
  6  7  1  1
  6 19  1  0
  7  8  2  0
  7 18  1  0
  8  9  1  0
  9 10  2  0
 10 11  1  0
 11 12  1  0
 11 18  2  0
 12 13  2  0
 12 17  1  0
 13 14  1  0
 14 15  2  0
 15 16  1  0
 16 17  2  0
 19 20  2  0
  1 21  1  0
  1 22  1  0
  1 23  1  0
  4 24  1  0
  4 25  1  0
  5 26  1  0
  8 27  1  0
  9 28  1  0
 10 29  1  0
 13 30  1  0
 14 31  1  0
 15 32  1  0
 17 33  1  0
 18 34  1  0
 35 36  1  0
 36 37  2  0
 37 38  1  0
 38 39  1  0
 38 40  1  0
 40 35  2  0
 36 41  1  0
 39 42  1  0
 39 43  1  0
 39 44  1  0
 40 45  1  0
  6 35  1  0
M  CHG  1   5   1
M  END
>  <attachment_point>  (93) 
26

>  <score>  (93) 
<NA>

$$$$
CAT-4j
     RDKit          3D

 52 55  0  0  1  0  0  0  0  0999 V2000
   11.7106   -2.3098    1.2658 C   0  0  0  0  0  0  0  0  0  0  0  0
   13.0313   -2.6523    0.7225 N   0  0  0  0  0  0  0  0  0  0  0  0
   14.2010   -2.6281    1.3773 C   0  0  0  0  0  0  0  0  0  0  0  0
   14.3777   -2.3568    2.6732 N   0  0  0  0  0  0  0  0  0  0  0  0
   15.2217   -2.9197    0.5738 N   0  0  0  0  0  0  0  0  0  0  0  0
   14.7965   -3.2519   -0.7875 C   0  0  1  0  0  0  0  0  0  0  0  0
   15.3794   -2.2443   -1.7949 C   0  0  0  0  0  0  0  0  0  0  0  0
   15.9522   -2.6550   -3.0208 C   0  0  0  0  0  0  0  0  0  0  0  0
   16.4340   -1.6937   -3.9273 C   0  0  0  0  0  0  0  0  0  0  0  0
   16.3364   -0.3224   -3.6308 C   0  0  0  0  0  0  0  0  0  0  0  0
   15.7943    0.1250   -2.4073 C   0  0  0  0  0  0  0  0  0  0  0  0
   15.6711    1.5693   -2.0915 C   0  0  0  0  0  0  0  0  0  0  0  0
   15.3832    2.0354   -0.7903 C   0  0  0  0  0  0  0  0  0  0  0  0
   15.3534    3.4188   -0.5357 C   0  0  0  0  0  0  0  0  0  0  0  0
   15.5968    4.3049   -1.5946 C   0  0  0  0  0  0  0  0  0  0  0  0
   15.8275    3.8920   -2.8511 N   0  0  0  0  0  0  0  0  0  0  0  0
   15.8598    2.5642   -3.0762 C   0  0  0  0  0  0  0  0  0  0  0  0
   15.3327   -0.8573   -1.5012 C   0  0  0  0  0  0  0  0  0  0  0  0
   13.2767   -3.0094   -0.6368 C   0  0  0  0  0  0  0  0  0  0  0  0
   12.3981   -3.0674   -1.5055 O   0  0  0  0  0  0  0  0  0  0  0  0
    0.0000    0.0000    0.0000 H   0  0  0  0  0  0  0  0  0  0  0  0
    0.0000    0.0000    0.0000 H   0  0  0  0  0  0  0  0  0  0  0  0
    0.0000    0.0000    0.0000 H   0  0  0  0  0  0  0  0  0  0  0  0
    0.0000    0.0000    0.0000 H   0  0  0  0  0  0  0  0  0  0  0  0
    0.0000    0.0000    0.0000 H   0  0  0  0  0  0  0  0  0  0  0  0
    0.0000    0.0000    0.0000 H   0  0  0  0  0  0  0  0  0  0  0  0
    0.0000    0.0000    0.0000 H   0  0  0  0  0  0  0  0  0  0  0  0
    0.0000    0.0000    0.0000 H   0  0  0  0  0  0  0  0  0  0  0  0
    0.0000    0.0000    0.0000 H   0  0  0  0  0  0  0  0  0  0  0  0
    0.0000    0.0000    0.0000 H   0  0  0  0  0  0  0  0  0  0  0  0
    0.0000    0.0000    0.0000 H   0  0  0  0  0  0  0  0  0  0  0  0
    0.0000    0.0000    0.0000 H   0  0  0  0  0  0  0  0  0  0  0  0
    0.0000    0.0000    0.0000 H   0  0  0  0  0  0  0  0  0  0  0  0
    0.0000    0.0000    0.0000 H   0  0  0  0  0  0  0  0  0  0  0  0
    6.9318   -1.5234   -0.3689 C   0  0  0  0  0  0  0  0  0  0  0  0
    6.5481   -0.4221   -0.7624 O   0  0  0  0  0  0  0  0  0  0  0  0
    6.1370   -2.5435    0.1575 N   0  0  0  0  0  0  0  0  0  0  0  0
    4.7237   -2.4094    0.2983 C   0  0  0  0  0  0  0  0  0  0  0  0
    3.9829   -2.5507   -0.9857 C   0  0  0  0  0  0  0  0  0  0  0  0
    3.6560   -3.8615   -1.3510 C   0  0  0  0  0  0  0  0  0  0  0  0
    2.9643   -4.0687   -2.5254 C   0  0  0  0  0  0  0  0  0  0  0  0
    2.6161   -2.9860   -3.3026 C   0  0  0  0  0  0  0  0  0  0  0  0
    2.9414   -1.6941   -2.9368 C   0  0  0  0  0  0  0  0  0  0  0  0
    3.6345   -1.4894   -1.7592 C   0  0  0  0  0  0  0  0  0  0  0  0
    6.5921   -3.4257    0.4558 H   0  0  0  0  0  0  0  0  0  0  0  0
    4.2676   -3.1278    1.0091 H   0  0  0  0  0  0  0  0  0  0  0  0
    4.5026   -1.3653    0.6576 H   0  0  0  0  0  0  0  0  0  0  0  0
    3.9311   -4.7094   -0.7394 H   0  0  0  0  0  0  0  0  0  0  0  0
    2.6984   -5.0705   -2.8359 H   0  0  0  0  0  0  0  0  0  0  0  0
    2.0726   -3.1565   -4.2254 H   0  0  0  0  0  0  0  0  0  0  0  0
    2.6798   -0.8205   -3.5300 H   0  0  0  0  0  0  0  0  0  0  0  0
    3.9088   -0.4987   -1.4285 H   0  0  0  0  0  0  0  0  0  0  0  0
  1  2  1  0
  2  3  1  0
  2 19  1  0
  3  4  1  0
  3  5  2  0
  5  6  1  0
  6  7  1  0
  6 19  1  0
  7  8  2  0
  7 18  1  0
  8  9  1  0
  9 10  2  0
 10 11  1  0
 11 12  1  0
 11 18  2  0
 12 13  2  0
 12 17  1  0
 13 14  1  0
 14 15  2  0
 15 16  1  0
 16 17  2  0
 19 20  2  0
  1 21  1  0
  1 22  1  0
  1 23  1  0
  4 24  1  0
  4 25  1  0
  5 26  1  0
  8 27  1  0
  9 28  1  0
 10 29  1  0
 13 30  1  0
 14 31  1  0
 15 32  1  0
 17 33  1  0
 18 34  1  0
 35 36  2  0
 35 37  1  0
 37 38  1  0
 38 39  1  0
 39 40  2  0
 40 41  1  0
 41 42  2  0
 42 43  1  0
 43 44  2  0
 44 39  1  0
 37 45  1  0
 38 46  1  0
 38 47  1  0
 40 48  1  0
 41 49  1  0
 42 50  1  0
 43 51  1  0
 44 52  1  0
  6 35  1  6
M  CHG  1   5   1
M  END
>  <attachment_point>  (94) 
26

>  <score>  (94) 
<NA>

$$$$
CAT-4j
     RDKit          3D

 42 45  0  0  1  0  0  0  0  0999 V2000
   11.7106   -2.3098    1.2658 C   0  0  0  0  0  0  0  0  0  0  0  0
   13.0313   -2.6523    0.7225 N   0  0  0  0  0  0  0  0  0  0  0  0
   14.2010   -2.6281    1.3773 C   0  0  0  0  0  0  0  0  0  0  0  0
   14.3777   -2.3568    2.6732 N   0  0  0  0  0  0  0  0  0  0  0  0
   15.2217   -2.9197    0.5738 N   0  0  0  0  0  0  0  0  0  0  0  0
   14.7965   -3.2519   -0.7875 C   0  0  1  0  0  0  0  0  0  0  0  0
   15.3794   -2.2443   -1.7949 C   0  0  0  0  0  0  0  0  0  0  0  0
   15.9522   -2.6550   -3.0208 C   0  0  0  0  0  0  0  0  0  0  0  0
   16.4340   -1.6937   -3.9273 C   0  0  0  0  0  0  0  0  0  0  0  0
   16.3364   -0.3224   -3.6308 C   0  0  0  0  0  0  0  0  0  0  0  0
   15.7943    0.1250   -2.4073 C   0  0  0  0  0  0  0  0  0  0  0  0
   15.6711    1.5693   -2.0915 C   0  0  0  0  0  0  0  0  0  0  0  0
   15.3832    2.0354   -0.7903 C   0  0  0  0  0  0  0  0  0  0  0  0
   15.3534    3.4188   -0.5357 C   0  0  0  0  0  0  0  0  0  0  0  0
   15.5968    4.3049   -1.5946 C   0  0  0  0  0  0  0  0  0  0  0  0
   15.8275    3.8920   -2.8511 N   0  0  0  0  0  0  0  0  0  0  0  0
   15.8598    2.5642   -3.0762 C   0  0  0  0  0  0  0  0  0  0  0  0
   15.3327   -0.8573   -1.5012 C   0  0  0  0  0  0  0  0  0  0  0  0
   13.2767   -3.0094   -0.6368 C   0  0  0  0  0  0  0  0  0  0  0  0
   12.3981   -3.0674   -1.5055 O   0  0  0  0  0  0  0  0  0  0  0  0
    0.0000    0.0000    0.0000 H   0  0  0  0  0  0  0  0  0  0  0  0
    0.0000    0.0000    0.0000 H   0  0  0  0  0  0  0  0  0  0  0  0
    0.0000    0.0000    0.0000 H   0  0  0  0  0  0  0  0  0  0  0  0
    0.0000    0.0000    0.0000 H   0  0  0  0  0  0  0  0  0  0  0  0
    0.0000    0.0000    0.0000 H   0  0  0  0  0  0  0  0  0  0  0  0
    0.0000    0.0000    0.0000 H   0  0  0  0  0  0  0  0  0  0  0  0
    0.0000    0.0000    0.0000 H   0  0  0  0  0  0  0  0  0  0  0  0
    0.0000    0.0000    0.0000 H   0  0  0  0  0  0  0  0  0  0  0  0
    0.0000    0.0000    0.0000 H   0  0  0  0  0  0  0  0  0  0  0  0
    0.0000    0.0000    0.0000 H   0  0  0  0  0  0  0  0  0  0  0  0
    0.0000    0.0000    0.0000 H   0  0  0  0  0  0  0  0  0  0  0  0
    0.0000    0.0000    0.0000 H   0  0  0  0  0  0  0  0  0  0  0  0
    0.0000    0.0000    0.0000 H   0  0  0  0  0  0  0  0  0  0  0  0
    0.0000    0.0000    0.0000 H   0  0  0  0  0  0  0  0  0  0  0  0
    6.9441   -1.5261   -0.3696 N   0  0  0  0  0  0  0  0  0  0  0  0
    6.5502   -0.3969    0.1752 C   0  0  0  0  0  0  0  0  0  0  0  0
    5.1452   -0.4388    0.0737 C   0  0  0  0  0  0  0  0  0  0  0  0
    4.7973   -1.5882   -0.5236 N   0  0  0  0  0  0  0  0  0  0  0  0
    5.9424   -2.2424   -0.7867 C   0  0  0  0  0  0  0  0  0  0  0  0
    7.1660    0.3810    0.6012 H   0  0  0  0  0  0  0  0  0  0  0  0
    4.5139    0.3553    0.4366 H   0  0  0  0  0  0  0  0  0  0  0  0
    6.0008   -3.2081   -1.2684 H   0  0  0  0  0  0  0  0  0  0  0  0
  1  2  1  0
  2  3  1  0
  2 19  1  0
  3  4  1  0
  3  5  2  0
  5  6  1  0
  6  7  1  0
  6 19  1  0
  7  8  2  0
  7 18  1  0
  8  9  1  0
  9 10  2  0
 10 11  1  0
 11 12  1  0
 11 18  2  0
 12 13  2  0
 12 17  1  0
 13 14  1  0
 14 15  2  0
 15 16  1  0
 16 17  2  0
 19 20  2  0
  1 21  1  0
  1 22  1  0
  1 23  1  0
  4 24  1  0
  4 25  1  0
  5 26  1  0
  8 27  1  0
  9 28  1  0
 10 29  1  0
 13 30  1  0
 14 31  1  0
 15 32  1  0
 17 33  1  0
 18 34  1  0
 35 36  1  0
 36 37  2  0
 37 38  1  0
 38 39  2  0
 39 35  1  0
 36 40  1  0
 37 41  1  0
 39 42  1  0
  6 35  1  6
M  CHG  1   5   1
M  END
>  <attachment_point>  (95) 
26

>  <score>  (95) 
<NA>

$$$$
CAT-4j
     RDKit          3D

 46 48  0  0  1  0  0  0  0  0999 V2000
   11.7106   -2.3098    1.2658 C   0  0  0  0  0  0  0  0  0  0  0  0
   13.0313   -2.6523    0.7225 N   0  0  0  0  0  0  0  0  0  0  0  0
   14.2010   -2.6281    1.3773 C   0  0  0  0  0  0  0  0  0  0  0  0
   14.3777   -2.3568    2.6732 N   0  0  0  0  0  0  0  0  0  0  0  0
   15.2217   -2.9197    0.5738 N   0  0  0  0  0  0  0  0  0  0  0  0
   14.7965   -3.2519   -0.7875 C   0  0  1  0  0  0  0  0  0  0  0  0
   15.3794   -2.2443   -1.7949 C   0  0  0  0  0  0  0  0  0  0  0  0
   15.9522   -2.6550   -3.0208 C   0  0  0  0  0  0  0  0  0  0  0  0
   16.4340   -1.6937   -3.9273 C   0  0  0  0  0  0  0  0  0  0  0  0
   16.3364   -0.3224   -3.6308 C   0  0  0  0  0  0  0  0  0  0  0  0
   15.7943    0.1250   -2.4073 C   0  0  0  0  0  0  0  0  0  0  0  0
   15.6711    1.5693   -2.0915 C   0  0  0  0  0  0  0  0  0  0  0  0
   15.3832    2.0354   -0.7903 C   0  0  0  0  0  0  0  0  0  0  0  0
   15.3534    3.4188   -0.5357 C   0  0  0  0  0  0  0  0  0  0  0  0
   15.5968    4.3049   -1.5946 C   0  0  0  0  0  0  0  0  0  0  0  0
   15.8275    3.8920   -2.8511 N   0  0  0  0  0  0  0  0  0  0  0  0
   15.8598    2.5642   -3.0762 C   0  0  0  0  0  0  0  0  0  0  0  0
   15.3327   -0.8573   -1.5012 C   0  0  0  0  0  0  0  0  0  0  0  0
   13.2767   -3.0094   -0.6368 C   0  0  0  0  0  0  0  0  0  0  0  0
   12.3981   -3.0674   -1.5055 O   0  0  0  0  0  0  0  0  0  0  0  0
    0.0000    0.0000    0.0000 H   0  0  0  0  0  0  0  0  0  0  0  0
    0.0000    0.0000    0.0000 H   0  0  0  0  0  0  0  0  0  0  0  0
    0.0000    0.0000    0.0000 H   0  0  0  0  0  0  0  0  0  0  0  0
    0.0000    0.0000    0.0000 H   0  0  0  0  0  0  0  0  0  0  0  0
    0.0000    0.0000    0.0000 H   0  0  0  0  0  0  0  0  0  0  0  0
    0.0000    0.0000    0.0000 H   0  0  0  0  0  0  0  0  0  0  0  0
    0.0000    0.0000    0.0000 H   0  0  0  0  0  0  0  0  0  0  0  0
    0.0000    0.0000    0.0000 H   0  0  0  0  0  0  0  0  0  0  0  0
    0.0000    0.0000    0.0000 H   0  0  0  0  0  0  0  0  0  0  0  0
    0.0000    0.0000    0.0000 H   0  0  0  0  0  0  0  0  0  0  0  0
    0.0000    0.0000    0.0000 H   0  0  0  0  0  0  0  0  0  0  0  0
    0.0000    0.0000    0.0000 H   0  0  0  0  0  0  0  0  0  0  0  0
    0.0000    0.0000    0.0000 H   0  0  0  0  0  0  0  0  0  0  0  0
    0.0000    0.0000    0.0000 H   0  0  0  0  0  0  0  0  0  0  0  0
    6.9916   -1.5366   -0.3721 N   0  0  0  0  0  0  0  0  0  0  0  0
    6.4587   -1.9755    0.9003 C   0  0  0  0  0  0  0  0  0  0  0  0
    7.2036   -1.2533    1.9883 C   0  0  0  0  0  0  0  0  0  0  0  0
    6.6077   -3.4524    1.1224 C   0  0  0  0  0  0  0  0  0  0  0  0
    6.5005   -1.9723   -1.1825 H   0  0  0  0  0  0  0  0  0  0  0  0
    5.3991   -1.6476    0.9304 H   0  0  0  0  0  0  0  0  0  0  0  0
    8.0787   -1.8668    2.3262 H   0  0  0  0  0  0  0  0  0  0  0  0
    7.6327   -0.2959    1.6324 H   0  0  0  0  0  0  0  0  0  0  0  0
    6.5399   -1.1485    2.8575 H   0  0  0  0  0  0  0  0  0  0  0  0
    7.5635   -3.6875    1.6551 H   0  0  0  0  0  0  0  0  0  0  0  0
    6.5784   -4.0531    0.2071 H   0  0  0  0  0  0  0  0  0  0  0  0
    5.7962   -3.7490    1.8478 H   0  0  0  0  0  0  0  0  0  0  0  0
  1  2  1  0
  2  3  1  0
  2 19  1  0
  3  4  1  0
  3  5  2  0
  5  6  1  0
  6  7  1  0
  6 19  1  0
  7  8  2  0
  7 18  1  0
  8  9  1  0
  9 10  2  0
 10 11  1  0
 11 12  1  0
 11 18  2  0
 12 13  2  0
 12 17  1  0
 13 14  1  0
 14 15  2  0
 15 16  1  0
 16 17  2  0
 19 20  2  0
  1 21  1  0
  1 22  1  0
  1 23  1  0
  4 24  1  0
  4 25  1  0
  5 26  1  0
  8 27  1  0
  9 28  1  0
 10 29  1  0
 13 30  1  0
 14 31  1  0
 15 32  1  0
 17 33  1  0
 18 34  1  0
 35 36  1  0
 36 37  1  0
 36 38  1  0
 35 39  1  0
 36 40  1  0
 37 41  1  0
 37 42  1  0
 37 43  1  0
 38 44  1  0
 38 45  1  0
 38 46  1  0
  6 35  1  6
M  CHG  1   5   1
M  END
>  <attachment_point>  (96) 
26

>  <score>  (96) 
<NA>

$$$$
CAT-4j
     RDKit          3D

 48 52  0  0  1  0  0  0  0  0999 V2000
   11.7106   -2.3098    1.2658 C   0  0  0  0  0  0  0  0  0  0  0  0
   13.0313   -2.6523    0.7225 N   0  0  0  0  0  0  0  0  0  0  0  0
   14.2010   -2.6281    1.3773 C   0  0  0  0  0  0  0  0  0  0  0  0
   14.3777   -2.3568    2.6732 N   0  0  0  0  0  0  0  0  0  0  0  0
   15.2217   -2.9197    0.5738 N   0  0  0  0  0  0  0  0  0  0  0  0
   14.7965   -3.2519   -0.7875 C   0  0  1  0  0  0  0  0  0  0  0  0
   15.3794   -2.2443   -1.7949 C   0  0  0  0  0  0  0  0  0  0  0  0
   15.9522   -2.6550   -3.0208 C   0  0  0  0  0  0  0  0  0  0  0  0
   16.4340   -1.6937   -3.9273 C   0  0  0  0  0  0  0  0  0  0  0  0
   16.3364   -0.3224   -3.6308 C   0  0  0  0  0  0  0  0  0  0  0  0
   15.7943    0.1250   -2.4073 C   0  0  0  0  0  0  0  0  0  0  0  0
   15.6711    1.5693   -2.0915 C   0  0  0  0  0  0  0  0  0  0  0  0
   15.3832    2.0354   -0.7903 C   0  0  0  0  0  0  0  0  0  0  0  0
   15.3534    3.4188   -0.5357 C   0  0  0  0  0  0  0  0  0  0  0  0
   15.5968    4.3049   -1.5946 C   0  0  0  0  0  0  0  0  0  0  0  0
   15.8275    3.8920   -2.8511 N   0  0  0  0  0  0  0  0  0  0  0  0
   15.8598    2.5642   -3.0762 C   0  0  0  0  0  0  0  0  0  0  0  0
   15.3327   -0.8573   -1.5012 C   0  0  0  0  0  0  0  0  0  0  0  0
   13.2767   -3.0094   -0.6368 C   0  0  0  0  0  0  0  0  0  0  0  0
   12.3981   -3.0674   -1.5055 O   0  0  0  0  0  0  0  0  0  0  0  0
    0.0000    0.0000    0.0000 H   0  0  0  0  0  0  0  0  0  0  0  0
    0.0000    0.0000    0.0000 H   0  0  0  0  0  0  0  0  0  0  0  0
    0.0000    0.0000    0.0000 H   0  0  0  0  0  0  0  0  0  0  0  0
    0.0000    0.0000    0.0000 H   0  0  0  0  0  0  0  0  0  0  0  0
    0.0000    0.0000    0.0000 H   0  0  0  0  0  0  0  0  0  0  0  0
    0.0000    0.0000    0.0000 H   0  0  0  0  0  0  0  0  0  0  0  0
    0.0000    0.0000    0.0000 H   0  0  0  0  0  0  0  0  0  0  0  0
    0.0000    0.0000    0.0000 H   0  0  0  0  0  0  0  0  0  0  0  0
    0.0000    0.0000    0.0000 H   0  0  0  0  0  0  0  0  0  0  0  0
    0.0000    0.0000    0.0000 H   0  0  0  0  0  0  0  0  0  0  0  0
    0.0000    0.0000    0.0000 H   0  0  0  0  0  0  0  0  0  0  0  0
    0.0000    0.0000    0.0000 H   0  0  0  0  0  0  0  0  0  0  0  0
    0.0000    0.0000    0.0000 H   0  0  0  0  0  0  0  0  0  0  0  0
    0.0000    0.0000    0.0000 H   0  0  0  0  0  0  0  0  0  0  0  0
    6.9558   -1.5287   -0.3702 C   0  0  0  0  0  0  0  0  0  0  0  0
    6.0015   -2.5021   -0.3820 C   0  0  0  0  0  0  0  0  0  0  0  0
    4.6643   -2.1166   -0.3060 C   0  0  0  0  0  0  0  0  0  0  0  0
    4.2679   -0.8085   -0.2205 C   0  0  0  0  0  0  0  0  0  0  0  0
    5.2403    0.1621   -0.2095 C   0  0  0  0  0  0  0  0  0  0  0  0
    6.5884   -0.2086   -0.2851 C   0  0  0  0  0  0  0  0  0  0  0  0
    4.5923    1.3807   -0.1181 O   0  0  0  0  0  0  0  0  0  0  0  0
    3.1793    1.1803   -0.2149 C   0  0  0  0  0  0  0  0  0  0  0  0
    3.0122   -0.2236   -0.1373 O   0  0  0  0  0  0  0  0  0  0  0  0
    6.3096   -3.5242   -0.4489 H   0  0  0  0  0  0  0  0  0  0  0  0
    3.9162   -2.8746   -0.3151 H   0  0  0  0  0  0  0  0  0  0  0  0
    7.3342    0.5617   -0.2754 H   0  0  0  0  0  0  0  0  0  0  0  0
    2.8584    1.5921   -1.1991 H   0  0  0  0  0  0  0  0  0  0  0  0
    2.6358    1.6915    0.6060 H   0  0  0  0  0  0  0  0  0  0  0  0
  1  2  1  0
  2  3  1  0
  2 19  1  0
  3  4  1  0
  3  5  2  0
  5  6  1  0
  6  7  1  1
  6 19  1  0
  7  8  2  0
  7 18  1  0
  8  9  1  0
  9 10  2  0
 10 11  1  0
 11 12  1  0
 11 18  2  0
 12 13  2  0
 12 17  1  0
 13 14  1  0
 14 15  2  0
 15 16  1  0
 16 17  2  0
 19 20  2  0
  1 21  1  0
  1 22  1  0
  1 23  1  0
  4 24  1  0
  4 25  1  0
  5 26  1  0
  8 27  1  0
  9 28  1  0
 10 29  1  0
 13 30  1  0
 14 31  1  0
 15 32  1  0
 17 33  1  0
 18 34  1  0
 35 36  2  0
 36 37  1  0
 37 38  2  0
 38 39  1  0
 39 40  2  0
 39 41  1  0
 41 42  1  0
 42 43  1  0
 40 35  1  0
 43 38  1  0
 36 44  1  0
 37 45  1  0
 40 46  1  0
 42 47  1  0
 42 48  1  0
  6 35  1  0
M  CHG  1   5   1
M  END
>  <attachment_point>  (97) 
26

>  <score>  (97) 
<NA>

$$$$
CAT-4j
     RDKit          3D

 50 53  0  0  1  0  0  0  0  0999 V2000
   11.7106   -2.3098    1.2658 C   0  0  0  0  0  0  0  0  0  0  0  0
   13.0313   -2.6523    0.7225 N   0  0  0  0  0  0  0  0  0  0  0  0
   14.2010   -2.6281    1.3773 C   0  0  0  0  0  0  0  0  0  0  0  0
   14.3777   -2.3568    2.6732 N   0  0  0  0  0  0  0  0  0  0  0  0
   15.2217   -2.9197    0.5738 N   0  0  0  0  0  0  0  0  0  0  0  0
   14.7965   -3.2519   -0.7875 C   0  0  1  0  0  0  0  0  0  0  0  0
   15.3794   -2.2443   -1.7949 C   0  0  0  0  0  0  0  0  0  0  0  0
   15.9522   -2.6550   -3.0208 C   0  0  0  0  0  0  0  0  0  0  0  0
   16.4340   -1.6937   -3.9273 C   0  0  0  0  0  0  0  0  0  0  0  0
   16.3364   -0.3224   -3.6308 C   0  0  0  0  0  0  0  0  0  0  0  0
   15.7943    0.1250   -2.4073 C   0  0  0  0  0  0  0  0  0  0  0  0
   15.6711    1.5693   -2.0915 C   0  0  0  0  0  0  0  0  0  0  0  0
   15.3832    2.0354   -0.7903 C   0  0  0  0  0  0  0  0  0  0  0  0
   15.3534    3.4188   -0.5357 C   0  0  0  0  0  0  0  0  0  0  0  0
   15.5968    4.3049   -1.5946 C   0  0  0  0  0  0  0  0  0  0  0  0
   15.8275    3.8920   -2.8511 N   0  0  0  0  0  0  0  0  0  0  0  0
   15.8598    2.5642   -3.0762 C   0  0  0  0  0  0  0  0  0  0  0  0
   15.3327   -0.8573   -1.5012 C   0  0  0  0  0  0  0  0  0  0  0  0
   13.2767   -3.0094   -0.6368 C   0  0  0  0  0  0  0  0  0  0  0  0
   12.3981   -3.0674   -1.5055 O   0  0  0  0  0  0  0  0  0  0  0  0
    0.0000    0.0000    0.0000 H   0  0  0  0  0  0  0  0  0  0  0  0
    0.0000    0.0000    0.0000 H   0  0  0  0  0  0  0  0  0  0  0  0
    0.0000    0.0000    0.0000 H   0  0  0  0  0  0  0  0  0  0  0  0
    0.0000    0.0000    0.0000 H   0  0  0  0  0  0  0  0  0  0  0  0
    0.0000    0.0000    0.0000 H   0  0  0  0  0  0  0  0  0  0  0  0
    0.0000    0.0000    0.0000 H   0  0  0  0  0  0  0  0  0  0  0  0
    0.0000    0.0000    0.0000 H   0  0  0  0  0  0  0  0  0  0  0  0
    0.0000    0.0000    0.0000 H   0  0  0  0  0  0  0  0  0  0  0  0
    0.0000    0.0000    0.0000 H   0  0  0  0  0  0  0  0  0  0  0  0
    0.0000    0.0000    0.0000 H   0  0  0  0  0  0  0  0  0  0  0  0
    0.0000    0.0000    0.0000 H   0  0  0  0  0  0  0  0  0  0  0  0
    0.0000    0.0000    0.0000 H   0  0  0  0  0  0  0  0  0  0  0  0
    0.0000    0.0000    0.0000 H   0  0  0  0  0  0  0  0  0  0  0  0
    0.0000    0.0000    0.0000 H   0  0  0  0  0  0  0  0  0  0  0  0
    6.9801   -1.5341   -0.3715 C   0  0  0  0  0  0  0  0  0  0  0  0
    6.7270   -0.6090   -1.4536 N   0  0  0  0  0  0  0  0  0  0  0  0
    7.5595    0.5553   -1.2222 C   0  0  0  0  0  0  0  0  0  0  0  0
    8.9459   -0.0003   -1.4462 C   0  0  0  0  0  0  0  0  0  0  0  0
    8.7606   -0.9098   -2.6306 C   0  0  0  0  0  0  0  0  0  0  0  0
    7.2629   -1.1146   -2.7047 C   0  0  0  0  0  0  0  0  0  0  0  0
    6.3425   -2.4257   -0.4473 H   0  0  0  0  0  0  0  0  0  0  0  0
    6.7808   -1.0778    0.6199 H   0  0  0  0  0  0  0  0  0  0  0  0
    7.2847    1.3284   -1.9475 H   0  0  0  0  0  0  0  0  0  0  0  0
    7.4542    0.9449   -0.2010 H   0  0  0  0  0  0  0  0  0  0  0  0
    9.3122   -0.5115   -0.5487 H   0  0  0  0  0  0  0  0  0  0  0  0
    9.6078    0.8617   -1.6594 H   0  0  0  0  0  0  0  0  0  0  0  0
    9.1603   -0.3770   -3.5195 H   0  0  0  0  0  0  0  0  0  0  0  0
    9.2298   -1.8841   -2.5348 H   0  0  0  0  0  0  0  0  0  0  0  0
    6.9913   -2.1869   -2.7687 H   0  0  0  0  0  0  0  0  0  0  0  0
    6.8977   -0.5472   -3.5620 H   0  0  0  0  0  0  0  0  0  0  0  0
  1  2  1  0
  2  3  1  0
  2 19  1  0
  3  4  1  0
  3  5  2  0
  5  6  1  0
  6  7  1  0
  6 19  1  0
  7  8  2  0
  7 18  1  0
  8  9  1  0
  9 10  2  0
 10 11  1  0
 11 12  1  0
 11 18  2  0
 12 13  2  0
 12 17  1  0
 13 14  1  0
 14 15  2  0
 15 16  1  0
 16 17  2  0
 19 20  2  0
  1 21  1  0
  1 22  1  0
  1 23  1  0
  4 24  1  0
  4 25  1  0
  5 26  1  0
  8 27  1  0
  9 28  1  0
 10 29  1  0
 13 30  1  0
 14 31  1  0
 15 32  1  0
 17 33  1  0
 18 34  1  0
 35 36  1  0
 36 37  1  0
 37 38  1  0
 38 39  1  0
 39 40  1  0
 40 36  1  0
 35 41  1  0
 35 42  1  0
 37 43  1  0
 37 44  1  0
 38 45  1  0
 38 46  1  0
 39 47  1  0
 39 48  1  0
 40 49  1  0
 40 50  1  0
  6 35  1  6
M  CHG  1   5   1
M  END
>  <attachment_point>  (98) 
26

>  <score>  (98) 
<NA>

$$$$
CAT-4j
     RDKit          3D

 54 57  0  0  1  0  0  0  0  0999 V2000
   11.7106   -2.3098    1.2658 C   0  0  0  0  0  0  0  0  0  0  0  0
   13.0313   -2.6523    0.7225 N   0  0  0  0  0  0  0  0  0  0  0  0
   14.2010   -2.6281    1.3773 C   0  0  0  0  0  0  0  0  0  0  0  0
   14.3777   -2.3568    2.6732 N   0  0  0  0  0  0  0  0  0  0  0  0
   15.2217   -2.9197    0.5738 N   0  0  0  0  0  0  0  0  0  0  0  0
   14.7965   -3.2519   -0.7875 C   0  0  1  0  0  0  0  0  0  0  0  0
   15.3794   -2.2443   -1.7949 C   0  0  0  0  0  0  0  0  0  0  0  0
   15.9522   -2.6550   -3.0208 C   0  0  0  0  0  0  0  0  0  0  0  0
   16.4340   -1.6937   -3.9273 C   0  0  0  0  0  0  0  0  0  0  0  0
   16.3364   -0.3224   -3.6308 C   0  0  0  0  0  0  0  0  0  0  0  0
   15.7943    0.1250   -2.4073 C   0  0  0  0  0  0  0  0  0  0  0  0
   15.6711    1.5693   -2.0915 C   0  0  0  0  0  0  0  0  0  0  0  0
   15.3832    2.0354   -0.7903 C   0  0  0  0  0  0  0  0  0  0  0  0
   15.3534    3.4188   -0.5357 C   0  0  0  0  0  0  0  0  0  0  0  0
   15.5968    4.3049   -1.5946 C   0  0  0  0  0  0  0  0  0  0  0  0
   15.8275    3.8920   -2.8511 N   0  0  0  0  0  0  0  0  0  0  0  0
   15.8598    2.5642   -3.0762 C   0  0  0  0  0  0  0  0  0  0  0  0
   15.3327   -0.8573   -1.5012 C   0  0  0  0  0  0  0  0  0  0  0  0
   13.2767   -3.0094   -0.6368 C   0  0  0  0  0  0  0  0  0  0  0  0
   12.3981   -3.0674   -1.5055 O   0  0  0  0  0  0  0  0  0  0  0  0
    0.0000    0.0000    0.0000 H   0  0  0  0  0  0  0  0  0  0  0  0
    0.0000    0.0000    0.0000 H   0  0  0  0  0  0  0  0  0  0  0  0
    0.0000    0.0000    0.0000 H   0  0  0  0  0  0  0  0  0  0  0  0
    0.0000    0.0000    0.0000 H   0  0  0  0  0  0  0  0  0  0  0  0
    0.0000    0.0000    0.0000 H   0  0  0  0  0  0  0  0  0  0  0  0
    0.0000    0.0000    0.0000 H   0  0  0  0  0  0  0  0  0  0  0  0
    0.0000    0.0000    0.0000 H   0  0  0  0  0  0  0  0  0  0  0  0
    0.0000    0.0000    0.0000 H   0  0  0  0  0  0  0  0  0  0  0  0
    0.0000    0.0000    0.0000 H   0  0  0  0  0  0  0  0  0  0  0  0
    0.0000    0.0000    0.0000 H   0  0  0  0  0  0  0  0  0  0  0  0
    0.0000    0.0000    0.0000 H   0  0  0  0  0  0  0  0  0  0  0  0
    0.0000    0.0000    0.0000 H   0  0  0  0  0  0  0  0  0  0  0  0
    0.0000    0.0000    0.0000 H   0  0  0  0  0  0  0  0  0  0  0  0
    0.0000    0.0000    0.0000 H   0  0  0  0  0  0  0  0  0  0  0  0
    6.9972   -1.5378   -0.3724 C   0  0  0  0  0  0  0  0  0  0  0  0
    6.5615   -0.6892   -1.5450 C   0  0  0  0  0  0  0  0  0  0  0  0
    7.3384    0.5866   -1.5349 C   0  0  0  0  0  0  0  0  0  0  0  0
    6.8395    1.5907   -2.5212 C   0  0  0  0  0  0  0  0  0  0  0  0
    5.6469    1.1626   -3.3004 C   0  0  0  0  0  0  0  0  0  0  0  0
    4.5846    0.4810   -2.5146 C   0  0  0  0  0  0  0  0  0  0  0  0
    5.0849   -0.4364   -1.4459 C   0  0  0  0  0  0  0  0  0  0  0  0
    6.2946   -2.3682   -0.2825 H   0  0  0  0  0  0  0  0  0  0  0  0
    6.8743   -0.8825    0.5377 H   0  0  0  0  0  0  0  0  0  0  0  0
    6.7468   -1.2078   -2.5083 H   0  0  0  0  0  0  0  0  0  0  0  0
    7.3020    1.0303   -0.4957 H   0  0  0  0  0  0  0  0  0  0  0  0
    8.4147    0.3255   -1.6826 H   0  0  0  0  0  0  0  0  0  0  0  0
    6.7136    2.5838   -2.0212 H   0  0  0  0  0  0  0  0  0  0  0  0
    7.6758    1.7596   -3.2627 H   0  0  0  0  0  0  0  0  0  0  0  0
    5.1868    2.0951   -3.7425 H   0  0  0  0  0  0  0  0  0  0  0  0
    5.9856    0.5758   -4.1913 H   0  0  0  0  0  0  0  0  0  0  0  0
    3.9811   -0.1437   -3.2366 H   0  0  0  0  0  0  0  0  0  0  0  0
    3.8613    1.1943   -2.0809 H   0  0  0  0  0  0  0  0  0  0  0  0
    4.8564   -0.0533   -0.4283 H   0  0  0  0  0  0  0  0  0  0  0  0
    4.5827   -1.4430   -1.4949 H   0  0  0  0  0  0  0  0  0  0  0  0
  1  2  1  0
  2  3  1  0
  2 19  1  0
  3  4  1  0
  3  5  2  0
  5  6  1  0
  6  7  1  0
  6 19  1  0
  7  8  2  0
  7 18  1  0
  8  9  1  0
  9 10  2  0
 10 11  1  0
 11 12  1  0
 11 18  2  0
 12 13  2  0
 12 17  1  0
 13 14  1  0
 14 15  2  0
 15 16  1  0
 16 17  2  0
 19 20  2  0
  1 21  1  0
  1 22  1  0
  1 23  1  0
  4 24  1  0
  4 25  1  0
  5 26  1  0
  8 27  1  0
  9 28  1  0
 10 29  1  0
 13 30  1  0
 14 31  1  0
 15 32  1  0
 17 33  1  0
 18 34  1  0
 35 36  1  0
 36 37  1  0
 37 38  1  0
 38 39  1  0
 39 40  1  0
 40 41  1  0
 41 36  1  0
 35 42  1  0
 35 43  1  0
 36 44  1  0
 37 45  1  0
 37 46  1  0
 38 47  1  0
 38 48  1  0
 39 49  1  0
 39 50  1  0
 40 51  1  0
 40 52  1  0
 41 53  1  0
 41 54  1  0
  6 35  1  6
M  CHG  1   5   1
M  END
>  <attachment_point>  (99) 
26

>  <score>  (99) 
<NA>

$$$$
CAT-4j
     RDKit          3D

 37 39  0  0  1  0  0  0  0  0999 V2000
   11.7106   -2.3098    1.2658 C   0  0  0  0  0  0  0  0  0  0  0  0
   13.0313   -2.6523    0.7225 N   0  0  0  0  0  0  0  0  0  0  0  0
   14.2010   -2.6281    1.3773 C   0  0  0  0  0  0  0  0  0  0  0  0
   14.3777   -2.3568    2.6732 N   0  0  0  0  0  0  0  0  0  0  0  0
   15.2217   -2.9197    0.5738 N   0  0  0  0  0  0  0  0  0  0  0  0
   14.7965   -3.2519   -0.7875 C   0  0  1  0  0  0  0  0  0  0  0  0
   15.3794   -2.2443   -1.7949 C   0  0  0  0  0  0  0  0  0  0  0  0
   15.9522   -2.6550   -3.0208 C   0  0  0  0  0  0  0  0  0  0  0  0
   16.4340   -1.6937   -3.9273 C   0  0  0  0  0  0  0  0  0  0  0  0
   16.3364   -0.3224   -3.6308 C   0  0  0  0  0  0  0  0  0  0  0  0
   15.7943    0.1250   -2.4073 C   0  0  0  0  0  0  0  0  0  0  0  0
   15.6711    1.5693   -2.0915 C   0  0  0  0  0  0  0  0  0  0  0  0
   15.3832    2.0354   -0.7903 C   0  0  0  0  0  0  0  0  0  0  0  0
   15.3534    3.4188   -0.5357 C   0  0  0  0  0  0  0  0  0  0  0  0
   15.5968    4.3049   -1.5946 C   0  0  0  0  0  0  0  0  0  0  0  0
   15.8275    3.8920   -2.8511 N   0  0  0  0  0  0  0  0  0  0  0  0
   15.8598    2.5642   -3.0762 C   0  0  0  0  0  0  0  0  0  0  0  0
   15.3327   -0.8573   -1.5012 C   0  0  0  0  0  0  0  0  0  0  0  0
   13.2767   -3.0094   -0.6368 C   0  0  0  0  0  0  0  0  0  0  0  0
   12.3981   -3.0674   -1.5055 O   0  0  0  0  0  0  0  0  0  0  0  0
    0.0000    0.0000    0.0000 H   0  0  0  0  0  0  0  0  0  0  0  0
    0.0000    0.0000    0.0000 H   0  0  0  0  0  0  0  0  0  0  0  0
    0.0000    0.0000    0.0000 H   0  0  0  0  0  0  0  0  0  0  0  0
    0.0000    0.0000    0.0000 H   0  0  0  0  0  0  0  0  0  0  0  0
    0.0000    0.0000    0.0000 H   0  0  0  0  0  0  0  0  0  0  0  0
    0.0000    0.0000    0.0000 H   0  0  0  0  0  0  0  0  0  0  0  0
    0.0000    0.0000    0.0000 H   0  0  0  0  0  0  0  0  0  0  0  0
    0.0000    0.0000    0.0000 H   0  0  0  0  0  0  0  0  0  0  0  0
    0.0000    0.0000    0.0000 H   0  0  0  0  0  0  0  0  0  0  0  0
    0.0000    0.0000    0.0000 H   0  0  0  0  0  0  0  0  0  0  0  0
    0.0000    0.0000    0.0000 H   0  0  0  0  0  0  0  0  0  0  0  0
    0.0000    0.0000    0.0000 H   0  0  0  0  0  0  0  0  0  0  0  0
    0.0000    0.0000    0.0000 H   0  0  0  0  0  0  0  0  0  0  0  0
    0.0000    0.0000    0.0000 H   0  0  0  0  0  0  0  0  0  0  0  0
    6.9341   -1.5239   -0.3690 C   0  0  0  0  0  0  0  0  0  0  0  0
    5.7619   -1.2845   -0.3055 C   0  0  0  0  0  0  0  0  0  0  0  0
    4.7326   -1.0870   -0.2632 H   0  0  0  0  0  0  0  0  0  0  0  0
  1  2  1  0
  2  3  1  0
  2 19  1  0
  3  4  1  0
  3  5  2  0
  5  6  1  0
  6  7  1  0
  6 19  1  0
  7  8  2  0
  7 18  1  0
  8  9  1  0
  9 10  2  0
 10 11  1  0
 11 12  1  0
 11 18  2  0
 12 13  2  0
 12 17  1  0
 13 14  1  0
 14 15  2  0
 15 16  1  0
 16 17  2  0
 19 20  2  0
  1 21  1  0
  1 22  1  0
  1 23  1  0
  4 24  1  0
  4 25  1  0
  5 26  1  0
  8 27  1  0
  9 28  1  0
 10 29  1  0
 13 30  1  0
 14 31  1  0
 15 32  1  0
 17 33  1  0
 18 34  1  0
 35 36  3  0
 36 37  1  0
  6 35  1  6
M  CHG  1   5   1
M  END
>  <attachment_point>  (100) 
26

>  <score>  (100) 
<NA>

$$$$
CAT-4j
     RDKit          3D

 48 51  0  0  1  0  0  0  0  0999 V2000
   11.7106   -2.3098    1.2658 C   0  0  0  0  0  0  0  0  0  0  0  0
   13.0313   -2.6523    0.7225 N   0  0  0  0  0  0  0  0  0  0  0  0
   14.2010   -2.6281    1.3773 C   0  0  0  0  0  0  0  0  0  0  0  0
   14.3777   -2.3568    2.6732 N   0  0  0  0  0  0  0  0  0  0  0  0
   15.2217   -2.9197    0.5738 N   0  0  0  0  0  0  0  0  0  0  0  0
   14.7965   -3.2519   -0.7875 C   0  0  1  0  0  0  0  0  0  0  0  0
   15.3794   -2.2443   -1.7949 C   0  0  0  0  0  0  0  0  0  0  0  0
   15.9522   -2.6550   -3.0208 C   0  0  0  0  0  0  0  0  0  0  0  0
   16.4340   -1.6937   -3.9273 C   0  0  0  0  0  0  0  0  0  0  0  0
   16.3364   -0.3224   -3.6308 C   0  0  0  0  0  0  0  0  0  0  0  0
   15.7943    0.1250   -2.4073 C   0  0  0  0  0  0  0  0  0  0  0  0
   15.6711    1.5693   -2.0915 C   0  0  0  0  0  0  0  0  0  0  0  0
   15.3832    2.0354   -0.7903 C   0  0  0  0  0  0  0  0  0  0  0  0
   15.3534    3.4188   -0.5357 C   0  0  0  0  0  0  0  0  0  0  0  0
   15.5968    4.3049   -1.5946 C   0  0  0  0  0  0  0  0  0  0  0  0
   15.8275    3.8920   -2.8511 N   0  0  0  0  0  0  0  0  0  0  0  0
   15.8598    2.5642   -3.0762 C   0  0  0  0  0  0  0  0  0  0  0  0
   15.3327   -0.8573   -1.5012 C   0  0  0  0  0  0  0  0  0  0  0  0
   13.2767   -3.0094   -0.6368 C   0  0  0  0  0  0  0  0  0  0  0  0
   12.3981   -3.0674   -1.5055 O   0  0  0  0  0  0  0  0  0  0  0  0
    0.0000    0.0000    0.0000 H   0  0  0  0  0  0  0  0  0  0  0  0
    0.0000    0.0000    0.0000 H   0  0  0  0  0  0  0  0  0  0  0  0
    0.0000    0.0000    0.0000 H   0  0  0  0  0  0  0  0  0  0  0  0
    0.0000    0.0000    0.0000 H   0  0  0  0  0  0  0  0  0  0  0  0
    0.0000    0.0000    0.0000 H   0  0  0  0  0  0  0  0  0  0  0  0
    0.0000    0.0000    0.0000 H   0  0  0  0  0  0  0  0  0  0  0  0
    0.0000    0.0000    0.0000 H   0  0  0  0  0  0  0  0  0  0  0  0
    0.0000    0.0000    0.0000 H   0  0  0  0  0  0  0  0  0  0  0  0
    0.0000    0.0000    0.0000 H   0  0  0  0  0  0  0  0  0  0  0  0
    0.0000    0.0000    0.0000 H   0  0  0  0  0  0  0  0  0  0  0  0
    0.0000    0.0000    0.0000 H   0  0  0  0  0  0  0  0  0  0  0  0
    0.0000    0.0000    0.0000 H   0  0  0  0  0  0  0  0  0  0  0  0
    0.0000    0.0000    0.0000 H   0  0  0  0  0  0  0  0  0  0  0  0
    0.0000    0.0000    0.0000 H   0  0  0  0  0  0  0  0  0  0  0  0
    6.8692   -1.5097   -0.3656 C   0  0  0  0  0  0  0  0  0  0  0  0
    6.5406   -0.2730   -0.0563 C   0  0  0  0  0  0  0  0  0  0  0  0
    5.1498    0.0007    0.0099 C   0  0  0  0  0  0  0  0  0  0  0  0
    4.2679   -1.0275   -0.2494 C   0  0  0  0  0  0  0  0  0  0  0  0
    2.8794   -0.8048   -0.1961 O   0  0  0  0  0  0  0  0  0  0  0  0
    1.9988   -1.8698   -0.4645 C   0  0  0  0  0  0  0  0  0  0  0  0
    4.6665   -2.2733   -0.5608 N   0  0  0  0  0  0  0  0  0  0  0  0
    6.0348   -2.5126   -0.6183 C   0  0  0  0  0  0  0  0  0  0  0  0
    7.2277    0.5302    0.1462 H   0  0  0  0  0  0  0  0  0  0  0  0
    4.8253    0.9851    0.2560 H   0  0  0  0  0  0  0  0  0  0  0  0
    2.0627   -2.2497   -1.4947 H   0  0  0  0  0  0  0  0  0  0  0  0
    0.9666   -1.4816   -0.2366 H   0  0  0  0  0  0  0  0  0  0  0  0
    2.1302   -2.7240    0.2574 H   0  0  0  0  0  0  0  0  0  0  0  0
    6.4050   -3.4936   -0.8635 H   0  0  0  0  0  0  0  0  0  0  0  0
  1  2  1  0
  2  3  1  0
  2 19  1  0
  3  4  1  0
  3  5  2  0
  5  6  1  0
  6  7  1  1
  6 19  1  0
  7  8  2  0
  7 18  1  0
  8  9  1  0
  9 10  2  0
 10 11  1  0
 11 12  1  0
 11 18  2  0
 12 13  2  0
 12 17  1  0
 13 14  1  0
 14 15  2  0
 15 16  1  0
 16 17  2  0
 19 20  2  0
  1 21  1  0
  1 22  1  0
  1 23  1  0
  4 24  1  0
  4 25  1  0
  5 26  1  0
  8 27  1  0
  9 28  1  0
 10 29  1  0
 13 30  1  0
 14 31  1  0
 15 32  1  0
 17 33  1  0
 18 34  1  0
 35 36  2  0
 36 37  1  0
 37 38  2  0
 38 39  1  0
 39 40  1  0
 38 41  1  0
 41 42  2  0
 42 35  1  0
 36 43  1  0
 37 44  1  0
 40 45  1  0
 40 46  1  0
 40 47  1  0
 42 48  1  0
  6 35  1  0
M  CHG  1   5   1
M  END
>  <attachment_point>  (101) 
26

>  <score>  (101) 
<NA>

$$$$
CAT-4j
     RDKit          3D

 50 53  0  0  1  0  0  0  0  0999 V2000
   11.7106   -2.3098    1.2658 C   0  0  0  0  0  0  0  0  0  0  0  0
   13.0313   -2.6523    0.7225 N   0  0  0  0  0  0  0  0  0  0  0  0
   14.2010   -2.6281    1.3773 C   0  0  0  0  0  0  0  0  0  0  0  0
   14.3777   -2.3568    2.6732 N   0  0  0  0  0  0  0  0  0  0  0  0
   15.2217   -2.9197    0.5738 N   0  0  0  0  0  0  0  0  0  0  0  0
   14.7965   -3.2519   -0.7875 C   0  0  1  0  0  0  0  0  0  0  0  0
   15.3794   -2.2443   -1.7949 C   0  0  0  0  0  0  0  0  0  0  0  0
   15.9522   -2.6550   -3.0208 C   0  0  0  0  0  0  0  0  0  0  0  0
   16.4340   -1.6937   -3.9273 C   0  0  0  0  0  0  0  0  0  0  0  0
   16.3364   -0.3224   -3.6308 C   0  0  0  0  0  0  0  0  0  0  0  0
   15.7943    0.1250   -2.4073 C   0  0  0  0  0  0  0  0  0  0  0  0
   15.6711    1.5693   -2.0915 C   0  0  0  0  0  0  0  0  0  0  0  0
   15.3832    2.0354   -0.7903 C   0  0  0  0  0  0  0  0  0  0  0  0
   15.3534    3.4188   -0.5357 C   0  0  0  0  0  0  0  0  0  0  0  0
   15.5968    4.3049   -1.5946 C   0  0  0  0  0  0  0  0  0  0  0  0
   15.8275    3.8920   -2.8511 N   0  0  0  0  0  0  0  0  0  0  0  0
   15.8598    2.5642   -3.0762 C   0  0  0  0  0  0  0  0  0  0  0  0
   15.3327   -0.8573   -1.5012 C   0  0  0  0  0  0  0  0  0  0  0  0
   13.2767   -3.0094   -0.6368 C   0  0  0  0  0  0  0  0  0  0  0  0
   12.3981   -3.0674   -1.5055 O   0  0  0  0  0  0  0  0  0  0  0  0
    0.0000    0.0000    0.0000 H   0  0  0  0  0  0  0  0  0  0  0  0
    0.0000    0.0000    0.0000 H   0  0  0  0  0  0  0  0  0  0  0  0
    0.0000    0.0000    0.0000 H   0  0  0  0  0  0  0  0  0  0  0  0
    0.0000    0.0000    0.0000 H   0  0  0  0  0  0  0  0  0  0  0  0
    0.0000    0.0000    0.0000 H   0  0  0  0  0  0  0  0  0  0  0  0
    0.0000    0.0000    0.0000 H   0  0  0  0  0  0  0  0  0  0  0  0
    0.0000    0.0000    0.0000 H   0  0  0  0  0  0  0  0  0  0  0  0
    0.0000    0.0000    0.0000 H   0  0  0  0  0  0  0  0  0  0  0  0
    0.0000    0.0000    0.0000 H   0  0  0  0  0  0  0  0  0  0  0  0
    0.0000    0.0000    0.0000 H   0  0  0  0  0  0  0  0  0  0  0  0
    0.0000    0.0000    0.0000 H   0  0  0  0  0  0  0  0  0  0  0  0
    0.0000    0.0000    0.0000 H   0  0  0  0  0  0  0  0  0  0  0  0
    0.0000    0.0000    0.0000 H   0  0  0  0  0  0  0  0  0  0  0  0
    0.0000    0.0000    0.0000 H   0  0  0  0  0  0  0  0  0  0  0  0
    6.9976   -1.5379   -0.3724 C   0  0  0  0  0  0  0  0  0  0  0  0
    6.6111   -0.9321   -1.7175 C   0  0  0  0  0  0  0  0  0  0  0  0
    7.3696    0.3992   -1.7968 C   0  0  0  0  0  0  0  0  0  0  0  0
    6.7739    1.2354   -0.7946 N   0  0  0  0  0  0  0  0  0  0  0  0
    7.2400    0.8070    0.4943 C   0  0  0  0  0  0  0  0  0  0  0  0
    6.6594   -0.5787    0.7404 C   0  0  0  0  0  0  0  0  0  0  0  0
    6.3262   -2.4270   -0.2332 H   0  0  0  0  0  0  0  0  0  0  0  0
    5.5313   -0.6458   -1.7168 H   0  0  0  0  0  0  0  0  0  0  0  0
    6.8738   -1.5962   -2.5378 H   0  0  0  0  0  0  0  0  0  0  0  0
    7.1953    0.8101   -2.7900 H   0  0  0  0  0  0  0  0  0  0  0  0
    8.4324    0.1833   -1.5648 H   0  0  0  0  0  0  0  0  0  0  0  0
    6.8151    2.2384   -0.9704 H   0  0  0  0  0  0  0  0  0  0  0  0
    8.3437    0.8212    0.5999 H   0  0  0  0  0  0  0  0  0  0  0  0
    6.7914    1.4755    1.2522 H   0  0  0  0  0  0  0  0  0  0  0  0
    7.0311   -0.9893    1.6850 H   0  0  0  0  0  0  0  0  0  0  0  0
    5.5522   -0.4574    0.7339 H   0  0  0  0  0  0  0  0  0  0  0  0
  1  2  1  0
  2  3  1  0
  2 19  1  0
  3  4  1  0
  3  5  2  0
  5  6  1  0
  6  7  1  0
  6 19  1  0
  7  8  2  0
  7 18  1  0
  8  9  1  0
  9 10  2  0
 10 11  1  0
 11 12  1  0
 11 18  2  0
 12 13  2  0
 12 17  1  0
 13 14  1  0
 14 15  2  0
 15 16  1  0
 16 17  2  0
 19 20  2  0
  1 21  1  0
  1 22  1  0
  1 23  1  0
  4 24  1  0
  4 25  1  0
  5 26  1  0
  8 27  1  0
  9 28  1  0
 10 29  1  0
 13 30  1  0
 14 31  1  0
 15 32  1  0
 17 33  1  0
 18 34  1  0
 35 36  1  0
 36 37  1  0
 37 38  1  0
 38 39  1  0
 39 40  1  0
 40 35  1  0
 35 41  1  0
 36 42  1  0
 36 43  1  0
 37 44  1  0
 37 45  1  0
 38 46  1  0
 39 47  1  0
 39 48  1  0
 40 49  1  0
 40 50  1  0
  6 35  1  6
M  CHG  1   5   1
M  END
>  <attachment_point>  (102) 
26

>  <score>  (102) 
<NA>

$$$$
CAT-4j
     RDKit          3D

 49 51  0  0  1  0  0  0  0  0999 V2000
   11.7106   -2.3098    1.2658 C   0  0  0  0  0  0  0  0  0  0  0  0
   13.0313   -2.6523    0.7225 N   0  0  0  0  0  0  0  0  0  0  0  0
   14.2010   -2.6281    1.3773 C   0  0  0  0  0  0  0  0  0  0  0  0
   14.3777   -2.3568    2.6732 N   0  0  0  0  0  0  0  0  0  0  0  0
   15.2217   -2.9197    0.5738 N   0  0  0  0  0  0  0  0  0  0  0  0
   14.7965   -3.2519   -0.7875 C   0  0  1  0  0  0  0  0  0  0  0  0
   15.3794   -2.2443   -1.7949 C   0  0  0  0  0  0  0  0  0  0  0  0
   15.9522   -2.6550   -3.0208 C   0  0  0  0  0  0  0  0  0  0  0  0
   16.4340   -1.6937   -3.9273 C   0  0  0  0  0  0  0  0  0  0  0  0
   16.3364   -0.3224   -3.6308 C   0  0  0  0  0  0  0  0  0  0  0  0
   15.7943    0.1250   -2.4073 C   0  0  0  0  0  0  0  0  0  0  0  0
   15.6711    1.5693   -2.0915 C   0  0  0  0  0  0  0  0  0  0  0  0
   15.3832    2.0354   -0.7903 C   0  0  0  0  0  0  0  0  0  0  0  0
   15.3534    3.4188   -0.5357 C   0  0  0  0  0  0  0  0  0  0  0  0
   15.5968    4.3049   -1.5946 C   0  0  0  0  0  0  0  0  0  0  0  0
   15.8275    3.8920   -2.8511 N   0  0  0  0  0  0  0  0  0  0  0  0
   15.8598    2.5642   -3.0762 C   0  0  0  0  0  0  0  0  0  0  0  0
   15.3327   -0.8573   -1.5012 C   0  0  0  0  0  0  0  0  0  0  0  0
   13.2767   -3.0094   -0.6368 C   0  0  0  0  0  0  0  0  0  0  0  0
   12.3981   -3.0674   -1.5055 O   0  0  0  0  0  0  0  0  0  0  0  0
    0.0000    0.0000    0.0000 H   0  0  0  0  0  0  0  0  0  0  0  0
    0.0000    0.0000    0.0000 H   0  0  0  0  0  0  0  0  0  0  0  0
    0.0000    0.0000    0.0000 H   0  0  0  0  0  0  0  0  0  0  0  0
    0.0000    0.0000    0.0000 H   0  0  0  0  0  0  0  0  0  0  0  0
    0.0000    0.0000    0.0000 H   0  0  0  0  0  0  0  0  0  0  0  0
    0.0000    0.0000    0.0000 H   0  0  0  0  0  0  0  0  0  0  0  0
    0.0000    0.0000    0.0000 H   0  0  0  0  0  0  0  0  0  0  0  0
    0.0000    0.0000    0.0000 H   0  0  0  0  0  0  0  0  0  0  0  0
    0.0000    0.0000    0.0000 H   0  0  0  0  0  0  0  0  0  0  0  0
    0.0000    0.0000    0.0000 H   0  0  0  0  0  0  0  0  0  0  0  0
    0.0000    0.0000    0.0000 H   0  0  0  0  0  0  0  0  0  0  0  0
    0.0000    0.0000    0.0000 H   0  0  0  0  0  0  0  0  0  0  0  0
    0.0000    0.0000    0.0000 H   0  0  0  0  0  0  0  0  0  0  0  0
    0.0000    0.0000    0.0000 H   0  0  0  0  0  0  0  0  0  0  0  0
    6.9978   -1.5379   -0.3724 C   0  0  0  0  0  0  0  0  0  0  0  0
    6.6358   -0.1131   -0.7334 C   0  0  0  0  0  0  0  0  0  0  0  0
    7.0141    0.2546   -2.0504 N   0  0  0  0  0  0  0  0  0  0  0  0
    8.4403    0.3496   -2.2495 C   0  0  0  0  0  0  0  0  0  0  0  0
    6.3918   -0.5010   -3.0886 C   0  0  0  0  0  0  0  0  0  0  0  0
    6.4339   -2.2873   -0.9668 H   0  0  0  0  0  0  0  0  0  0  0  0
    6.7390   -1.7329    0.7173 H   0  0  0  0  0  0  0  0  0  0  0  0
    5.5323   -0.0159   -0.6509 H   0  0  0  0  0  0  0  0  0  0  0  0
    7.0486    0.5706    0.0256 H   0  0  0  0  0  0  0  0  0  0  0  0
    8.8574    1.2973   -1.8158 H   0  0  0  0  0  0  0  0  0  0  0  0
    8.9840   -0.5335   -1.8862 H   0  0  0  0  0  0  0  0  0  0  0  0
    8.6085    0.4373   -3.3485 H   0  0  0  0  0  0  0  0  0  0  0  0
    6.5780   -0.0266   -4.0754 H   0  0  0  0  0  0  0  0  0  0  0  0
    5.2975   -0.5128   -2.9458 H   0  0  0  0  0  0  0  0  0  0  0  0
    6.7238   -1.5693   -3.1006 H   0  0  0  0  0  0  0  0  0  0  0  0
  1  2  1  0
  2  3  1  0
  2 19  1  0
  3  4  1  0
  3  5  2  0
  5  6  1  0
  6  7  1  0
  6 19  1  0
  7  8  2  0
  7 18  1  0
  8  9  1  0
  9 10  2  0
 10 11  1  0
 11 12  1  0
 11 18  2  0
 12 13  2  0
 12 17  1  0
 13 14  1  0
 14 15  2  0
 15 16  1  0
 16 17  2  0
 19 20  2  0
  1 21  1  0
  1 22  1  0
  1 23  1  0
  4 24  1  0
  4 25  1  0
  5 26  1  0
  8 27  1  0
  9 28  1  0
 10 29  1  0
 13 30  1  0
 14 31  1  0
 15 32  1  0
 17 33  1  0
 18 34  1  0
 35 36  1  0
 36 37  1  0
 37 38  1  0
 37 39  1  0
 35 40  1  0
 35 41  1  0
 36 42  1  0
 36 43  1  0
 38 44  1  0
 38 45  1  0
 38 46  1  0
 39 47  1  0
 39 48  1  0
 39 49  1  0
  6 35  1  6
M  CHG  1   5   1
M  END
>  <attachment_point>  (103) 
26

>  <score>  (103) 
<NA>

$$$$
CAT-4j
     RDKit          3D

 41 44  0  0  1  0  0  0  0  0999 V2000
   11.7106   -2.3098    1.2658 C   0  0  0  0  0  0  0  0  0  0  0  0
   13.0313   -2.6523    0.7225 N   0  0  0  0  0  0  0  0  0  0  0  0
   14.2010   -2.6281    1.3773 C   0  0  0  0  0  0  0  0  0  0  0  0
   14.3777   -2.3568    2.6732 N   0  0  0  0  0  0  0  0  0  0  0  0
   15.2217   -2.9197    0.5738 N   0  0  0  0  0  0  0  0  0  0  0  0
   14.7965   -3.2519   -0.7875 C   0  0  1  0  0  0  0  0  0  0  0  0
   15.3794   -2.2443   -1.7949 C   0  0  0  0  0  0  0  0  0  0  0  0
   15.9522   -2.6550   -3.0208 C   0  0  0  0  0  0  0  0  0  0  0  0
   16.4340   -1.6937   -3.9273 C   0  0  0  0  0  0  0  0  0  0  0  0
   16.3364   -0.3224   -3.6308 C   0  0  0  0  0  0  0  0  0  0  0  0
   15.7943    0.1250   -2.4073 C   0  0  0  0  0  0  0  0  0  0  0  0
   15.6711    1.5693   -2.0915 C   0  0  0  0  0  0  0  0  0  0  0  0
   15.3832    2.0354   -0.7903 C   0  0  0  0  0  0  0  0  0  0  0  0
   15.3534    3.4188   -0.5357 C   0  0  0  0  0  0  0  0  0  0  0  0
   15.5968    4.3049   -1.5946 C   0  0  0  0  0  0  0  0  0  0  0  0
   15.8275    3.8920   -2.8511 N   0  0  0  0  0  0  0  0  0  0  0  0
   15.8598    2.5642   -3.0762 C   0  0  0  0  0  0  0  0  0  0  0  0
   15.3327   -0.8573   -1.5012 C   0  0  0  0  0  0  0  0  0  0  0  0
   13.2767   -3.0094   -0.6368 C   0  0  0  0  0  0  0  0  0  0  0  0
   12.3981   -3.0674   -1.5055 O   0  0  0  0  0  0  0  0  0  0  0  0
    0.0000    0.0000    0.0000 H   0  0  0  0  0  0  0  0  0  0  0  0
    0.0000    0.0000    0.0000 H   0  0  0  0  0  0  0  0  0  0  0  0
    0.0000    0.0000    0.0000 H   0  0  0  0  0  0  0  0  0  0  0  0
    0.0000    0.0000    0.0000 H   0  0  0  0  0  0  0  0  0  0  0  0
    0.0000    0.0000    0.0000 H   0  0  0  0  0  0  0  0  0  0  0  0
    0.0000    0.0000    0.0000 H   0  0  0  0  0  0  0  0  0  0  0  0
    0.0000    0.0000    0.0000 H   0  0  0  0  0  0  0  0  0  0  0  0
    0.0000    0.0000    0.0000 H   0  0  0  0  0  0  0  0  0  0  0  0
    0.0000    0.0000    0.0000 H   0  0  0  0  0  0  0  0  0  0  0  0
    0.0000    0.0000    0.0000 H   0  0  0  0  0  0  0  0  0  0  0  0
    0.0000    0.0000    0.0000 H   0  0  0  0  0  0  0  0  0  0  0  0
    0.0000    0.0000    0.0000 H   0  0  0  0  0  0  0  0  0  0  0  0
    0.0000    0.0000    0.0000 H   0  0  0  0  0  0  0  0  0  0  0  0
    0.0000    0.0000    0.0000 H   0  0  0  0  0  0  0  0  0  0  0  0
    6.9632   -1.5303   -0.3706 C   0  0  0  0  0  0  0  0  0  0  0  0
    6.0401   -2.0493   -1.1249 N   0  0  0  0  0  0  0  0  0  0  0  0
    4.8051   -1.7014   -0.9739 C   0  0  0  0  0  0  0  0  0  0  0  0
    4.5092   -0.7800   -0.0048 C   0  0  0  0  0  0  0  0  0  0  0  0
    6.0857   -0.4717    0.6401 S   0  0  0  0  0  0  0  0  0  0  0  0
    3.9865   -2.1173   -1.5937 H   0  0  0  0  0  0  0  0  0  0  0  0
    3.5510   -0.3576    0.2821 H   0  0  0  0  0  0  0  0  0  0  0  0
  1  2  1  0
  2  3  1  0
  2 19  1  0
  3  4  1  0
  3  5  2  0
  5  6  1  0
  6  7  1  1
  6 19  1  0
  7  8  2  0
  7 18  1  0
  8  9  1  0
  9 10  2  0
 10 11  1  0
 11 12  1  0
 11 18  2  0
 12 13  2  0
 12 17  1  0
 13 14  1  0
 14 15  2  0
 15 16  1  0
 16 17  2  0
 19 20  2  0
  1 21  1  0
  1 22  1  0
  1 23  1  0
  4 24  1  0
  4 25  1  0
  5 26  1  0
  8 27  1  0
  9 28  1  0
 10 29  1  0
 13 30  1  0
 14 31  1  0
 15 32  1  0
 17 33  1  0
 18 34  1  0
 35 36  2  0
 36 37  1  0
 37 38  2  0
 38 39  1  0
 39 35  1  0
 37 40  1  0
 38 41  1  0
  6 35  1  0
M  CHG  1   5   1
M  END
>  <attachment_point>  (104) 
26

>  <score>  (104) 
<NA>

$$$$
CAT-4j
     RDKit          3D

 45 48  0  0  1  0  0  0  0  0999 V2000
   11.7106   -2.3098    1.2658 C   0  0  0  0  0  0  0  0  0  0  0  0
   13.0313   -2.6523    0.7225 N   0  0  0  0  0  0  0  0  0  0  0  0
   14.2010   -2.6281    1.3773 C   0  0  0  0  0  0  0  0  0  0  0  0
   14.3777   -2.3568    2.6732 N   0  0  0  0  0  0  0  0  0  0  0  0
   15.2217   -2.9197    0.5738 N   0  0  0  0  0  0  0  0  0  0  0  0
   14.7965   -3.2519   -0.7875 C   0  0  1  0  0  0  0  0  0  0  0  0
   15.3794   -2.2443   -1.7949 C   0  0  0  0  0  0  0  0  0  0  0  0
   15.9522   -2.6550   -3.0208 C   0  0  0  0  0  0  0  0  0  0  0  0
   16.4340   -1.6937   -3.9273 C   0  0  0  0  0  0  0  0  0  0  0  0
   16.3364   -0.3224   -3.6308 C   0  0  0  0  0  0  0  0  0  0  0  0
   15.7943    0.1250   -2.4073 C   0  0  0  0  0  0  0  0  0  0  0  0
   15.6711    1.5693   -2.0915 C   0  0  0  0  0  0  0  0  0  0  0  0
   15.3832    2.0354   -0.7903 C   0  0  0  0  0  0  0  0  0  0  0  0
   15.3534    3.4188   -0.5357 C   0  0  0  0  0  0  0  0  0  0  0  0
   15.5968    4.3049   -1.5946 C   0  0  0  0  0  0  0  0  0  0  0  0
   15.8275    3.8920   -2.8511 N   0  0  0  0  0  0  0  0  0  0  0  0
   15.8598    2.5642   -3.0762 C   0  0  0  0  0  0  0  0  0  0  0  0
   15.3327   -0.8573   -1.5012 C   0  0  0  0  0  0  0  0  0  0  0  0
   13.2767   -3.0094   -0.6368 C   0  0  0  0  0  0  0  0  0  0  0  0
   12.3981   -3.0674   -1.5055 O   0  0  0  0  0  0  0  0  0  0  0  0
    0.0000    0.0000    0.0000 H   0  0  0  0  0  0  0  0  0  0  0  0
    0.0000    0.0000    0.0000 H   0  0  0  0  0  0  0  0  0  0  0  0
    0.0000    0.0000    0.0000 H   0  0  0  0  0  0  0  0  0  0  0  0
    0.0000    0.0000    0.0000 H   0  0  0  0  0  0  0  0  0  0  0  0
    0.0000    0.0000    0.0000 H   0  0  0  0  0  0  0  0  0  0  0  0
    0.0000    0.0000    0.0000 H   0  0  0  0  0  0  0  0  0  0  0  0
    0.0000    0.0000    0.0000 H   0  0  0  0  0  0  0  0  0  0  0  0
    0.0000    0.0000    0.0000 H   0  0  0  0  0  0  0  0  0  0  0  0
    0.0000    0.0000    0.0000 H   0  0  0  0  0  0  0  0  0  0  0  0
    0.0000    0.0000    0.0000 H   0  0  0  0  0  0  0  0  0  0  0  0
    0.0000    0.0000    0.0000 H   0  0  0  0  0  0  0  0  0  0  0  0
    0.0000    0.0000    0.0000 H   0  0  0  0  0  0  0  0  0  0  0  0
    0.0000    0.0000    0.0000 H   0  0  0  0  0  0  0  0  0  0  0  0
    0.0000    0.0000    0.0000 H   0  0  0  0  0  0  0  0  0  0  0  0
    6.9964   -1.5376   -0.3724 C   0  0  0  0  0  0  0  0  0  0  0  0
    6.2199   -1.3584   -1.5218 C   0  0  0  0  0  0  0  0  0  0  0  0
    4.8760   -1.0633   -1.4174 C   0  0  0  0  0  0  0  0  0  0  0  0
    4.3044   -0.9465   -0.1558 C   0  0  0  0  0  0  0  0  0  0  0  0
    2.4402   -0.5370   -0.0416 Br  0  0  0  0  0  0  0  0  0  0  0  0
    5.0448   -1.1178    1.0011 C   0  0  0  0  0  0  0  0  0  0  0  0
    6.3883   -1.4126    0.8590 C   0  0  0  0  0  0  0  0  0  0  0  0
    6.6731   -1.4512   -2.4998 H   0  0  0  0  0  0  0  0  0  0  0  0
    4.3048   -0.9310   -2.3320 H   0  0  0  0  0  0  0  0  0  0  0  0
    4.6084   -1.0289    1.9881 H   0  0  0  0  0  0  0  0  0  0  0  0
    6.9730   -1.5479    1.7753 H   0  0  0  0  0  0  0  0  0  0  0  0
  1  2  1  0
  2  3  1  0
  2 19  1  0
  3  4  1  0
  3  5  2  0
  5  6  1  0
  6  7  1  1
  6 19  1  0
  7  8  2  0
  7 18  1  0
  8  9  1  0
  9 10  2  0
 10 11  1  0
 11 12  1  0
 11 18  2  0
 12 13  2  0
 12 17  1  0
 13 14  1  0
 14 15  2  0
 15 16  1  0
 16 17  2  0
 19 20  2  0
  1 21  1  0
  1 22  1  0
  1 23  1  0
  4 24  1  0
  4 25  1  0
  5 26  1  0
  8 27  1  0
  9 28  1  0
 10 29  1  0
 13 30  1  0
 14 31  1  0
 15 32  1  0
 17 33  1  0
 18 34  1  0
 35 36  2  0
 36 37  1  0
 37 38  2  0
 38 39  1  0
 38 40  1  0
 40 41  2  0
 41 35  1  0
 36 42  1  0
 37 43  1  0
 40 44  1  0
 41 45  1  0
  6 35  1  0
M  CHG  1   5   1
M  END
>  <attachment_point>  (105) 
26

>  <score>  (105) 
<NA>

$$$$
CAT-4j
     RDKit          3D

 47 50  0  0  1  0  0  0  0  0999 V2000
   11.7106   -2.3098    1.2658 C   0  0  0  0  0  0  0  0  0  0  0  0
   13.0313   -2.6523    0.7225 N   0  0  0  0  0  0  0  0  0  0  0  0
   14.2010   -2.6281    1.3773 C   0  0  0  0  0  0  0  0  0  0  0  0
   14.3777   -2.3568    2.6732 N   0  0  0  0  0  0  0  0  0  0  0  0
   15.2217   -2.9197    0.5738 N   0  0  0  0  0  0  0  0  0  0  0  0
   14.7965   -3.2519   -0.7875 C   0  0  1  0  0  0  0  0  0  0  0  0
   15.3794   -2.2443   -1.7949 C   0  0  0  0  0  0  0  0  0  0  0  0
   15.9522   -2.6550   -3.0208 C   0  0  0  0  0  0  0  0  0  0  0  0
   16.4340   -1.6937   -3.9273 C   0  0  0  0  0  0  0  0  0  0  0  0
   16.3364   -0.3224   -3.6308 C   0  0  0  0  0  0  0  0  0  0  0  0
   15.7943    0.1250   -2.4073 C   0  0  0  0  0  0  0  0  0  0  0  0
   15.6711    1.5693   -2.0915 C   0  0  0  0  0  0  0  0  0  0  0  0
   15.3832    2.0354   -0.7903 C   0  0  0  0  0  0  0  0  0  0  0  0
   15.3534    3.4188   -0.5357 C   0  0  0  0  0  0  0  0  0  0  0  0
   15.5968    4.3049   -1.5946 C   0  0  0  0  0  0  0  0  0  0  0  0
   15.8275    3.8920   -2.8511 N   0  0  0  0  0  0  0  0  0  0  0  0
   15.8598    2.5642   -3.0762 C   0  0  0  0  0  0  0  0  0  0  0  0
   15.3327   -0.8573   -1.5012 C   0  0  0  0  0  0  0  0  0  0  0  0
   13.2767   -3.0094   -0.6368 C   0  0  0  0  0  0  0  0  0  0  0  0
   12.3981   -3.0674   -1.5055 O   0  0  0  0  0  0  0  0  0  0  0  0
    0.0000    0.0000    0.0000 H   0  0  0  0  0  0  0  0  0  0  0  0
    0.0000    0.0000    0.0000 H   0  0  0  0  0  0  0  0  0  0  0  0
    0.0000    0.0000    0.0000 H   0  0  0  0  0  0  0  0  0  0  0  0
    0.0000    0.0000    0.0000 H   0  0  0  0  0  0  0  0  0  0  0  0
    0.0000    0.0000    0.0000 H   0  0  0  0  0  0  0  0  0  0  0  0
    0.0000    0.0000    0.0000 H   0  0  0  0  0  0  0  0  0  0  0  0
    0.0000    0.0000    0.0000 H   0  0  0  0  0  0  0  0  0  0  0  0
    0.0000    0.0000    0.0000 H   0  0  0  0  0  0  0  0  0  0  0  0
    0.0000    0.0000    0.0000 H   0  0  0  0  0  0  0  0  0  0  0  0
    0.0000    0.0000    0.0000 H   0  0  0  0  0  0  0  0  0  0  0  0
    0.0000    0.0000    0.0000 H   0  0  0  0  0  0  0  0  0  0  0  0
    0.0000    0.0000    0.0000 H   0  0  0  0  0  0  0  0  0  0  0  0
    0.0000    0.0000    0.0000 H   0  0  0  0  0  0  0  0  0  0  0  0
    0.0000    0.0000    0.0000 H   0  0  0  0  0  0  0  0  0  0  0  0
    6.9939   -1.5371   -0.3722 C   0  0  0  0  0  0  0  0  0  0  0  0
    6.1067   -2.7270   -0.2406 C   0  0  0  0  0  0  0  0  0  0  0  0
    5.6067   -3.3639   -1.3519 C   0  0  0  0  0  0  0  0  0  0  0  0
    4.7911   -4.4595   -1.1707 C   0  0  0  0  0  0  0  0  0  0  0  0
    4.4746   -4.9177    0.0652 N   0  0  0  0  0  0  0  0  0  0  0  0
    4.9564   -4.3044    1.1509 C   0  0  0  0  0  0  0  0  0  0  0  0
    5.7754   -3.2052    1.0030 C   0  0  0  0  0  0  0  0  0  0  0  0
    6.8226   -0.9094    0.5290 H   0  0  0  0  0  0  0  0  0  0  0  0
    6.7046   -0.9209   -1.2479 H   0  0  0  0  0  0  0  0  0  0  0  0
    5.8429   -3.0203   -2.3361 H   0  0  0  0  0  0  0  0  0  0  0  0
    4.3711   -4.9973   -2.0065 H   0  0  0  0  0  0  0  0  0  0  0  0
    4.7050   -4.6689    2.1592 H   0  0  0  0  0  0  0  0  0  0  0  0
    6.1579   -2.7190    1.8910 H   0  0  0  0  0  0  0  0  0  0  0  0
  1  2  1  0
  2  3  1  0
  2 19  1  0
  3  4  1  0
  3  5  2  0
  5  6  1  0
  6  7  1  0
  6 19  1  0
  7  8  2  0
  7 18  1  0
  8  9  1  0
  9 10  2  0
 10 11  1  0
 11 12  1  0
 11 18  2  0
 12 13  2  0
 12 17  1  0
 13 14  1  0
 14 15  2  0
 15 16  1  0
 16 17  2  0
 19 20  2  0
  1 21  1  0
  1 22  1  0
  1 23  1  0
  4 24  1  0
  4 25  1  0
  5 26  1  0
  8 27  1  0
  9 28  1  0
 10 29  1  0
 13 30  1  0
 14 31  1  0
 15 32  1  0
 17 33  1  0
 18 34  1  0
 35 36  1  0
 36 37  2  0
 37 38  1  0
 38 39  2  0
 39 40  1  0
 40 41  2  0
 41 36  1  0
 35 42  1  0
 35 43  1  0
 37 44  1  0
 38 45  1  0
 40 46  1  0
 41 47  1  0
  6 35  1  6
M  CHG  1   5   1
M  END
>  <attachment_point>  (106) 
26

>  <score>  (106) 
<NA>

$$$$
CAT-4j
     RDKit          3D

 46 48  0  0  1  0  0  0  0  0999 V2000
   11.7106   -2.3098    1.2658 C   0  0  0  0  0  0  0  0  0  0  0  0
   13.0313   -2.6523    0.7225 N   0  0  0  0  0  0  0  0  0  0  0  0
   14.2010   -2.6281    1.3773 C   0  0  0  0  0  0  0  0  0  0  0  0
   14.3777   -2.3568    2.6732 N   0  0  0  0  0  0  0  0  0  0  0  0
   15.2217   -2.9197    0.5738 N   0  0  0  0  0  0  0  0  0  0  0  0
   14.7965   -3.2519   -0.7875 C   0  0  1  0  0  0  0  0  0  0  0  0
   15.3794   -2.2443   -1.7949 C   0  0  0  0  0  0  0  0  0  0  0  0
   15.9522   -2.6550   -3.0208 C   0  0  0  0  0  0  0  0  0  0  0  0
   16.4340   -1.6937   -3.9273 C   0  0  0  0  0  0  0  0  0  0  0  0
   16.3364   -0.3224   -3.6308 C   0  0  0  0  0  0  0  0  0  0  0  0
   15.7943    0.1250   -2.4073 C   0  0  0  0  0  0  0  0  0  0  0  0
   15.6711    1.5693   -2.0915 C   0  0  0  0  0  0  0  0  0  0  0  0
   15.3832    2.0354   -0.7903 C   0  0  0  0  0  0  0  0  0  0  0  0
   15.3534    3.4188   -0.5357 C   0  0  0  0  0  0  0  0  0  0  0  0
   15.5968    4.3049   -1.5946 C   0  0  0  0  0  0  0  0  0  0  0  0
   15.8275    3.8920   -2.8511 N   0  0  0  0  0  0  0  0  0  0  0  0
   15.8598    2.5642   -3.0762 C   0  0  0  0  0  0  0  0  0  0  0  0
   15.3327   -0.8573   -1.5012 C   0  0  0  0  0  0  0  0  0  0  0  0
   13.2767   -3.0094   -0.6368 C   0  0  0  0  0  0  0  0  0  0  0  0
   12.3981   -3.0674   -1.5055 O   0  0  0  0  0  0  0  0  0  0  0  0
    0.0000    0.0000    0.0000 H   0  0  0  0  0  0  0  0  0  0  0  0
    0.0000    0.0000    0.0000 H   0  0  0  0  0  0  0  0  0  0  0  0
    0.0000    0.0000    0.0000 H   0  0  0  0  0  0  0  0  0  0  0  0
    0.0000    0.0000    0.0000 H   0  0  0  0  0  0  0  0  0  0  0  0
    0.0000    0.0000    0.0000 H   0  0  0  0  0  0  0  0  0  0  0  0
    0.0000    0.0000    0.0000 H   0  0  0  0  0  0  0  0  0  0  0  0
    0.0000    0.0000    0.0000 H   0  0  0  0  0  0  0  0  0  0  0  0
    0.0000    0.0000    0.0000 H   0  0  0  0  0  0  0  0  0  0  0  0
    0.0000    0.0000    0.0000 H   0  0  0  0  0  0  0  0  0  0  0  0
    0.0000    0.0000    0.0000 H   0  0  0  0  0  0  0  0  0  0  0  0
    0.0000    0.0000    0.0000 H   0  0  0  0  0  0  0  0  0  0  0  0
    0.0000    0.0000    0.0000 H   0  0  0  0  0  0  0  0  0  0  0  0
    0.0000    0.0000    0.0000 H   0  0  0  0  0  0  0  0  0  0  0  0
    0.0000    0.0000    0.0000 H   0  0  0  0  0  0  0  0  0  0  0  0
    7.0399   -1.5472   -0.3747 O   0  0  0  0  0  0  0  0  0  0  0  0
    6.5204   -1.5387    0.9305 C   0  0  0  0  0  0  0  0  0  0  0  0
    5.0482   -1.2015    0.8442 C   0  0  0  0  0  0  0  0  0  0  0  0
    4.3230   -2.0945    0.1012 O   0  0  0  0  0  0  0  0  0  0  0  0
    4.3488   -3.3842    0.5648 C   0  0  0  0  0  0  0  0  0  0  0  0
    7.0179   -0.6780    1.4402 H   0  0  0  0  0  0  0  0  0  0  0  0
    6.7123   -2.4936    1.4517 H   0  0  0  0  0  0  0  0  0  0  0  0
    4.6683   -1.0480    1.8688 H   0  0  0  0  0  0  0  0  0  0  0  0
    4.9894   -0.2098    0.3292 H   0  0  0  0  0  0  0  0  0  0  0  0
    5.3698   -3.8212    0.6027 H   0  0  0  0  0  0  0  0  0  0  0  0
    3.7610   -4.0066   -0.1641 H   0  0  0  0  0  0  0  0  0  0  0  0
    3.8962   -3.5303    1.5592 H   0  0  0  0  0  0  0  0  0  0  0  0
  1  2  1  0
  2  3  1  0
  2 19  1  0
  3  4  1  0
  3  5  2  0
  5  6  1  0
  6  7  1  0
  6 19  1  0
  7  8  2  0
  7 18  1  0
  8  9  1  0
  9 10  2  0
 10 11  1  0
 11 12  1  0
 11 18  2  0
 12 13  2  0
 12 17  1  0
 13 14  1  0
 14 15  2  0
 15 16  1  0
 16 17  2  0
 19 20  2  0
  1 21  1  0
  1 22  1  0
  1 23  1  0
  4 24  1  0
  4 25  1  0
  5 26  1  0
  8 27  1  0
  9 28  1  0
 10 29  1  0
 13 30  1  0
 14 31  1  0
 15 32  1  0
 17 33  1  0
 18 34  1  0
 35 36  1  0
 36 37  1  0
 37 38  1  0
 38 39  1  0
 36 40  1  0
 36 41  1  0
 37 42  1  0
 37 43  1  0
 39 44  1  0
 39 45  1  0
 39 46  1  0
  6 35  1  6
M  CHG  1   5   1
M  END
>  <attachment_point>  (107) 
26

>  <score>  (107) 
<NA>

$$$$
CAT-4j
     RDKit          3D

 53 55  0  0  1  0  0  0  0  0999 V2000
   11.7106   -2.3098    1.2658 C   0  0  0  0  0  0  0  0  0  0  0  0
   13.0313   -2.6523    0.7225 N   0  0  0  0  0  0  0  0  0  0  0  0
   14.2010   -2.6281    1.3773 C   0  0  0  0  0  0  0  0  0  0  0  0
   14.3777   -2.3568    2.6732 N   0  0  0  0  0  0  0  0  0  0  0  0
   15.2217   -2.9197    0.5738 N   0  0  0  0  0  0  0  0  0  0  0  0
   14.7965   -3.2519   -0.7875 C   0  0  1  0  0  0  0  0  0  0  0  0
   15.3794   -2.2443   -1.7949 C   0  0  0  0  0  0  0  0  0  0  0  0
   15.9522   -2.6550   -3.0208 C   0  0  0  0  0  0  0  0  0  0  0  0
   16.4340   -1.6937   -3.9273 C   0  0  0  0  0  0  0  0  0  0  0  0
   16.3364   -0.3224   -3.6308 C   0  0  0  0  0  0  0  0  0  0  0  0
   15.7943    0.1250   -2.4073 C   0  0  0  0  0  0  0  0  0  0  0  0
   15.6711    1.5693   -2.0915 C   0  0  0  0  0  0  0  0  0  0  0  0
   15.3832    2.0354   -0.7903 C   0  0  0  0  0  0  0  0  0  0  0  0
   15.3534    3.4188   -0.5357 C   0  0  0  0  0  0  0  0  0  0  0  0
   15.5968    4.3049   -1.5946 C   0  0  0  0  0  0  0  0  0  0  0  0
   15.8275    3.8920   -2.8511 N   0  0  0  0  0  0  0  0  0  0  0  0
   15.8598    2.5642   -3.0762 C   0  0  0  0  0  0  0  0  0  0  0  0
   15.3327   -0.8573   -1.5012 C   0  0  0  0  0  0  0  0  0  0  0  0
   13.2767   -3.0094   -0.6368 C   0  0  0  0  0  0  0  0  0  0  0  0
   12.3981   -3.0674   -1.5055 O   0  0  0  0  0  0  0  0  0  0  0  0
    0.0000    0.0000    0.0000 H   0  0  0  0  0  0  0  0  0  0  0  0
    0.0000    0.0000    0.0000 H   0  0  0  0  0  0  0  0  0  0  0  0
    0.0000    0.0000    0.0000 H   0  0  0  0  0  0  0  0  0  0  0  0
    0.0000    0.0000    0.0000 H   0  0  0  0  0  0  0  0  0  0  0  0
    0.0000    0.0000    0.0000 H   0  0  0  0  0  0  0  0  0  0  0  0
    0.0000    0.0000    0.0000 H   0  0  0  0  0  0  0  0  0  0  0  0
    0.0000    0.0000    0.0000 H   0  0  0  0  0  0  0  0  0  0  0  0
    0.0000    0.0000    0.0000 H   0  0  0  0  0  0  0  0  0  0  0  0
    0.0000    0.0000    0.0000 H   0  0  0  0  0  0  0  0  0  0  0  0
    0.0000    0.0000    0.0000 H   0  0  0  0  0  0  0  0  0  0  0  0
    0.0000    0.0000    0.0000 H   0  0  0  0  0  0  0  0  0  0  0  0
    0.0000    0.0000    0.0000 H   0  0  0  0  0  0  0  0  0  0  0  0
    0.0000    0.0000    0.0000 H   0  0  0  0  0  0  0  0  0  0  0  0
    0.0000    0.0000    0.0000 H   0  0  0  0  0  0  0  0  0  0  0  0
    6.9519   -1.5279   -0.3700 C   0  0  0  0  0  0  0  0  0  0  0  0
    6.8456   -0.0572   -0.6213 C   0  0  0  0  0  0  0  0  0  0  0  0
    7.3984    0.2851   -1.9790 C   0  0  0  0  0  0  0  0  0  0  0  0
    7.3113    1.7648   -2.2767 C   0  0  0  0  0  0  0  0  0  0  0  0
    5.8914    2.2657   -2.2510 C   0  0  0  0  0  0  0  0  0  0  0  0
    5.9466    3.7587   -2.5644 C   0  0  0  0  0  0  0  0  0  0  0  0
    6.5030   -2.1474   -1.1586 H   0  0  0  0  0  0  0  0  0  0  0  0
    6.6953   -1.8317    0.6422 H   0  0  0  0  0  0  0  0  0  0  0  0
    5.7865    0.2429   -0.5080 H   0  0  0  0  0  0  0  0  0  0  0  0
    7.3987    0.4632    0.1952 H   0  0  0  0  0  0  0  0  0  0  0  0
    8.4777    0.0194   -1.9781 H   0  0  0  0  0  0  0  0  0  0  0  0
    6.8720   -0.3218   -2.7278 H   0  0  0  0  0  0  0  0  0  0  0  0
    7.6977    1.9364   -3.3018 H   0  0  0  0  0  0  0  0  0  0  0  0
    7.9218    2.3491   -1.5936 H   0  0  0  0  0  0  0  0  0  0  0  0
    5.3735    2.0794   -1.2941 H   0  0  0  0  0  0  0  0  0  0  0  0
    5.2707    1.8015   -3.0500 H   0  0  0  0  0  0  0  0  0  0  0  0
    5.1161    4.0645   -3.2249 H   0  0  0  0  0  0  0  0  0  0  0  0
    5.9755    4.3081   -1.6149 H   0  0  0  0  0  0  0  0  0  0  0  0
    6.9126    4.0082   -3.0937 H   0  0  0  0  0  0  0  0  0  0  0  0
  1  2  1  0
  2  3  1  0
  2 19  1  0
  3  4  1  0
  3  5  2  0
  5  6  1  0
  6  7  1  0
  6 19  1  0
  7  8  2  0
  7 18  1  0
  8  9  1  0
  9 10  2  0
 10 11  1  0
 11 12  1  0
 11 18  2  0
 12 13  2  0
 12 17  1  0
 13 14  1  0
 14 15  2  0
 15 16  1  0
 16 17  2  0
 19 20  2  0
  1 21  1  0
  1 22  1  0
  1 23  1  0
  4 24  1  0
  4 25  1  0
  5 26  1  0
  8 27  1  0
  9 28  1  0
 10 29  1  0
 13 30  1  0
 14 31  1  0
 15 32  1  0
 17 33  1  0
 18 34  1  0
 35 36  1  0
 36 37  1  0
 37 38  1  0
 38 39  1  0
 39 40  1  0
 35 41  1  0
 35 42  1  0
 36 43  1  0
 36 44  1  0
 37 45  1  0
 37 46  1  0
 38 47  1  0
 38 48  1  0
 39 49  1  0
 39 50  1  0
 40 51  1  0
 40 52  1  0
 40 53  1  0
  6 35  1  6
M  CHG  1   5   1
M  END
>  <attachment_point>  (108) 
26

>  <score>  (108) 
<NA>

$$$$
CAT-4j
     RDKit          3D

 49 52  0  0  1  0  0  0  0  0999 V2000
   11.7106   -2.3098    1.2658 C   0  0  0  0  0  0  0  0  0  0  0  0
   13.0313   -2.6523    0.7225 N   0  0  0  0  0  0  0  0  0  0  0  0
   14.2010   -2.6281    1.3773 C   0  0  0  0  0  0  0  0  0  0  0  0
   14.3777   -2.3568    2.6732 N   0  0  0  0  0  0  0  0  0  0  0  0
   15.2217   -2.9197    0.5738 N   0  0  0  0  0  0  0  0  0  0  0  0
   14.7965   -3.2519   -0.7875 C   0  0  1  0  0  0  0  0  0  0  0  0
   15.3794   -2.2443   -1.7949 C   0  0  0  0  0  0  0  0  0  0  0  0
   15.9522   -2.6550   -3.0208 C   0  0  0  0  0  0  0  0  0  0  0  0
   16.4340   -1.6937   -3.9273 C   0  0  0  0  0  0  0  0  0  0  0  0
   16.3364   -0.3224   -3.6308 C   0  0  0  0  0  0  0  0  0  0  0  0
   15.7943    0.1250   -2.4073 C   0  0  0  0  0  0  0  0  0  0  0  0
   15.6711    1.5693   -2.0915 C   0  0  0  0  0  0  0  0  0  0  0  0
   15.3832    2.0354   -0.7903 C   0  0  0  0  0  0  0  0  0  0  0  0
   15.3534    3.4188   -0.5357 C   0  0  0  0  0  0  0  0  0  0  0  0
   15.5968    4.3049   -1.5946 C   0  0  0  0  0  0  0  0  0  0  0  0
   15.8275    3.8920   -2.8511 N   0  0  0  0  0  0  0  0  0  0  0  0
   15.8598    2.5642   -3.0762 C   0  0  0  0  0  0  0  0  0  0  0  0
   15.3327   -0.8573   -1.5012 C   0  0  0  0  0  0  0  0  0  0  0  0
   13.2767   -3.0094   -0.6368 C   0  0  0  0  0  0  0  0  0  0  0  0
   12.3981   -3.0674   -1.5055 O   0  0  0  0  0  0  0  0  0  0  0  0
    0.0000    0.0000    0.0000 H   0  0  0  0  0  0  0  0  0  0  0  0
    0.0000    0.0000    0.0000 H   0  0  0  0  0  0  0  0  0  0  0  0
    0.0000    0.0000    0.0000 H   0  0  0  0  0  0  0  0  0  0  0  0
    0.0000    0.0000    0.0000 H   0  0  0  0  0  0  0  0  0  0  0  0
    0.0000    0.0000    0.0000 H   0  0  0  0  0  0  0  0  0  0  0  0
    0.0000    0.0000    0.0000 H   0  0  0  0  0  0  0  0  0  0  0  0
    0.0000    0.0000    0.0000 H   0  0  0  0  0  0  0  0  0  0  0  0
    0.0000    0.0000    0.0000 H   0  0  0  0  0  0  0  0  0  0  0  0
    0.0000    0.0000    0.0000 H   0  0  0  0  0  0  0  0  0  0  0  0
    0.0000    0.0000    0.0000 H   0  0  0  0  0  0  0  0  0  0  0  0
    0.0000    0.0000    0.0000 H   0  0  0  0  0  0  0  0  0  0  0  0
    0.0000    0.0000    0.0000 H   0  0  0  0  0  0  0  0  0  0  0  0
    0.0000    0.0000    0.0000 H   0  0  0  0  0  0  0  0  0  0  0  0
    0.0000    0.0000    0.0000 H   0  0  0  0  0  0  0  0  0  0  0  0
    7.0186   -1.5425   -0.3735 C   0  0  0  0  0  0  0  0  0  0  0  0
    6.0912   -2.6169    0.1888 C   0  0  0  0  0  0  0  0  0  0  0  0
    4.6911   -2.2454   -0.1657 C   0  0  0  0  0  0  0  0  0  0  0  0
    4.6145   -0.8422   -0.2714 O   0  0  0  0  0  0  0  0  0  0  0  0
    5.3159   -0.2190    0.7652 C   0  0  0  0  0  0  0  0  0  0  0  0
    6.8000   -0.3226    0.5214 C   0  0  0  0  0  0  0  0  0  0  0  0
    6.6276   -1.2507   -1.3783 H   0  0  0  0  0  0  0  0  0  0  0  0
    6.1742   -2.6922    1.2944 H   0  0  0  0  0  0  0  0  0  0  0  0
    6.4360   -3.5731   -0.2656 H   0  0  0  0  0  0  0  0  0  0  0  0
    4.3536   -2.6400   -1.1520 H   0  0  0  0  0  0  0  0  0  0  0  0
    3.9558   -2.5138    0.6296 H   0  0  0  0  0  0  0  0  0  0  0  0
    4.9950   -0.6601    1.7238 H   0  0  0  0  0  0  0  0  0  0  0  0
    4.9825    0.8420    0.7835 H   0  0  0  0  0  0  0  0  0  0  0  0
    7.1357    0.5836   -0.0351 H   0  0  0  0  0  0  0  0  0  0  0  0
    7.3581   -0.4290    1.4654 H   0  0  0  0  0  0  0  0  0  0  0  0
  1  2  1  0
  2  3  1  0
  2 19  1  0
  3  4  1  0
  3  5  2  0
  5  6  1  0
  6  7  1  0
  6 19  1  0
  7  8  2  0
  7 18  1  0
  8  9  1  0
  9 10  2  0
 10 11  1  0
 11 12  1  0
 11 18  2  0
 12 13  2  0
 12 17  1  0
 13 14  1  0
 14 15  2  0
 15 16  1  0
 16 17  2  0
 19 20  2  0
  1 21  1  0
  1 22  1  0
  1 23  1  0
  4 24  1  0
  4 25  1  0
  5 26  1  0
  8 27  1  0
  9 28  1  0
 10 29  1  0
 13 30  1  0
 14 31  1  0
 15 32  1  0
 17 33  1  0
 18 34  1  0
 35 36  1  0
 36 37  1  0
 37 38  1  0
 38 39  1  0
 39 40  1  0
 40 35  1  0
 35 41  1  0
 36 42  1  0
 36 43  1  0
 37 44  1  0
 37 45  1  0
 39 46  1  0
 39 47  1  0
 40 48  1  0
 40 49  1  0
  6 35  1  6
M  CHG  1   5   1
M  END
>  <attachment_point>  (109) 
26

>  <score>  (109) 
<NA>

$$$$
CAT-4j
     RDKit          3D

 43 46  0  0  1  0  0  0  0  0999 V2000
   11.7106   -2.3098    1.2658 C   0  0  0  0  0  0  0  0  0  0  0  0
   13.0313   -2.6523    0.7225 N   0  0  0  0  0  0  0  0  0  0  0  0
   14.2010   -2.6281    1.3773 C   0  0  0  0  0  0  0  0  0  0  0  0
   14.3777   -2.3568    2.6732 N   0  0  0  0  0  0  0  0  0  0  0  0
   15.2217   -2.9197    0.5738 N   0  0  0  0  0  0  0  0  0  0  0  0
   14.7965   -3.2519   -0.7875 C   0  0  1  0  0  0  0  0  0  0  0  0
   15.3794   -2.2443   -1.7949 C   0  0  0  0  0  0  0  0  0  0  0  0
   15.9522   -2.6550   -3.0208 C   0  0  0  0  0  0  0  0  0  0  0  0
   16.4340   -1.6937   -3.9273 C   0  0  0  0  0  0  0  0  0  0  0  0
   16.3364   -0.3224   -3.6308 C   0  0  0  0  0  0  0  0  0  0  0  0
   15.7943    0.1250   -2.4073 C   0  0  0  0  0  0  0  0  0  0  0  0
   15.6711    1.5693   -2.0915 C   0  0  0  0  0  0  0  0  0  0  0  0
   15.3832    2.0354   -0.7903 C   0  0  0  0  0  0  0  0  0  0  0  0
   15.3534    3.4188   -0.5357 C   0  0  0  0  0  0  0  0  0  0  0  0
   15.5968    4.3049   -1.5946 C   0  0  0  0  0  0  0  0  0  0  0  0
   15.8275    3.8920   -2.8511 N   0  0  0  0  0  0  0  0  0  0  0  0
   15.8598    2.5642   -3.0762 C   0  0  0  0  0  0  0  0  0  0  0  0
   15.3327   -0.8573   -1.5012 C   0  0  0  0  0  0  0  0  0  0  0  0
   13.2767   -3.0094   -0.6368 C   0  0  0  0  0  0  0  0  0  0  0  0
   12.3981   -3.0674   -1.5055 O   0  0  0  0  0  0  0  0  0  0  0  0
    0.0000    0.0000    0.0000 H   0  0  0  0  0  0  0  0  0  0  0  0
    0.0000    0.0000    0.0000 H   0  0  0  0  0  0  0  0  0  0  0  0
    0.0000    0.0000    0.0000 H   0  0  0  0  0  0  0  0  0  0  0  0
    0.0000    0.0000    0.0000 H   0  0  0  0  0  0  0  0  0  0  0  0
    0.0000    0.0000    0.0000 H   0  0  0  0  0  0  0  0  0  0  0  0
    0.0000    0.0000    0.0000 H   0  0  0  0  0  0  0  0  0  0  0  0
    0.0000    0.0000    0.0000 H   0  0  0  0  0  0  0  0  0  0  0  0
    0.0000    0.0000    0.0000 H   0  0  0  0  0  0  0  0  0  0  0  0
    0.0000    0.0000    0.0000 H   0  0  0  0  0  0  0  0  0  0  0  0
    0.0000    0.0000    0.0000 H   0  0  0  0  0  0  0  0  0  0  0  0
    0.0000    0.0000    0.0000 H   0  0  0  0  0  0  0  0  0  0  0  0
    0.0000    0.0000    0.0000 H   0  0  0  0  0  0  0  0  0  0  0  0
    0.0000    0.0000    0.0000 H   0  0  0  0  0  0  0  0  0  0  0  0
    0.0000    0.0000    0.0000 H   0  0  0  0  0  0  0  0  0  0  0  0
    6.9410   -1.5255   -0.3694 C   0  0  0  0  0  0  0  0  0  0  0  0
    6.0733   -2.2463   -1.0610 N   0  0  0  0  0  0  0  0  0  0  0  0
    4.7392   -1.9502   -0.9877 C   0  0  0  0  0  0  0  0  0  0  0  0
    4.2964   -0.9106   -0.2015 C   0  0  0  0  0  0  0  0  0  0  0  0
    5.2251   -0.1787    0.5065 C   0  0  0  0  0  0  0  0  0  0  0  0
    6.5478   -0.5122    0.4015 N   0  0  0  0  0  0  0  0  0  0  0  0
    4.0355   -2.5403   -1.5529 H   0  0  0  0  0  0  0  0  0  0  0  0
    3.2431   -0.6737   -0.1412 H   0  0  0  0  0  0  0  0  0  0  0  0
    4.9064    0.6402    1.1295 H   0  0  0  0  0  0  0  0  0  0  0  0
  1  2  1  0
  2  3  1  0
  2 19  1  0
  3  4  1  0
  3  5  2  0
  5  6  1  0
  6  7  1  1
  6 19  1  0
  7  8  2  0
  7 18  1  0
  8  9  1  0
  9 10  2  0
 10 11  1  0
 11 12  1  0
 11 18  2  0
 12 13  2  0
 12 17  1  0
 13 14  1  0
 14 15  2  0
 15 16  1  0
 16 17  2  0
 19 20  2  0
  1 21  1  0
  1 22  1  0
  1 23  1  0
  4 24  1  0
  4 25  1  0
  5 26  1  0
  8 27  1  0
  9 28  1  0
 10 29  1  0
 13 30  1  0
 14 31  1  0
 15 32  1  0
 17 33  1  0
 18 34  1  0
 35 36  2  0
 36 37  1  0
 37 38  2  0
 38 39  1  0
 39 40  2  0
 40 35  1  0
 37 41  1  0
 38 42  1  0
 39 43  1  0
  6 35  1  0
M  CHG  1   5   1
M  END
>  <attachment_point>  (110) 
26

>  <score>  (110) 
<NA>

$$$$
CAT-4j
     RDKit          3D

 43 45  0  0  1  0  0  0  0  0999 V2000
   11.7106   -2.3098    1.2658 C   0  0  0  0  0  0  0  0  0  0  0  0
   13.0313   -2.6523    0.7225 N   0  0  0  0  0  0  0  0  0  0  0  0
   14.2010   -2.6281    1.3773 C   0  0  0  0  0  0  0  0  0  0  0  0
   14.3777   -2.3568    2.6732 N   0  0  0  0  0  0  0  0  0  0  0  0
   15.2217   -2.9197    0.5738 N   0  0  0  0  0  0  0  0  0  0  0  0
   14.7965   -3.2519   -0.7875 C   0  0  1  0  0  0  0  0  0  0  0  0
   15.3794   -2.2443   -1.7949 C   0  0  0  0  0  0  0  0  0  0  0  0
   15.9522   -2.6550   -3.0208 C   0  0  0  0  0  0  0  0  0  0  0  0
   16.4340   -1.6937   -3.9273 C   0  0  0  0  0  0  0  0  0  0  0  0
   16.3364   -0.3224   -3.6308 C   0  0  0  0  0  0  0  0  0  0  0  0
   15.7943    0.1250   -2.4073 C   0  0  0  0  0  0  0  0  0  0  0  0
   15.6711    1.5693   -2.0915 C   0  0  0  0  0  0  0  0  0  0  0  0
   15.3832    2.0354   -0.7903 C   0  0  0  0  0  0  0  0  0  0  0  0
   15.3534    3.4188   -0.5357 C   0  0  0  0  0  0  0  0  0  0  0  0
   15.5968    4.3049   -1.5946 C   0  0  0  0  0  0  0  0  0  0  0  0
   15.8275    3.8920   -2.8511 N   0  0  0  0  0  0  0  0  0  0  0  0
   15.8598    2.5642   -3.0762 C   0  0  0  0  0  0  0  0  0  0  0  0
   15.3327   -0.8573   -1.5012 C   0  0  0  0  0  0  0  0  0  0  0  0
   13.2767   -3.0094   -0.6368 C   0  0  0  0  0  0  0  0  0  0  0  0
   12.3981   -3.0674   -1.5055 O   0  0  0  0  0  0  0  0  0  0  0  0
    0.0000    0.0000    0.0000 H   0  0  0  0  0  0  0  0  0  0  0  0
    0.0000    0.0000    0.0000 H   0  0  0  0  0  0  0  0  0  0  0  0
    0.0000    0.0000    0.0000 H   0  0  0  0  0  0  0  0  0  0  0  0
    0.0000    0.0000    0.0000 H   0  0  0  0  0  0  0  0  0  0  0  0
    0.0000    0.0000    0.0000 H   0  0  0  0  0  0  0  0  0  0  0  0
    0.0000    0.0000    0.0000 H   0  0  0  0  0  0  0  0  0  0  0  0
    0.0000    0.0000    0.0000 H   0  0  0  0  0  0  0  0  0  0  0  0
    0.0000    0.0000    0.0000 H   0  0  0  0  0  0  0  0  0  0  0  0
    0.0000    0.0000    0.0000 H   0  0  0  0  0  0  0  0  0  0  0  0
    0.0000    0.0000    0.0000 H   0  0  0  0  0  0  0  0  0  0  0  0
    0.0000    0.0000    0.0000 H   0  0  0  0  0  0  0  0  0  0  0  0
    0.0000    0.0000    0.0000 H   0  0  0  0  0  0  0  0  0  0  0  0
    0.0000    0.0000    0.0000 H   0  0  0  0  0  0  0  0  0  0  0  0
    0.0000    0.0000    0.0000 H   0  0  0  0  0  0  0  0  0  0  0  0
    6.9486   -1.5271   -0.3698 N   0  0  0  0  0  0  0  0  0  0  0  0
    6.7840   -1.0290    1.0040 C   0  0  0  0  0  0  0  0  0  0  0  0
    7.6597    0.1933    1.1992 C   0  0  0  0  0  0  0  0  0  0  0  0
    6.9758   -0.6728   -0.9709 H   0  0  0  0  0  0  0  0  0  0  0  0
    6.9957   -1.8262    1.7480 H   0  0  0  0  0  0  0  0  0  0  0  0
    5.7121   -0.7876    1.1039 H   0  0  0  0  0  0  0  0  0  0  0  0
    7.9518    0.6123    0.2141 H   0  0  0  0  0  0  0  0  0  0  0  0
    8.5988   -0.0936    1.7076 H   0  0  0  0  0  0  0  0  0  0  0  0
    7.1580    0.9740    1.8035 H   0  0  0  0  0  0  0  0  0  0  0  0
  1  2  1  0
  2  3  1  0
  2 19  1  0
  3  4  1  0
  3  5  2  0
  5  6  1  0
  6  7  1  0
  6 19  1  0
  7  8  2  0
  7 18  1  0
  8  9  1  0
  9 10  2  0
 10 11  1  0
 11 12  1  0
 11 18  2  0
 12 13  2  0
 12 17  1  0
 13 14  1  0
 14 15  2  0
 15 16  1  0
 16 17  2  0
 19 20  2  0
  1 21  1  0
  1 22  1  0
  1 23  1  0
  4 24  1  0
  4 25  1  0
  5 26  1  0
  8 27  1  0
  9 28  1  0
 10 29  1  0
 13 30  1  0
 14 31  1  0
 15 32  1  0
 17 33  1  0
 18 34  1  0
 35 36  1  0
 36 37  1  0
 35 38  1  0
 36 39  1  0
 36 40  1  0
 37 41  1  0
 37 42  1  0
 37 43  1  0
  6 35  1  6
M  CHG  1   5   1
M  END
>  <attachment_point>  (111) 
26

>  <score>  (111) 
<NA>

$$$$
CAT-4j
     RDKit          3D

 42 45  0  0  1  0  0  0  0  0999 V2000
   11.7106   -2.3098    1.2658 C   0  0  0  0  0  0  0  0  0  0  0  0
   13.0313   -2.6523    0.7225 N   0  0  0  0  0  0  0  0  0  0  0  0
   14.2010   -2.6281    1.3773 C   0  0  0  0  0  0  0  0  0  0  0  0
   14.3777   -2.3568    2.6732 N   0  0  0  0  0  0  0  0  0  0  0  0
   15.2217   -2.9197    0.5738 N   0  0  0  0  0  0  0  0  0  0  0  0
   14.7965   -3.2519   -0.7875 C   0  0  1  0  0  0  0  0  0  0  0  0
   15.3794   -2.2443   -1.7949 C   0  0  0  0  0  0  0  0  0  0  0  0
   15.9522   -2.6550   -3.0208 C   0  0  0  0  0  0  0  0  0  0  0  0
   16.4340   -1.6937   -3.9273 C   0  0  0  0  0  0  0  0  0  0  0  0
   16.3364   -0.3224   -3.6308 C   0  0  0  0  0  0  0  0  0  0  0  0
   15.7943    0.1250   -2.4073 C   0  0  0  0  0  0  0  0  0  0  0  0
   15.6711    1.5693   -2.0915 C   0  0  0  0  0  0  0  0  0  0  0  0
   15.3832    2.0354   -0.7903 C   0  0  0  0  0  0  0  0  0  0  0  0
   15.3534    3.4188   -0.5357 C   0  0  0  0  0  0  0  0  0  0  0  0
   15.5968    4.3049   -1.5946 C   0  0  0  0  0  0  0  0  0  0  0  0
   15.8275    3.8920   -2.8511 N   0  0  0  0  0  0  0  0  0  0  0  0
   15.8598    2.5642   -3.0762 C   0  0  0  0  0  0  0  0  0  0  0  0
   15.3327   -0.8573   -1.5012 C   0  0  0  0  0  0  0  0  0  0  0  0
   13.2767   -3.0094   -0.6368 C   0  0  0  0  0  0  0  0  0  0  0  0
   12.3981   -3.0674   -1.5055 O   0  0  0  0  0  0  0  0  0  0  0  0
    0.0000    0.0000    0.0000 H   0  0  0  0  0  0  0  0  0  0  0  0
    0.0000    0.0000    0.0000 H   0  0  0  0  0  0  0  0  0  0  0  0
    0.0000    0.0000    0.0000 H   0  0  0  0  0  0  0  0  0  0  0  0
    0.0000    0.0000    0.0000 H   0  0  0  0  0  0  0  0  0  0  0  0
    0.0000    0.0000    0.0000 H   0  0  0  0  0  0  0  0  0  0  0  0
    0.0000    0.0000    0.0000 H   0  0  0  0  0  0  0  0  0  0  0  0
    0.0000    0.0000    0.0000 H   0  0  0  0  0  0  0  0  0  0  0  0
    0.0000    0.0000    0.0000 H   0  0  0  0  0  0  0  0  0  0  0  0
    0.0000    0.0000    0.0000 H   0  0  0  0  0  0  0  0  0  0  0  0
    0.0000    0.0000    0.0000 H   0  0  0  0  0  0  0  0  0  0  0  0
    0.0000    0.0000    0.0000 H   0  0  0  0  0  0  0  0  0  0  0  0
    0.0000    0.0000    0.0000 H   0  0  0  0  0  0  0  0  0  0  0  0
    0.0000    0.0000    0.0000 H   0  0  0  0  0  0  0  0  0  0  0  0
    0.0000    0.0000    0.0000 H   0  0  0  0  0  0  0  0  0  0  0  0
    6.9135   -1.5194   -0.3679 C   0  0  0  0  0  0  0  0  0  0  0  0
    6.3672   -0.3374   -0.0615 C   0  0  0  0  0  0  0  0  0  0  0  0
    5.0216   -0.5602   -0.1252 N   0  0  0  0  0  0  0  0  0  0  0  0
    4.8072   -1.8449   -0.4618 N   0  0  0  0  0  0  0  0  0  0  0  0
    6.0144   -2.4699   -0.6200 C   0  0  0  0  0  0  0  0  0  0  0  0
    6.8241    0.6117    0.1884 H   0  0  0  0  0  0  0  0  0  0  0  0
    3.8442   -2.2129   -0.5620 H   0  0  0  0  0  0  0  0  0  0  0  0
    6.0915   -3.4971   -0.8881 H   0  0  0  0  0  0  0  0  0  0  0  0
  1  2  1  0
  2  3  1  0
  2 19  1  0
  3  4  1  0
  3  5  2  0
  5  6  1  0
  6  7  1  1
  6 19  1  0
  7  8  2  0
  7 18  1  0
  8  9  1  0
  9 10  2  0
 10 11  1  0
 11 12  1  0
 11 18  2  0
 12 13  2  0
 12 17  1  0
 13 14  1  0
 14 15  2  0
 15 16  1  0
 16 17  2  0
 19 20  2  0
  1 21  1  0
  1 22  1  0
  1 23  1  0
  4 24  1  0
  4 25  1  0
  5 26  1  0
  8 27  1  0
  9 28  1  0
 10 29  1  0
 13 30  1  0
 14 31  1  0
 15 32  1  0
 17 33  1  0
 18 34  1  0
 35 36  1  0
 36 37  2  0
 37 38  1  0
 38 39  1  0
 39 35  2  0
 36 40  1  0
 38 41  1  0
 39 42  1  0
  6 35  1  0
M  CHG  1   5   1
M  END
>  <attachment_point>  (112) 
26

>  <score>  (112) 
<NA>

$$$$
CAT-4j
     RDKit          3D

 42 45  0  0  1  0  0  0  0  0999 V2000
   11.7106   -2.3098    1.2658 C   0  0  0  0  0  0  0  0  0  0  0  0
   13.0313   -2.6523    0.7225 N   0  0  0  0  0  0  0  0  0  0  0  0
   14.2010   -2.6281    1.3773 C   0  0  0  0  0  0  0  0  0  0  0  0
   14.3777   -2.3568    2.6732 N   0  0  0  0  0  0  0  0  0  0  0  0
   15.2217   -2.9197    0.5738 N   0  0  0  0  0  0  0  0  0  0  0  0
   14.7965   -3.2519   -0.7875 C   0  0  1  0  0  0  0  0  0  0  0  0
   15.3794   -2.2443   -1.7949 C   0  0  0  0  0  0  0  0  0  0  0  0
   15.9522   -2.6550   -3.0208 C   0  0  0  0  0  0  0  0  0  0  0  0
   16.4340   -1.6937   -3.9273 C   0  0  0  0  0  0  0  0  0  0  0  0
   16.3364   -0.3224   -3.6308 C   0  0  0  0  0  0  0  0  0  0  0  0
   15.7943    0.1250   -2.4073 C   0  0  0  0  0  0  0  0  0  0  0  0
   15.6711    1.5693   -2.0915 C   0  0  0  0  0  0  0  0  0  0  0  0
   15.3832    2.0354   -0.7903 C   0  0  0  0  0  0  0  0  0  0  0  0
   15.3534    3.4188   -0.5357 C   0  0  0  0  0  0  0  0  0  0  0  0
   15.5968    4.3049   -1.5946 C   0  0  0  0  0  0  0  0  0  0  0  0
   15.8275    3.8920   -2.8511 N   0  0  0  0  0  0  0  0  0  0  0  0
   15.8598    2.5642   -3.0762 C   0  0  0  0  0  0  0  0  0  0  0  0
   15.3327   -0.8573   -1.5012 C   0  0  0  0  0  0  0  0  0  0  0  0
   13.2767   -3.0094   -0.6368 C   0  0  0  0  0  0  0  0  0  0  0  0
   12.3981   -3.0674   -1.5055 O   0  0  0  0  0  0  0  0  0  0  0  0
    0.0000    0.0000    0.0000 H   0  0  0  0  0  0  0  0  0  0  0  0
    0.0000    0.0000    0.0000 H   0  0  0  0  0  0  0  0  0  0  0  0
    0.0000    0.0000    0.0000 H   0  0  0  0  0  0  0  0  0  0  0  0
    0.0000    0.0000    0.0000 H   0  0  0  0  0  0  0  0  0  0  0  0
    0.0000    0.0000    0.0000 H   0  0  0  0  0  0  0  0  0  0  0  0
    0.0000    0.0000    0.0000 H   0  0  0  0  0  0  0  0  0  0  0  0
    0.0000    0.0000    0.0000 H   0  0  0  0  0  0  0  0  0  0  0  0
    0.0000    0.0000    0.0000 H   0  0  0  0  0  0  0  0  0  0  0  0
    0.0000    0.0000    0.0000 H   0  0  0  0  0  0  0  0  0  0  0  0
    0.0000    0.0000    0.0000 H   0  0  0  0  0  0  0  0  0  0  0  0
    0.0000    0.0000    0.0000 H   0  0  0  0  0  0  0  0  0  0  0  0
    0.0000    0.0000    0.0000 H   0  0  0  0  0  0  0  0  0  0  0  0
    0.0000    0.0000    0.0000 H   0  0  0  0  0  0  0  0  0  0  0  0
    0.0000    0.0000    0.0000 H   0  0  0  0  0  0  0  0  0  0  0  0
    6.9444   -1.5262   -0.3696 C   0  0  0  0  0  0  0  0  0  0  0  0
    5.9026   -2.3781   -0.5807 C   0  0  0  0  0  0  0  0  0  0  0  0
    4.7629   -1.6245   -0.3961 C   0  0  0  0  0  0  0  0  0  0  0  0
    5.1110   -0.4089   -0.0960 O   0  0  0  0  0  0  0  0  0  0  0  0
    6.4199   -0.3019   -0.0682 C   0  0  0  0  0  0  0  0  0  0  0  0
    5.9707   -3.4236   -0.8385 H   0  0  0  0  0  0  0  0  0  0  0  0
    3.7655   -1.9909   -0.4874 H   0  0  0  0  0  0  0  0  0  0  0  0
    6.9910    0.5800    0.1499 H   0  0  0  0  0  0  0  0  0  0  0  0
  1  2  1  0
  2  3  1  0
  2 19  1  0
  3  4  1  0
  3  5  2  0
  5  6  1  0
  6  7  1  1
  6 19  1  0
  7  8  2  0
  7 18  1  0
  8  9  1  0
  9 10  2  0
 10 11  1  0
 11 12  1  0
 11 18  2  0
 12 13  2  0
 12 17  1  0
 13 14  1  0
 14 15  2  0
 15 16  1  0
 16 17  2  0
 19 20  2  0
  1 21  1  0
  1 22  1  0
  1 23  1  0
  4 24  1  0
  4 25  1  0
  5 26  1  0
  8 27  1  0
  9 28  1  0
 10 29  1  0
 13 30  1  0
 14 31  1  0
 15 32  1  0
 17 33  1  0
 18 34  1  0
 35 36  1  0
 36 37  2  0
 37 38  1  0
 38 39  1  0
 39 35  2  0
 36 40  1  0
 37 41  1  0
 39 42  1  0
  6 35  1  0
M  CHG  1   5   1
M  END
>  <attachment_point>  (113) 
26

>  <score>  (113) 
<NA>

$$$$
CAT-4j
     RDKit          3D

 45 48  0  0  1  0  0  0  0  0999 V2000
   11.7106   -2.3098    1.2658 C   0  0  0  0  0  0  0  0  0  0  0  0
   13.0313   -2.6523    0.7225 N   0  0  0  0  0  0  0  0  0  0  0  0
   14.2010   -2.6281    1.3773 C   0  0  0  0  0  0  0  0  0  0  0  0
   14.3777   -2.3568    2.6732 N   0  0  0  0  0  0  0  0  0  0  0  0
   15.2217   -2.9197    0.5738 N   0  0  0  0  0  0  0  0  0  0  0  0
   14.7965   -3.2519   -0.7875 C   0  0  1  0  0  0  0  0  0  0  0  0
   15.3794   -2.2443   -1.7949 C   0  0  0  0  0  0  0  0  0  0  0  0
   15.9522   -2.6550   -3.0208 C   0  0  0  0  0  0  0  0  0  0  0  0
   16.4340   -1.6937   -3.9273 C   0  0  0  0  0  0  0  0  0  0  0  0
   16.3364   -0.3224   -3.6308 C   0  0  0  0  0  0  0  0  0  0  0  0
   15.7943    0.1250   -2.4073 C   0  0  0  0  0  0  0  0  0  0  0  0
   15.6711    1.5693   -2.0915 C   0  0  0  0  0  0  0  0  0  0  0  0
   15.3832    2.0354   -0.7903 C   0  0  0  0  0  0  0  0  0  0  0  0
   15.3534    3.4188   -0.5357 C   0  0  0  0  0  0  0  0  0  0  0  0
   15.5968    4.3049   -1.5946 C   0  0  0  0  0  0  0  0  0  0  0  0
   15.8275    3.8920   -2.8511 N   0  0  0  0  0  0  0  0  0  0  0  0
   15.8598    2.5642   -3.0762 C   0  0  0  0  0  0  0  0  0  0  0  0
   15.3327   -0.8573   -1.5012 C   0  0  0  0  0  0  0  0  0  0  0  0
   13.2767   -3.0094   -0.6368 C   0  0  0  0  0  0  0  0  0  0  0  0
   12.3981   -3.0674   -1.5055 O   0  0  0  0  0  0  0  0  0  0  0  0
    0.0000    0.0000    0.0000 H   0  0  0  0  0  0  0  0  0  0  0  0
    0.0000    0.0000    0.0000 H   0  0  0  0  0  0  0  0  0  0  0  0
    0.0000    0.0000    0.0000 H   0  0  0  0  0  0  0  0  0  0  0  0
    0.0000    0.0000    0.0000 H   0  0  0  0  0  0  0  0  0  0  0  0
    0.0000    0.0000    0.0000 H   0  0  0  0  0  0  0  0  0  0  0  0
    0.0000    0.0000    0.0000 H   0  0  0  0  0  0  0  0  0  0  0  0
    0.0000    0.0000    0.0000 H   0  0  0  0  0  0  0  0  0  0  0  0
    0.0000    0.0000    0.0000 H   0  0  0  0  0  0  0  0  0  0  0  0
    0.0000    0.0000    0.0000 H   0  0  0  0  0  0  0  0  0  0  0  0
    0.0000    0.0000    0.0000 H   0  0  0  0  0  0  0  0  0  0  0  0
    0.0000    0.0000    0.0000 H   0  0  0  0  0  0  0  0  0  0  0  0
    0.0000    0.0000    0.0000 H   0  0  0  0  0  0  0  0  0  0  0  0
    0.0000    0.0000    0.0000 H   0  0  0  0  0  0  0  0  0  0  0  0
    0.0000    0.0000    0.0000 H   0  0  0  0  0  0  0  0  0  0  0  0
    7.0041   -1.5393   -0.3728 C   0  0  0  0  0  0  0  0  0  0  0  0
    6.2038   -2.0658   -1.4894 N   0  0  0  0  0  0  0  0  0  0  0  0
    5.9381   -1.4412   -2.6511 C   0  0  0  0  0  0  0  0  0  0  0  0
    5.1566   -2.2433   -3.4567 C   0  0  0  0  0  0  0  0  0  0  0  0
    4.9558   -3.3709   -2.7517 N   0  0  0  0  0  0  0  0  0  0  0  0
    5.5930   -3.2623   -1.5554 C   0  0  0  0  0  0  0  0  0  0  0  0
    6.8125   -0.4448   -0.3674 H   0  0  0  0  0  0  0  0  0  0  0  0
    6.5321   -1.9943    0.5466 H   0  0  0  0  0  0  0  0  0  0  0  0
    6.2744   -0.4580   -2.9358 H   0  0  0  0  0  0  0  0  0  0  0  0
    4.7785   -2.0251   -4.4462 H   0  0  0  0  0  0  0  0  0  0  0  0
    5.6249   -3.9906   -0.7696 H   0  0  0  0  0  0  0  0  0  0  0  0
  1  2  1  0
  2  3  1  0
  2 19  1  0
  3  4  1  0
  3  5  2  0
  5  6  1  0
  6  7  1  0
  6 19  1  0
  7  8  2  0
  7 18  1  0
  8  9  1  0
  9 10  2  0
 10 11  1  0
 11 12  1  0
 11 18  2  0
 12 13  2  0
 12 17  1  0
 13 14  1  0
 14 15  2  0
 15 16  1  0
 16 17  2  0
 19 20  2  0
  1 21  1  0
  1 22  1  0
  1 23  1  0
  4 24  1  0
  4 25  1  0
  5 26  1  0
  8 27  1  0
  9 28  1  0
 10 29  1  0
 13 30  1  0
 14 31  1  0
 15 32  1  0
 17 33  1  0
 18 34  1  0
 35 36  1  0
 36 37  1  0
 37 38  2  0
 38 39  1  0
 39 40  2  0
 40 36  1  0
 35 41  1  0
 35 42  1  0
 37 43  1  0
 38 44  1  0
 40 45  1  0
  6 35  1  6
M  CHG  1   5   1
M  END
>  <attachment_point>  (114) 
26

>  <score>  (114) 
<NA>

$$$$
CAT-4j
     RDKit          3D

 42 45  0  0  1  0  0  0  0  0999 V2000
   11.7106   -2.3098    1.2658 C   0  0  0  0  0  0  0  0  0  0  0  0
   13.0313   -2.6523    0.7225 N   0  0  0  0  0  0  0  0  0  0  0  0
   14.2010   -2.6281    1.3773 C   0  0  0  0  0  0  0  0  0  0  0  0
   14.3777   -2.3568    2.6732 N   0  0  0  0  0  0  0  0  0  0  0  0
   15.2217   -2.9197    0.5738 N   0  0  0  0  0  0  0  0  0  0  0  0
   14.7965   -3.2519   -0.7875 C   0  0  1  0  0  0  0  0  0  0  0  0
   15.3794   -2.2443   -1.7949 C   0  0  0  0  0  0  0  0  0  0  0  0
   15.9522   -2.6550   -3.0208 C   0  0  0  0  0  0  0  0  0  0  0  0
   16.4340   -1.6937   -3.9273 C   0  0  0  0  0  0  0  0  0  0  0  0
   16.3364   -0.3224   -3.6308 C   0  0  0  0  0  0  0  0  0  0  0  0
   15.7943    0.1250   -2.4073 C   0  0  0  0  0  0  0  0  0  0  0  0
   15.6711    1.5693   -2.0915 C   0  0  0  0  0  0  0  0  0  0  0  0
   15.3832    2.0354   -0.7903 C   0  0  0  0  0  0  0  0  0  0  0  0
   15.3534    3.4188   -0.5357 C   0  0  0  0  0  0  0  0  0  0  0  0
   15.5968    4.3049   -1.5946 C   0  0  0  0  0  0  0  0  0  0  0  0
   15.8275    3.8920   -2.8511 N   0  0  0  0  0  0  0  0  0  0  0  0
   15.8598    2.5642   -3.0762 C   0  0  0  0  0  0  0  0  0  0  0  0
   15.3327   -0.8573   -1.5012 C   0  0  0  0  0  0  0  0  0  0  0  0
   13.2767   -3.0094   -0.6368 C   0  0  0  0  0  0  0  0  0  0  0  0
   12.3981   -3.0674   -1.5055 O   0  0  0  0  0  0  0  0  0  0  0  0
    0.0000    0.0000    0.0000 H   0  0  0  0  0  0  0  0  0  0  0  0
    0.0000    0.0000    0.0000 H   0  0  0  0  0  0  0  0  0  0  0  0
    0.0000    0.0000    0.0000 H   0  0  0  0  0  0  0  0  0  0  0  0
    0.0000    0.0000    0.0000 H   0  0  0  0  0  0  0  0  0  0  0  0
    0.0000    0.0000    0.0000 H   0  0  0  0  0  0  0  0  0  0  0  0
    0.0000    0.0000    0.0000 H   0  0  0  0  0  0  0  0  0  0  0  0
    0.0000    0.0000    0.0000 H   0  0  0  0  0  0  0  0  0  0  0  0
    0.0000    0.0000    0.0000 H   0  0  0  0  0  0  0  0  0  0  0  0
    0.0000    0.0000    0.0000 H   0  0  0  0  0  0  0  0  0  0  0  0
    0.0000    0.0000    0.0000 H   0  0  0  0  0  0  0  0  0  0  0  0
    0.0000    0.0000    0.0000 H   0  0  0  0  0  0  0  0  0  0  0  0
    0.0000    0.0000    0.0000 H   0  0  0  0  0  0  0  0  0  0  0  0
    0.0000    0.0000    0.0000 H   0  0  0  0  0  0  0  0  0  0  0  0
    0.0000    0.0000    0.0000 H   0  0  0  0  0  0  0  0  0  0  0  0
    6.9386   -1.5249   -0.3693 C   0  0  0  0  0  0  0  0  0  0  0  0
    6.4847   -0.2830   -0.0861 C   0  0  0  0  0  0  0  0  0  0  0  0
    5.1294   -0.1142   -0.0432 C   0  0  0  0  0  0  0  0  0  0  0  0
    4.5404   -1.6696   -0.3941 S   0  0  0  0  0  0  0  0  0  0  0  0
    6.0089   -2.5019   -0.5878 C   0  0  0  0  0  0  0  0  0  0  0  0
    7.2369    0.5346    0.0969 H   0  0  0  0  0  0  0  0  0  0  0  0
    4.6214    0.8264    0.1719 H   0  0  0  0  0  0  0  0  0  0  0  0
    6.2320   -3.5334   -0.8225 H   0  0  0  0  0  0  0  0  0  0  0  0
  1  2  1  0
  2  3  1  0
  2 19  1  0
  3  4  1  0
  3  5  2  0
  5  6  1  0
  6  7  1  1
  6 19  1  0
  7  8  2  0
  7 18  1  0
  8  9  1  0
  9 10  2  0
 10 11  1  0
 11 12  1  0
 11 18  2  0
 12 13  2  0
 12 17  1  0
 13 14  1  0
 14 15  2  0
 15 16  1  0
 16 17  2  0
 19 20  2  0
  1 21  1  0
  1 22  1  0
  1 23  1  0
  4 24  1  0
  4 25  1  0
  5 26  1  0
  8 27  1  0
  9 28  1  0
 10 29  1  0
 13 30  1  0
 14 31  1  0
 15 32  1  0
 17 33  1  0
 18 34  1  0
 35 36  1  0
 36 37  2  0
 37 38  1  0
 38 39  1  0
 39 35  2  0
 36 40  1  0
 37 41  1  0
 39 42  1  0
  6 35  1  0
M  CHG  1   5   1
M  END
>  <attachment_point>  (115) 
26

>  <score>  (115) 
<NA>

$$$$
CAT-4j
     RDKit          3D

 48 51  0  0  1  0  0  0  0  0999 V2000
   11.7106   -2.3098    1.2658 C   0  0  0  0  0  0  0  0  0  0  0  0
   13.0313   -2.6523    0.7225 N   0  0  0  0  0  0  0  0  0  0  0  0
   14.2010   -2.6281    1.3773 C   0  0  0  0  0  0  0  0  0  0  0  0
   14.3777   -2.3568    2.6732 N   0  0  0  0  0  0  0  0  0  0  0  0
   15.2217   -2.9197    0.5738 N   0  0  0  0  0  0  0  0  0  0  0  0
   14.7965   -3.2519   -0.7875 C   0  0  1  0  0  0  0  0  0  0  0  0
   15.3794   -2.2443   -1.7949 C   0  0  0  0  0  0  0  0  0  0  0  0
   15.9522   -2.6550   -3.0208 C   0  0  0  0  0  0  0  0  0  0  0  0
   16.4340   -1.6937   -3.9273 C   0  0  0  0  0  0  0  0  0  0  0  0
   16.3364   -0.3224   -3.6308 C   0  0  0  0  0  0  0  0  0  0  0  0
   15.7943    0.1250   -2.4073 C   0  0  0  0  0  0  0  0  0  0  0  0
   15.6711    1.5693   -2.0915 C   0  0  0  0  0  0  0  0  0  0  0  0
   15.3832    2.0354   -0.7903 C   0  0  0  0  0  0  0  0  0  0  0  0
   15.3534    3.4188   -0.5357 C   0  0  0  0  0  0  0  0  0  0  0  0
   15.5968    4.3049   -1.5946 C   0  0  0  0  0  0  0  0  0  0  0  0
   15.8275    3.8920   -2.8511 N   0  0  0  0  0  0  0  0  0  0  0  0
   15.8598    2.5642   -3.0762 C   0  0  0  0  0  0  0  0  0  0  0  0
   15.3327   -0.8573   -1.5012 C   0  0  0  0  0  0  0  0  0  0  0  0
   13.2767   -3.0094   -0.6368 C   0  0  0  0  0  0  0  0  0  0  0  0
   12.3981   -3.0674   -1.5055 O   0  0  0  0  0  0  0  0  0  0  0  0
    0.0000    0.0000    0.0000 H   0  0  0  0  0  0  0  0  0  0  0  0
    0.0000    0.0000    0.0000 H   0  0  0  0  0  0  0  0  0  0  0  0
    0.0000    0.0000    0.0000 H   0  0  0  0  0  0  0  0  0  0  0  0
    0.0000    0.0000    0.0000 H   0  0  0  0  0  0  0  0  0  0  0  0
    0.0000    0.0000    0.0000 H   0  0  0  0  0  0  0  0  0  0  0  0
    0.0000    0.0000    0.0000 H   0  0  0  0  0  0  0  0  0  0  0  0
    0.0000    0.0000    0.0000 H   0  0  0  0  0  0  0  0  0  0  0  0
    0.0000    0.0000    0.0000 H   0  0  0  0  0  0  0  0  0  0  0  0
    0.0000    0.0000    0.0000 H   0  0  0  0  0  0  0  0  0  0  0  0
    0.0000    0.0000    0.0000 H   0  0  0  0  0  0  0  0  0  0  0  0
    0.0000    0.0000    0.0000 H   0  0  0  0  0  0  0  0  0  0  0  0
    0.0000    0.0000    0.0000 H   0  0  0  0  0  0  0  0  0  0  0  0
    0.0000    0.0000    0.0000 H   0  0  0  0  0  0  0  0  0  0  0  0
    0.0000    0.0000    0.0000 H   0  0  0  0  0  0  0  0  0  0  0  0
    6.9414   -1.5255   -0.3694 C   0  0  0  0  0  0  0  0  0  0  0  0
    6.6556   -0.2545    0.0190 C   0  0  0  0  0  0  0  0  0  0  0  0
    5.2955    0.0487    0.0928 C   0  0  0  0  0  0  0  0  0  0  0  0
    4.3086   -0.8611   -0.2029 C   0  0  0  0  0  0  0  0  0  0  0  0
    2.9042   -0.4776   -0.1051 C   0  0  0  0  0  0  0  0  0  0  0  0
    2.6401    0.6922    0.2525 O   0  0  0  0  0  0  0  0  0  0  0  0
    1.8527   -1.3295   -0.3838 O   0  0  0  0  0  0  0  0  0  0  0  0
    4.6648   -2.1381   -0.5922 C   0  0  0  0  0  0  0  0  0  0  0  0
    6.0162   -2.4819   -0.6785 C   0  0  0  0  0  0  0  0  0  0  0  0
    7.4106    0.4693    0.2539 H   0  0  0  0  0  0  0  0  0  0  0  0
    4.9975    1.0411    0.3950 H   0  0  0  0  0  0  0  0  0  0  0  0
    0.9487   -1.2667    0.1083 H   0  0  0  0  0  0  0  0  0  0  0  0
    3.8836   -2.8398   -0.8205 H   0  0  0  0  0  0  0  0  0  0  0  0
    6.2965   -3.4929   -0.9868 H   0  0  0  0  0  0  0  0  0  0  0  0
  1  2  1  0
  2  3  1  0
  2 19  1  0
  3  4  1  0
  3  5  2  0
  5  6  1  0
  6  7  1  1
  6 19  1  0
  7  8  2  0
  7 18  1  0
  8  9  1  0
  9 10  2  0
 10 11  1  0
 11 12  1  0
 11 18  2  0
 12 13  2  0
 12 17  1  0
 13 14  1  0
 14 15  2  0
 15 16  1  0
 16 17  2  0
 19 20  2  0
  1 21  1  0
  1 22  1  0
  1 23  1  0
  4 24  1  0
  4 25  1  0
  5 26  1  0
  8 27  1  0
  9 28  1  0
 10 29  1  0
 13 30  1  0
 14 31  1  0
 15 32  1  0
 17 33  1  0
 18 34  1  0
 35 36  2  0
 36 37  1  0
 37 38  2  0
 38 39  1  0
 39 40  2  0
 39 41  1  0
 38 42  1  0
 42 43  2  0
 43 35  1  0
 36 44  1  0
 37 45  1  0
 41 46  1  0
 42 47  1  0
 43 48  1  0
  6 35  1  0
M  CHG  1   5   1
M  END
>  <attachment_point>  (116) 
26

>  <score>  (116) 
<NA>

$$$$
CAT-4j
     RDKit          3D

 39 41  0  0  1  0  0  0  0  0999 V2000
   11.7106   -2.3098    1.2658 C   0  0  0  0  0  0  0  0  0  0  0  0
   13.0313   -2.6523    0.7225 N   0  0  0  0  0  0  0  0  0  0  0  0
   14.2010   -2.6281    1.3773 C   0  0  0  0  0  0  0  0  0  0  0  0
   14.3777   -2.3568    2.6732 N   0  0  0  0  0  0  0  0  0  0  0  0
   15.2217   -2.9197    0.5738 N   0  0  0  0  0  0  0  0  0  0  0  0
   14.7965   -3.2519   -0.7875 C   0  0  1  0  0  0  0  0  0  0  0  0
   15.3794   -2.2443   -1.7949 C   0  0  0  0  0  0  0  0  0  0  0  0
   15.9522   -2.6550   -3.0208 C   0  0  0  0  0  0  0  0  0  0  0  0
   16.4340   -1.6937   -3.9273 C   0  0  0  0  0  0  0  0  0  0  0  0
   16.3364   -0.3224   -3.6308 C   0  0  0  0  0  0  0  0  0  0  0  0
   15.7943    0.1250   -2.4073 C   0  0  0  0  0  0  0  0  0  0  0  0
   15.6711    1.5693   -2.0915 C   0  0  0  0  0  0  0  0  0  0  0  0
   15.3832    2.0354   -0.7903 C   0  0  0  0  0  0  0  0  0  0  0  0
   15.3534    3.4188   -0.5357 C   0  0  0  0  0  0  0  0  0  0  0  0
   15.5968    4.3049   -1.5946 C   0  0  0  0  0  0  0  0  0  0  0  0
   15.8275    3.8920   -2.8511 N   0  0  0  0  0  0  0  0  0  0  0  0
   15.8598    2.5642   -3.0762 C   0  0  0  0  0  0  0  0  0  0  0  0
   15.3327   -0.8573   -1.5012 C   0  0  0  0  0  0  0  0  0  0  0  0
   13.2767   -3.0094   -0.6368 C   0  0  0  0  0  0  0  0  0  0  0  0
   12.3981   -3.0674   -1.5055 O   0  0  0  0  0  0  0  0  0  0  0  0
    0.0000    0.0000    0.0000 H   0  0  0  0  0  0  0  0  0  0  0  0
    0.0000    0.0000    0.0000 H   0  0  0  0  0  0  0  0  0  0  0  0
    0.0000    0.0000    0.0000 H   0  0  0  0  0  0  0  0  0  0  0  0
    0.0000    0.0000    0.0000 H   0  0  0  0  0  0  0  0  0  0  0  0
    0.0000    0.0000    0.0000 H   0  0  0  0  0  0  0  0  0  0  0  0
    0.0000    0.0000    0.0000 H   0  0  0  0  0  0  0  0  0  0  0  0
    0.0000    0.0000    0.0000 H   0  0  0  0  0  0  0  0  0  0  0  0
    0.0000    0.0000    0.0000 H   0  0  0  0  0  0  0  0  0  0  0  0
    0.0000    0.0000    0.0000 H   0  0  0  0  0  0  0  0  0  0  0  0
    0.0000    0.0000    0.0000 H   0  0  0  0  0  0  0  0  0  0  0  0
    0.0000    0.0000    0.0000 H   0  0  0  0  0  0  0  0  0  0  0  0
    0.0000    0.0000    0.0000 H   0  0  0  0  0  0  0  0  0  0  0  0
    0.0000    0.0000    0.0000 H   0  0  0  0  0  0  0  0  0  0  0  0
    0.0000    0.0000    0.0000 H   0  0  0  0  0  0  0  0  0  0  0  0
    6.8992   -1.5163   -0.3672 B   0  0  0  0  0  0  0  0  0  0  0  0
    6.2127   -1.6778   -1.6558 O   0  0  0  0  0  0  0  0  0  0  0  0
    6.7645   -0.2082    0.2745 O   0  0  0  0  0  0  0  0  0  0  0  0
    6.2276   -0.8235   -2.1322 H   0  0  0  0  0  0  0  0  0  0  0  0
    6.3159   -0.3760    1.1460 H   0  0  0  0  0  0  0  0  0  0  0  0
  1  2  1  0
  2  3  1  0
  2 19  1  0
  3  4  1  0
  3  5  2  0
  5  6  1  0
  6  7  1  0
  6 19  1  0
  7  8  2  0
  7 18  1  0
  8  9  1  0
  9 10  2  0
 10 11  1  0
 11 12  1  0
 11 18  2  0
 12 13  2  0
 12 17  1  0
 13 14  1  0
 14 15  2  0
 15 16  1  0
 16 17  2  0
 19 20  2  0
  1 21  1  0
  1 22  1  0
  1 23  1  0
  4 24  1  0
  4 25  1  0
  5 26  1  0
  8 27  1  0
  9 28  1  0
 10 29  1  0
 13 30  1  0
 14 31  1  0
 15 32  1  0
 17 33  1  0
 18 34  1  0
 35 36  1  0
 35 37  1  0
 36 38  1  0
 37 39  1  0
  6 35  1  6
M  CHG  1   5   1
M  END
>  <attachment_point>  (117) 
26

>  <score>  (117) 
<NA>

$$$$
CAT-4j
     RDKit          3D

 42 44  0  0  1  0  0  0  0  0999 V2000
   11.7106   -2.3098    1.2658 C   0  0  0  0  0  0  0  0  0  0  0  0
   13.0313   -2.6523    0.7225 N   0  0  0  0  0  0  0  0  0  0  0  0
   14.2010   -2.6281    1.3773 C   0  0  0  0  0  0  0  0  0  0  0  0
   14.3777   -2.3568    2.6732 N   0  0  0  0  0  0  0  0  0  0  0  0
   15.2217   -2.9197    0.5738 N   0  0  0  0  0  0  0  0  0  0  0  0
   14.7965   -3.2519   -0.7875 C   0  0  1  0  0  0  0  0  0  0  0  0
   15.3794   -2.2443   -1.7949 C   0  0  0  0  0  0  0  0  0  0  0  0
   15.9522   -2.6550   -3.0208 C   0  0  0  0  0  0  0  0  0  0  0  0
   16.4340   -1.6937   -3.9273 C   0  0  0  0  0  0  0  0  0  0  0  0
   16.3364   -0.3224   -3.6308 C   0  0  0  0  0  0  0  0  0  0  0  0
   15.7943    0.1250   -2.4073 C   0  0  0  0  0  0  0  0  0  0  0  0
   15.6711    1.5693   -2.0915 C   0  0  0  0  0  0  0  0  0  0  0  0
   15.3832    2.0354   -0.7903 C   0  0  0  0  0  0  0  0  0  0  0  0
   15.3534    3.4188   -0.5357 C   0  0  0  0  0  0  0  0  0  0  0  0
   15.5968    4.3049   -1.5946 C   0  0  0  0  0  0  0  0  0  0  0  0
   15.8275    3.8920   -2.8511 N   0  0  0  0  0  0  0  0  0  0  0  0
   15.8598    2.5642   -3.0762 C   0  0  0  0  0  0  0  0  0  0  0  0
   15.3327   -0.8573   -1.5012 C   0  0  0  0  0  0  0  0  0  0  0  0
   13.2767   -3.0094   -0.6368 C   0  0  0  0  0  0  0  0  0  0  0  0
   12.3981   -3.0674   -1.5055 O   0  0  0  0  0  0  0  0  0  0  0  0
    0.0000    0.0000    0.0000 H   0  0  0  0  0  0  0  0  0  0  0  0
    0.0000    0.0000    0.0000 H   0  0  0  0  0  0  0  0  0  0  0  0
    0.0000    0.0000    0.0000 H   0  0  0  0  0  0  0  0  0  0  0  0
    0.0000    0.0000    0.0000 H   0  0  0  0  0  0  0  0  0  0  0  0
    0.0000    0.0000    0.0000 H   0  0  0  0  0  0  0  0  0  0  0  0
    0.0000    0.0000    0.0000 H   0  0  0  0  0  0  0  0  0  0  0  0
    0.0000    0.0000    0.0000 H   0  0  0  0  0  0  0  0  0  0  0  0
    0.0000    0.0000    0.0000 H   0  0  0  0  0  0  0  0  0  0  0  0
    0.0000    0.0000    0.0000 H   0  0  0  0  0  0  0  0  0  0  0  0
    0.0000    0.0000    0.0000 H   0  0  0  0  0  0  0  0  0  0  0  0
    0.0000    0.0000    0.0000 H   0  0  0  0  0  0  0  0  0  0  0  0
    0.0000    0.0000    0.0000 H   0  0  0  0  0  0  0  0  0  0  0  0
    0.0000    0.0000    0.0000 H   0  0  0  0  0  0  0  0  0  0  0  0
    0.0000    0.0000    0.0000 H   0  0  0  0  0  0  0  0  0  0  0  0
    7.1052   -1.5615   -0.3782 O   0  0  0  0  0  0  0  0  0  0  0  0
    6.6437   -0.3082   -0.0234 C   0  0  0  0  0  0  0  0  0  0  0  0
    5.1680   -0.2330   -0.0162 C   0  0  0  0  0  0  0  0  0  0  0  0
    4.4426   -1.2066   -0.3023 O   0  0  0  0  0  0  0  0  0  0  0  0
    4.5678    0.9680    0.3222 O   0  0  0  0  0  0  0  0  0  0  0  0
    7.0546   -0.0739    0.9677 H   0  0  0  0  0  0  0  0  0  0  0  0
    7.0983    0.4262   -0.7463 H   0  0  0  0  0  0  0  0  0  0  0  0
    3.6728    1.0145    0.7897 H   0  0  0  0  0  0  0  0  0  0  0  0
  1  2  1  0
  2  3  1  0
  2 19  1  0
  3  4  1  0
  3  5  2  0
  5  6  1  0
  6  7  1  0
  6 19  1  0
  7  8  2  0
  7 18  1  0
  8  9  1  0
  9 10  2  0
 10 11  1  0
 11 12  1  0
 11 18  2  0
 12 13  2  0
 12 17  1  0
 13 14  1  0
 14 15  2  0
 15 16  1  0
 16 17  2  0
 19 20  2  0
  1 21  1  0
  1 22  1  0
  1 23  1  0
  4 24  1  0
  4 25  1  0
  5 26  1  0
  8 27  1  0
  9 28  1  0
 10 29  1  0
 13 30  1  0
 14 31  1  0
 15 32  1  0
 17 33  1  0
 18 34  1  0
 35 36  1  0
 36 37  1  0
 37 38  2  0
 37 39  1  0
 36 40  1  0
 36 41  1  0
 39 42  1  0
  6 35  1  6
M  CHG  1   5   1
M  END
>  <attachment_point>  (118) 
26

>  <score>  (118) 
<NA>

$$$$
CAT-4j
     RDKit          3D

 39 41  0  0  1  0  0  0  0  0999 V2000
   11.7106   -2.3098    1.2658 C   0  0  0  0  0  0  0  0  0  0  0  0
   13.0313   -2.6523    0.7225 N   0  0  0  0  0  0  0  0  0  0  0  0
   14.2010   -2.6281    1.3773 C   0  0  0  0  0  0  0  0  0  0  0  0
   14.3777   -2.3568    2.6732 N   0  0  0  0  0  0  0  0  0  0  0  0
   15.2217   -2.9197    0.5738 N   0  0  0  0  0  0  0  0  0  0  0  0
   14.7965   -3.2519   -0.7875 C   0  0  1  0  0  0  0  0  0  0  0  0
   15.3794   -2.2443   -1.7949 C   0  0  0  0  0  0  0  0  0  0  0  0
   15.9522   -2.6550   -3.0208 C   0  0  0  0  0  0  0  0  0  0  0  0
   16.4340   -1.6937   -3.9273 C   0  0  0  0  0  0  0  0  0  0  0  0
   16.3364   -0.3224   -3.6308 C   0  0  0  0  0  0  0  0  0  0  0  0
   15.7943    0.1250   -2.4073 C   0  0  0  0  0  0  0  0  0  0  0  0
   15.6711    1.5693   -2.0915 C   0  0  0  0  0  0  0  0  0  0  0  0
   15.3832    2.0354   -0.7903 C   0  0  0  0  0  0  0  0  0  0  0  0
   15.3534    3.4188   -0.5357 C   0  0  0  0  0  0  0  0  0  0  0  0
   15.5968    4.3049   -1.5946 C   0  0  0  0  0  0  0  0  0  0  0  0
   15.8275    3.8920   -2.8511 N   0  0  0  0  0  0  0  0  0  0  0  0
   15.8598    2.5642   -3.0762 C   0  0  0  0  0  0  0  0  0  0  0  0
   15.3327   -0.8573   -1.5012 C   0  0  0  0  0  0  0  0  0  0  0  0
   13.2767   -3.0094   -0.6368 C   0  0  0  0  0  0  0  0  0  0  0  0
   12.3981   -3.0674   -1.5055 O   0  0  0  0  0  0  0  0  0  0  0  0
    0.0000    0.0000    0.0000 H   0  0  0  0  0  0  0  0  0  0  0  0
    0.0000    0.0000    0.0000 H   0  0  0  0  0  0  0  0  0  0  0  0
    0.0000    0.0000    0.0000 H   0  0  0  0  0  0  0  0  0  0  0  0
    0.0000    0.0000    0.0000 H   0  0  0  0  0  0  0  0  0  0  0  0
    0.0000    0.0000    0.0000 H   0  0  0  0  0  0  0  0  0  0  0  0
    0.0000    0.0000    0.0000 H   0  0  0  0  0  0  0  0  0  0  0  0
    0.0000    0.0000    0.0000 H   0  0  0  0  0  0  0  0  0  0  0  0
    0.0000    0.0000    0.0000 H   0  0  0  0  0  0  0  0  0  0  0  0
    0.0000    0.0000    0.0000 H   0  0  0  0  0  0  0  0  0  0  0  0
    0.0000    0.0000    0.0000 H   0  0  0  0  0  0  0  0  0  0  0  0
    0.0000    0.0000    0.0000 H   0  0  0  0  0  0  0  0  0  0  0  0
    0.0000    0.0000    0.0000 H   0  0  0  0  0  0  0  0  0  0  0  0
    0.0000    0.0000    0.0000 H   0  0  0  0  0  0  0  0  0  0  0  0
    0.0000    0.0000    0.0000 H   0  0  0  0  0  0  0  0  0  0  0  0
    7.0036   -1.5392   -0.3727 C   0  0  0  0  0  0  0  0  0  0  0  0
    6.5819   -0.3408    0.0133 C   0  0  0  0  0  0  0  0  0  0  0  0
    6.2620   -2.2884   -0.6330 H   0  0  0  0  0  0  0  0  0  0  0  0
    7.2999    0.4267    0.2792 H   0  0  0  0  0  0  0  0  0  0  0  0
    5.5247   -0.1087    0.0695 H   0  0  0  0  0  0  0  0  0  0  0  0
  1  2  1  0
  2  3  1  0
  2 19  1  0
  3  4  1  0
  3  5  2  0
  5  6  1  0
  6  7  1  1
  6 19  1  0
  7  8  2  0
  7 18  1  0
  8  9  1  0
  9 10  2  0
 10 11  1  0
 11 12  1  0
 11 18  2  0
 12 13  2  0
 12 17  1  0
 13 14  1  0
 14 15  2  0
 15 16  1  0
 16 17  2  0
 19 20  2  0
  1 21  1  0
  1 22  1  0
  1 23  1  0
  4 24  1  0
  4 25  1  0
  5 26  1  0
  8 27  1  0
  9 28  1  0
 10 29  1  0
 13 30  1  0
 14 31  1  0
 15 32  1  0
 17 33  1  0
 18 34  1  0
 35 36  2  3
 35 37  1  0
 36 38  1  0
 36 39  1  0
  6 35  1  0
M  CHG  1   5   1
M  END
>  <attachment_point>  (119) 
26

>  <score>  (119) 
<NA>

$$$$
CAT-4j
     RDKit          3D

 52 55  0  0  1  0  0  0  0  0999 V2000
   11.7106   -2.3098    1.2658 C   0  0  0  0  0  0  0  0  0  0  0  0
   13.0313   -2.6523    0.7225 N   0  0  0  0  0  0  0  0  0  0  0  0
   14.2010   -2.6281    1.3773 C   0  0  0  0  0  0  0  0  0  0  0  0
   14.3777   -2.3568    2.6732 N   0  0  0  0  0  0  0  0  0  0  0  0
   15.2217   -2.9197    0.5738 N   0  0  0  0  0  0  0  0  0  0  0  0
   14.7965   -3.2519   -0.7875 C   0  0  1  0  0  0  0  0  0  0  0  0
   15.3794   -2.2443   -1.7949 C   0  0  0  0  0  0  0  0  0  0  0  0
   15.9522   -2.6550   -3.0208 C   0  0  0  0  0  0  0  0  0  0  0  0
   16.4340   -1.6937   -3.9273 C   0  0  0  0  0  0  0  0  0  0  0  0
   16.3364   -0.3224   -3.6308 C   0  0  0  0  0  0  0  0  0  0  0  0
   15.7943    0.1250   -2.4073 C   0  0  0  0  0  0  0  0  0  0  0  0
   15.6711    1.5693   -2.0915 C   0  0  0  0  0  0  0  0  0  0  0  0
   15.3832    2.0354   -0.7903 C   0  0  0  0  0  0  0  0  0  0  0  0
   15.3534    3.4188   -0.5357 C   0  0  0  0  0  0  0  0  0  0  0  0
   15.5968    4.3049   -1.5946 C   0  0  0  0  0  0  0  0  0  0  0  0
   15.8275    3.8920   -2.8511 N   0  0  0  0  0  0  0  0  0  0  0  0
   15.8598    2.5642   -3.0762 C   0  0  0  0  0  0  0  0  0  0  0  0
   15.3327   -0.8573   -1.5012 C   0  0  0  0  0  0  0  0  0  0  0  0
   13.2767   -3.0094   -0.6368 C   0  0  0  0  0  0  0  0  0  0  0  0
   12.3981   -3.0674   -1.5055 O   0  0  0  0  0  0  0  0  0  0  0  0
    0.0000    0.0000    0.0000 H   0  0  0  0  0  0  0  0  0  0  0  0
    0.0000    0.0000    0.0000 H   0  0  0  0  0  0  0  0  0  0  0  0
    0.0000    0.0000    0.0000 H   0  0  0  0  0  0  0  0  0  0  0  0
    0.0000    0.0000    0.0000 H   0  0  0  0  0  0  0  0  0  0  0  0
    0.0000    0.0000    0.0000 H   0  0  0  0  0  0  0  0  0  0  0  0
    0.0000    0.0000    0.0000 H   0  0  0  0  0  0  0  0  0  0  0  0
    0.0000    0.0000    0.0000 H   0  0  0  0  0  0  0  0  0  0  0  0
    0.0000    0.0000    0.0000 H   0  0  0  0  0  0  0  0  0  0  0  0
    0.0000    0.0000    0.0000 H   0  0  0  0  0  0  0  0  0  0  0  0
    0.0000    0.0000    0.0000 H   0  0  0  0  0  0  0  0  0  0  0  0
    0.0000    0.0000    0.0000 H   0  0  0  0  0  0  0  0  0  0  0  0
    0.0000    0.0000    0.0000 H   0  0  0  0  0  0  0  0  0  0  0  0
    0.0000    0.0000    0.0000 H   0  0  0  0  0  0  0  0  0  0  0  0
    0.0000    0.0000    0.0000 H   0  0  0  0  0  0  0  0  0  0  0  0
    6.8543   -1.5064   -0.3648 C   0  0  0  0  0  0  0  0  0  0  0  0
    6.2053   -2.3128   -0.9573 O   0  0  0  0  0  0  0  0  0  0  0  0
    6.6500   -0.3653    0.3704 N   0  0  0  0  0  0  0  0  0  0  0  0
    7.7607    0.3574    0.9500 C   0  0  0  0  0  0  0  0  0  0  0  0
    7.5955    1.8500    0.8000 C   0  0  0  0  0  0  0  0  0  0  0  0
    6.3357    2.3200    1.4476 C   0  0  0  0  0  0  0  0  0  0  0  0
    5.3068    1.2520    1.6364 C   0  0  0  0  0  0  0  0  0  0  0  0
    5.3471    0.1645    0.6009 C   0  0  0  0  0  0  0  0  0  0  0  0
    7.7541    0.1286    2.0332 H   0  0  0  0  0  0  0  0  0  0  0  0
    8.7205    0.0712    0.4786 H   0  0  0  0  0  0  0  0  0  0  0  0
    8.4661    2.3186    1.3235 H   0  0  0  0  0  0  0  0  0  0  0  0
    7.6608    2.1729   -0.2604 H   0  0  0  0  0  0  0  0  0  0  0  0
    6.5484    2.7718    2.4422 H   0  0  0  0  0  0  0  0  0  0  0  0
    5.9136    3.1626    0.8315 H   0  0  0  0  0  0  0  0  0  0  0  0
    5.4518    0.8007    2.6494 H   0  0  0  0  0  0  0  0  0  0  0  0
    4.3078    1.7308    1.5704 H   0  0  0  0  0  0  0  0  0  0  0  0
    4.8315    0.5348   -0.3075 H   0  0  0  0  0  0  0  0  0  0  0  0
    4.6977   -0.6689    1.0043 H   0  0  0  0  0  0  0  0  0  0  0  0
  1  2  1  0
  2  3  1  0
  2 19  1  0
  3  4  1  0
  3  5  2  0
  5  6  1  0
  6  7  1  0
  6 19  1  0
  7  8  2  0
  7 18  1  0
  8  9  1  0
  9 10  2  0
 10 11  1  0
 11 12  1  0
 11 18  2  0
 12 13  2  0
 12 17  1  0
 13 14  1  0
 14 15  2  0
 15 16  1  0
 16 17  2  0
 19 20  2  0
  1 21  1  0
  1 22  1  0
  1 23  1  0
  4 24  1  0
  4 25  1  0
  5 26  1  0
  8 27  1  0
  9 28  1  0
 10 29  1  0
 13 30  1  0
 14 31  1  0
 15 32  1  0
 17 33  1  0
 18 34  1  0
 35 36  2  0
 35 37  1  0
 37 38  1  0
 38 39  1  0
 39 40  1  0
 40 41  1  0
 41 42  1  0
 42 37  1  0
 38 43  1  0
 38 44  1  0
 39 45  1  0
 39 46  1  0
 40 47  1  0
 40 48  1  0
 41 49  1  0
 41 50  1  0
 42 51  1  0
 42 52  1  0
  6 35  1  6
M  CHG  1   5   1
M  END
>  <attachment_point>  (120) 
26

>  <score>  (120) 
<NA>

$$$$
CAT-4j
     RDKit          3D

 49 52  0  0  1  0  0  0  0  0999 V2000
   11.7106   -2.3098    1.2658 C   0  0  0  0  0  0  0  0  0  0  0  0
   13.0313   -2.6523    0.7225 N   0  0  0  0  0  0  0  0  0  0  0  0
   14.2010   -2.6281    1.3773 C   0  0  0  0  0  0  0  0  0  0  0  0
   14.3777   -2.3568    2.6732 N   0  0  0  0  0  0  0  0  0  0  0  0
   15.2217   -2.9197    0.5738 N   0  0  0  0  0  0  0  0  0  0  0  0
   14.7965   -3.2519   -0.7875 C   0  0  1  0  0  0  0  0  0  0  0  0
   15.3794   -2.2443   -1.7949 C   0  0  0  0  0  0  0  0  0  0  0  0
   15.9522   -2.6550   -3.0208 C   0  0  0  0  0  0  0  0  0  0  0  0
   16.4340   -1.6937   -3.9273 C   0  0  0  0  0  0  0  0  0  0  0  0
   16.3364   -0.3224   -3.6308 C   0  0  0  0  0  0  0  0  0  0  0  0
   15.7943    0.1250   -2.4073 C   0  0  0  0  0  0  0  0  0  0  0  0
   15.6711    1.5693   -2.0915 C   0  0  0  0  0  0  0  0  0  0  0  0
   15.3832    2.0354   -0.7903 C   0  0  0  0  0  0  0  0  0  0  0  0
   15.3534    3.4188   -0.5357 C   0  0  0  0  0  0  0  0  0  0  0  0
   15.5968    4.3049   -1.5946 C   0  0  0  0  0  0  0  0  0  0  0  0
   15.8275    3.8920   -2.8511 N   0  0  0  0  0  0  0  0  0  0  0  0
   15.8598    2.5642   -3.0762 C   0  0  0  0  0  0  0  0  0  0  0  0
   15.3327   -0.8573   -1.5012 C   0  0  0  0  0  0  0  0  0  0  0  0
   13.2767   -3.0094   -0.6368 C   0  0  0  0  0  0  0  0  0  0  0  0
   12.3981   -3.0674   -1.5055 O   0  0  0  0  0  0  0  0  0  0  0  0
    0.0000    0.0000    0.0000 H   0  0  0  0  0  0  0  0  0  0  0  0
    0.0000    0.0000    0.0000 H   0  0  0  0  0  0  0  0  0  0  0  0
    0.0000    0.0000    0.0000 H   0  0  0  0  0  0  0  0  0  0  0  0
    0.0000    0.0000    0.0000 H   0  0  0  0  0  0  0  0  0  0  0  0
    0.0000    0.0000    0.0000 H   0  0  0  0  0  0  0  0  0  0  0  0
    0.0000    0.0000    0.0000 H   0  0  0  0  0  0  0  0  0  0  0  0
    0.0000    0.0000    0.0000 H   0  0  0  0  0  0  0  0  0  0  0  0
    0.0000    0.0000    0.0000 H   0  0  0  0  0  0  0  0  0  0  0  0
    0.0000    0.0000    0.0000 H   0  0  0  0  0  0  0  0  0  0  0  0
    0.0000    0.0000    0.0000 H   0  0  0  0  0  0  0  0  0  0  0  0
    0.0000    0.0000    0.0000 H   0  0  0  0  0  0  0  0  0  0  0  0
    0.0000    0.0000    0.0000 H   0  0  0  0  0  0  0  0  0  0  0  0
    0.0000    0.0000    0.0000 H   0  0  0  0  0  0  0  0  0  0  0  0
    0.0000    0.0000    0.0000 H   0  0  0  0  0  0  0  0  0  0  0  0
    6.8471   -1.5048   -0.3644 C   0  0  0  0  0  0  0  0  0  0  0  0
    6.1848   -2.3776   -1.0069 C   0  0  0  0  0  0  0  0  0  0  0  0
    6.8147   -3.5210   -1.7092 C   0  0  0  0  0  0  0  0  0  0  0  0
    6.0625   -4.4465   -2.3952 C   0  0  0  0  0  0  0  0  0  0  0  0
    6.6321   -5.5151   -3.0533 C   0  0  0  0  0  0  0  0  0  0  0  0
    7.9973   -5.6942   -3.0455 C   0  0  0  0  0  0  0  0  0  0  0  0
    8.7643   -4.7745   -2.3619 C   0  0  0  0  0  0  0  0  0  0  0  0
    8.1800   -3.6948   -1.6978 C   0  0  0  0  0  0  0  0  0  0  0  0
    6.7719   -0.6635    0.1884 H   0  0  0  0  0  0  0  0  0  0  0  0
    5.0978   -2.2686   -1.0354 H   0  0  0  0  0  0  0  0  0  0  0  0
    4.9871   -4.3022   -2.3992 H   0  0  0  0  0  0  0  0  0  0  0  0
    6.0273   -6.2415   -3.5930 H   0  0  0  0  0  0  0  0  0  0  0  0
    8.4316   -6.5392   -3.5674 H   0  0  0  0  0  0  0  0  0  0  0  0
    9.8312   -4.9191   -2.3588 H   0  0  0  0  0  0  0  0  0  0  0  0
    8.7989   -2.9740   -1.1605 H   0  0  0  0  0  0  0  0  0  0  0  0
  1  2  1  0
  2  3  1  0
  2 19  1  0
  3  4  1  0
  3  5  2  0
  5  6  1  0
  6  7  1  1
  6 19  1  0
  7  8  2  0
  7 18  1  0
  8  9  1  0
  9 10  2  0
 10 11  1  0
 11 12  1  0
 11 18  2  0
 12 13  2  0
 12 17  1  0
 13 14  1  0
 14 15  2  0
 15 16  1  0
 16 17  2  0
 19 20  2  0
  1 21  1  0
  1 22  1  0
  1 23  1  0
  4 24  1  0
  4 25  1  0
  5 26  1  0
  8 27  1  0
  9 28  1  0
 10 29  1  0
 13 30  1  0
 14 31  1  0
 15 32  1  0
 17 33  1  0
 18 34  1  0
 35 36  2  3
 36 37  1  0
 37 38  2  0
 38 39  1  0
 39 40  2  0
 40 41  1  0
 41 42  2  0
 42 37  1  0
 35 43  1  0
 36 44  1  0
 38 45  1  0
 39 46  1  0
 40 47  1  0
 41 48  1  0
 42 49  1  0
  6 35  1  0
M  CHG  1   5   1
M  END
>  <attachment_point>  (121) 
26

>  <score>  (121) 
<NA>

$$$$
CAT-4j
     RDKit          3D

 48 51  0  0  1  0  0  0  0  0999 V2000
   11.7106   -2.3098    1.2658 C   0  0  0  0  0  0  0  0  0  0  0  0
   13.0313   -2.6523    0.7225 N   0  0  0  0  0  0  0  0  0  0  0  0
   14.2010   -2.6281    1.3773 C   0  0  0  0  0  0  0  0  0  0  0  0
   14.3777   -2.3568    2.6732 N   0  0  0  0  0  0  0  0  0  0  0  0
   15.2217   -2.9197    0.5738 N   0  0  0  0  0  0  0  0  0  0  0  0
   14.7965   -3.2519   -0.7875 C   0  0  1  0  0  0  0  0  0  0  0  0
   15.3794   -2.2443   -1.7949 C   0  0  0  0  0  0  0  0  0  0  0  0
   15.9522   -2.6550   -3.0208 C   0  0  0  0  0  0  0  0  0  0  0  0
   16.4340   -1.6937   -3.9273 C   0  0  0  0  0  0  0  0  0  0  0  0
   16.3364   -0.3224   -3.6308 C   0  0  0  0  0  0  0  0  0  0  0  0
   15.7943    0.1250   -2.4073 C   0  0  0  0  0  0  0  0  0  0  0  0
   15.6711    1.5693   -2.0915 C   0  0  0  0  0  0  0  0  0  0  0  0
   15.3832    2.0354   -0.7903 C   0  0  0  0  0  0  0  0  0  0  0  0
   15.3534    3.4188   -0.5357 C   0  0  0  0  0  0  0  0  0  0  0  0
   15.5968    4.3049   -1.5946 C   0  0  0  0  0  0  0  0  0  0  0  0
   15.8275    3.8920   -2.8511 N   0  0  0  0  0  0  0  0  0  0  0  0
   15.8598    2.5642   -3.0762 C   0  0  0  0  0  0  0  0  0  0  0  0
   15.3327   -0.8573   -1.5012 C   0  0  0  0  0  0  0  0  0  0  0  0
   13.2767   -3.0094   -0.6368 C   0  0  0  0  0  0  0  0  0  0  0  0
   12.3981   -3.0674   -1.5055 O   0  0  0  0  0  0  0  0  0  0  0  0
    0.0000    0.0000    0.0000 H   0  0  0  0  0  0  0  0  0  0  0  0
    0.0000    0.0000    0.0000 H   0  0  0  0  0  0  0  0  0  0  0  0
    0.0000    0.0000    0.0000 H   0  0  0  0  0  0  0  0  0  0  0  0
    0.0000    0.0000    0.0000 H   0  0  0  0  0  0  0  0  0  0  0  0
    0.0000    0.0000    0.0000 H   0  0  0  0  0  0  0  0  0  0  0  0
    0.0000    0.0000    0.0000 H   0  0  0  0  0  0  0  0  0  0  0  0
    0.0000    0.0000    0.0000 H   0  0  0  0  0  0  0  0  0  0  0  0
    0.0000    0.0000    0.0000 H   0  0  0  0  0  0  0  0  0  0  0  0
    0.0000    0.0000    0.0000 H   0  0  0  0  0  0  0  0  0  0  0  0
    0.0000    0.0000    0.0000 H   0  0  0  0  0  0  0  0  0  0  0  0
    0.0000    0.0000    0.0000 H   0  0  0  0  0  0  0  0  0  0  0  0
    0.0000    0.0000    0.0000 H   0  0  0  0  0  0  0  0  0  0  0  0
    0.0000    0.0000    0.0000 H   0  0  0  0  0  0  0  0  0  0  0  0
    0.0000    0.0000    0.0000 H   0  0  0  0  0  0  0  0  0  0  0  0
    6.9346   -1.5241   -0.3691 C   0  0  0  0  0  0  0  0  0  0  0  0
    6.7374   -0.6112    0.7683 C   0  0  0  0  0  0  0  0  0  0  0  0
    6.8141    0.7557    0.5695 C   0  0  0  0  0  0  0  0  0  0  0  0
    6.6392    1.6627    1.5923 C   0  0  0  0  0  0  0  0  0  0  0  0
    6.3779    1.2276    2.8673 C   0  0  0  0  0  0  0  0  0  0  0  0
    6.1968    2.0912    3.9159 F   0  0  0  0  0  0  0  0  0  0  0  0
    6.2962   -0.1285    3.0941 C   0  0  0  0  0  0  0  0  0  0  0  0
    6.4742   -1.0398    2.0541 C   0  0  0  0  0  0  0  0  0  0  0  0
    6.5328   -2.5377   -0.1894 H   0  0  0  0  0  0  0  0  0  0  0  0
    6.6559   -1.0971   -1.3311 H   0  0  0  0  0  0  0  0  0  0  0  0
    7.0201    1.1229   -0.4327 H   0  0  0  0  0  0  0  0  0  0  0  0
    6.7113    2.7169    1.3721 H   0  0  0  0  0  0  0  0  0  0  0  0
    6.0921   -0.5566    4.0779 H   0  0  0  0  0  0  0  0  0  0  0  0
    6.4134   -2.1097    2.2147 H   0  0  0  0  0  0  0  0  0  0  0  0
  1  2  1  0
  2  3  1  0
  2 19  1  0
  3  4  1  0
  3  5  2  0
  5  6  1  0
  6  7  1  0
  6 19  1  0
  7  8  2  0
  7 18  1  0
  8  9  1  0
  9 10  2  0
 10 11  1  0
 11 12  1  0
 11 18  2  0
 12 13  2  0
 12 17  1  0
 13 14  1  0
 14 15  2  0
 15 16  1  0
 16 17  2  0
 19 20  2  0
  1 21  1  0
  1 22  1  0
  1 23  1  0
  4 24  1  0
  4 25  1  0
  5 26  1  0
  8 27  1  0
  9 28  1  0
 10 29  1  0
 13 30  1  0
 14 31  1  0
 15 32  1  0
 17 33  1  0
 18 34  1  0
 35 36  1  0
 36 37  2  0
 37 38  1  0
 38 39  2  0
 39 40  1  0
 39 41  1  0
 41 42  2  0
 42 36  1  0
 35 43  1  0
 35 44  1  0
 37 45  1  0
 38 46  1  0
 41 47  1  0
 42 48  1  0
  6 35  1  6
M  CHG  1   5   1
M  END
>  <attachment_point>  (122) 
26

>  <score>  (122) 
<NA>

$$$$
CAT-4j
     RDKit          3D

 43 45  0  0  1  0  0  0  0  0999 V2000
   11.7106   -2.3098    1.2658 C   0  0  0  0  0  0  0  0  0  0  0  0
   13.0313   -2.6523    0.7225 N   0  0  0  0  0  0  0  0  0  0  0  0
   14.2010   -2.6281    1.3773 C   0  0  0  0  0  0  0  0  0  0  0  0
   14.3777   -2.3568    2.6732 N   0  0  0  0  0  0  0  0  0  0  0  0
   15.2217   -2.9197    0.5738 N   0  0  0  0  0  0  0  0  0  0  0  0
   14.7965   -3.2519   -0.7875 C   0  0  1  0  0  0  0  0  0  0  0  0
   15.3794   -2.2443   -1.7949 C   0  0  0  0  0  0  0  0  0  0  0  0
   15.9522   -2.6550   -3.0208 C   0  0  0  0  0  0  0  0  0  0  0  0
   16.4340   -1.6937   -3.9273 C   0  0  0  0  0  0  0  0  0  0  0  0
   16.3364   -0.3224   -3.6308 C   0  0  0  0  0  0  0  0  0  0  0  0
   15.7943    0.1250   -2.4073 C   0  0  0  0  0  0  0  0  0  0  0  0
   15.6711    1.5693   -2.0915 C   0  0  0  0  0  0  0  0  0  0  0  0
   15.3832    2.0354   -0.7903 C   0  0  0  0  0  0  0  0  0  0  0  0
   15.3534    3.4188   -0.5357 C   0  0  0  0  0  0  0  0  0  0  0  0
   15.5968    4.3049   -1.5946 C   0  0  0  0  0  0  0  0  0  0  0  0
   15.8275    3.8920   -2.8511 N   0  0  0  0  0  0  0  0  0  0  0  0
   15.8598    2.5642   -3.0762 C   0  0  0  0  0  0  0  0  0  0  0  0
   15.3327   -0.8573   -1.5012 C   0  0  0  0  0  0  0  0  0  0  0  0
   13.2767   -3.0094   -0.6368 C   0  0  0  0  0  0  0  0  0  0  0  0
   12.3981   -3.0674   -1.5055 O   0  0  0  0  0  0  0  0  0  0  0  0
    0.0000    0.0000    0.0000 H   0  0  0  0  0  0  0  0  0  0  0  0
    0.0000    0.0000    0.0000 H   0  0  0  0  0  0  0  0  0  0  0  0
    0.0000    0.0000    0.0000 H   0  0  0  0  0  0  0  0  0  0  0  0
    0.0000    0.0000    0.0000 H   0  0  0  0  0  0  0  0  0  0  0  0
    0.0000    0.0000    0.0000 H   0  0  0  0  0  0  0  0  0  0  0  0
    0.0000    0.0000    0.0000 H   0  0  0  0  0  0  0  0  0  0  0  0
    0.0000    0.0000    0.0000 H   0  0  0  0  0  0  0  0  0  0  0  0
    0.0000    0.0000    0.0000 H   0  0  0  0  0  0  0  0  0  0  0  0
    0.0000    0.0000    0.0000 H   0  0  0  0  0  0  0  0  0  0  0  0
    0.0000    0.0000    0.0000 H   0  0  0  0  0  0  0  0  0  0  0  0
    0.0000    0.0000    0.0000 H   0  0  0  0  0  0  0  0  0  0  0  0
    0.0000    0.0000    0.0000 H   0  0  0  0  0  0  0  0  0  0  0  0
    0.0000    0.0000    0.0000 H   0  0  0  0  0  0  0  0  0  0  0  0
    0.0000    0.0000    0.0000 H   0  0  0  0  0  0  0  0  0  0  0  0
    7.1327   -1.5676   -0.3796 O   0  0  0  0  0  0  0  0  0  0  0  0
    6.4277   -0.3927   -0.2492 C   0  0  0  0  0  0  0  0  0  0  0  0
    4.9270   -0.6739   -0.2257 C   0  0  0  0  0  0  0  0  0  0  0  0
    4.5113   -1.3028   -1.4046 O   0  0  0  0  0  0  0  0  0  0  0  0
    6.6199    0.3519   -1.0313 H   0  0  0  0  0  0  0  0  0  0  0  0
    6.6581    0.0499    0.7495 H   0  0  0  0  0  0  0  0  0  0  0  0
    4.6581   -1.2248    0.6731 H   0  0  0  0  0  0  0  0  0  0  0  0
    4.4276    0.3225   -0.1577 H   0  0  0  0  0  0  0  0  0  0  0  0
    4.0044   -2.1087   -1.1226 H   0  0  0  0  0  0  0  0  0  0  0  0
  1  2  1  0
  2  3  1  0
  2 19  1  0
  3  4  1  0
  3  5  2  0
  5  6  1  0
  6  7  1  0
  6 19  1  0
  7  8  2  0
  7 18  1  0
  8  9  1  0
  9 10  2  0
 10 11  1  0
 11 12  1  0
 11 18  2  0
 12 13  2  0
 12 17  1  0
 13 14  1  0
 14 15  2  0
 15 16  1  0
 16 17  2  0
 19 20  2  0
  1 21  1  0
  1 22  1  0
  1 23  1  0
  4 24  1  0
  4 25  1  0
  5 26  1  0
  8 27  1  0
  9 28  1  0
 10 29  1  0
 13 30  1  0
 14 31  1  0
 15 32  1  0
 17 33  1  0
 18 34  1  0
 35 36  1  0
 36 37  1  0
 37 38  1  0
 36 39  1  0
 36 40  1  0
 37 41  1  0
 37 42  1  0
 38 43  1  0
  6 35  1  6
M  CHG  1   5   1
M  END
>  <attachment_point>  (123) 
26

>  <score>  (123) 
<NA>

$$$$
CAT-4j
     RDKit          3D

 50 52  0  0  1  0  0  0  0  0999 V2000
   11.7106   -2.3098    1.2658 C   0  0  0  0  0  0  0  0  0  0  0  0
   13.0313   -2.6523    0.7225 N   0  0  0  0  0  0  0  0  0  0  0  0
   14.2010   -2.6281    1.3773 C   0  0  0  0  0  0  0  0  0  0  0  0
   14.3777   -2.3568    2.6732 N   0  0  0  0  0  0  0  0  0  0  0  0
   15.2217   -2.9197    0.5738 N   0  0  0  0  0  0  0  0  0  0  0  0
   14.7965   -3.2519   -0.7875 C   0  0  1  0  0  0  0  0  0  0  0  0
   15.3794   -2.2443   -1.7949 C   0  0  0  0  0  0  0  0  0  0  0  0
   15.9522   -2.6550   -3.0208 C   0  0  0  0  0  0  0  0  0  0  0  0
   16.4340   -1.6937   -3.9273 C   0  0  0  0  0  0  0  0  0  0  0  0
   16.3364   -0.3224   -3.6308 C   0  0  0  0  0  0  0  0  0  0  0  0
   15.7943    0.1250   -2.4073 C   0  0  0  0  0  0  0  0  0  0  0  0
   15.6711    1.5693   -2.0915 C   0  0  0  0  0  0  0  0  0  0  0  0
   15.3832    2.0354   -0.7903 C   0  0  0  0  0  0  0  0  0  0  0  0
   15.3534    3.4188   -0.5357 C   0  0  0  0  0  0  0  0  0  0  0  0
   15.5968    4.3049   -1.5946 C   0  0  0  0  0  0  0  0  0  0  0  0
   15.8275    3.8920   -2.8511 N   0  0  0  0  0  0  0  0  0  0  0  0
   15.8598    2.5642   -3.0762 C   0  0  0  0  0  0  0  0  0  0  0  0
   15.3327   -0.8573   -1.5012 C   0  0  0  0  0  0  0  0  0  0  0  0
   13.2767   -3.0094   -0.6368 C   0  0  0  0  0  0  0  0  0  0  0  0
   12.3981   -3.0674   -1.5055 O   0  0  0  0  0  0  0  0  0  0  0  0
    0.0000    0.0000    0.0000 H   0  0  0  0  0  0  0  0  0  0  0  0
    0.0000    0.0000    0.0000 H   0  0  0  0  0  0  0  0  0  0  0  0
    0.0000    0.0000    0.0000 H   0  0  0  0  0  0  0  0  0  0  0  0
    0.0000    0.0000    0.0000 H   0  0  0  0  0  0  0  0  0  0  0  0
    0.0000    0.0000    0.0000 H   0  0  0  0  0  0  0  0  0  0  0  0
    0.0000    0.0000    0.0000 H   0  0  0  0  0  0  0  0  0  0  0  0
    0.0000    0.0000    0.0000 H   0  0  0  0  0  0  0  0  0  0  0  0
    0.0000    0.0000    0.0000 H   0  0  0  0  0  0  0  0  0  0  0  0
    0.0000    0.0000    0.0000 H   0  0  0  0  0  0  0  0  0  0  0  0
    0.0000    0.0000    0.0000 H   0  0  0  0  0  0  0  0  0  0  0  0
    0.0000    0.0000    0.0000 H   0  0  0  0  0  0  0  0  0  0  0  0
    0.0000    0.0000    0.0000 H   0  0  0  0  0  0  0  0  0  0  0  0
    0.0000    0.0000    0.0000 H   0  0  0  0  0  0  0  0  0  0  0  0
    0.0000    0.0000    0.0000 H   0  0  0  0  0  0  0  0  0  0  0  0
    6.9759   -1.5331   -0.3713 O   0  0  0  0  0  0  0  0  0  0  0  0
    6.5733   -1.1455   -1.6614 C   0  0  0  0  0  0  0  0  0  0  0  0
    5.0946   -1.0754   -1.7470 C   0  0  0  0  0  0  0  0  0  0  0  0
    4.4367   -0.1548   -0.8683 N   0  0  0  0  0  0  0  0  0  0  0  0
    3.0002   -0.2995   -0.9079 C   0  0  0  0  0  0  0  0  0  0  0  0
    4.8734    1.2097   -1.0269 C   0  0  0  0  0  0  0  0  0  0  0  0
    6.9027   -1.9366   -2.3987 H   0  0  0  0  0  0  0  0  0  0  0  0
    7.1319   -0.2433   -1.9317 H   0  0  0  0  0  0  0  0  0  0  0  0
    4.7591   -0.8073   -2.7864 H   0  0  0  0  0  0  0  0  0  0  0  0
    4.6733   -2.0806   -1.5442 H   0  0  0  0  0  0  0  0  0  0  0  0
    2.7819   -1.1760   -0.2294 H   0  0  0  0  0  0  0  0  0  0  0  0
    2.4533    0.5514   -0.5411 H   0  0  0  0  0  0  0  0  0  0  0  0
    2.6228   -0.6053   -1.9057 H   0  0  0  0  0  0  0  0  0  0  0  0
    5.8536    1.3858   -0.5618 H   0  0  0  0  0  0  0  0  0  0  0  0
    4.1256    1.8717   -0.5905 H   0  0  0  0  0  0  0  0  0  0  0  0
    5.0151    1.3807   -2.1433 H   0  0  0  0  0  0  0  0  0  0  0  0
  1  2  1  0
  2  3  1  0
  2 19  1  0
  3  4  1  0
  3  5  2  0
  5  6  1  0
  6  7  1  0
  6 19  1  0
  7  8  2  0
  7 18  1  0
  8  9  1  0
  9 10  2  0
 10 11  1  0
 11 12  1  0
 11 18  2  0
 12 13  2  0
 12 17  1  0
 13 14  1  0
 14 15  2  0
 15 16  1  0
 16 17  2  0
 19 20  2  0
  1 21  1  0
  1 22  1  0
  1 23  1  0
  4 24  1  0
  4 25  1  0
  5 26  1  0
  8 27  1  0
  9 28  1  0
 10 29  1  0
 13 30  1  0
 14 31  1  0
 15 32  1  0
 17 33  1  0
 18 34  1  0
 35 36  1  0
 36 37  1  0
 37 38  1  0
 38 39  1  0
 38 40  1  0
 36 41  1  0
 36 42  1  0
 37 43  1  0
 37 44  1  0
 39 45  1  0
 39 46  1  0
 39 47  1  0
 40 48  1  0
 40 49  1  0
 40 50  1  0
  6 35  1  6
M  CHG  1   5   1
M  END
>  <attachment_point>  (124) 
26

>  <score>  (124) 
<NA>

$$$$
CAT-4j
     RDKit          3D

 47 50  0  0  1  0  0  0  0  0999 V2000
   11.7106   -2.3098    1.2658 C   0  0  0  0  0  0  0  0  0  0  0  0
   13.0313   -2.6523    0.7225 N   0  0  0  0  0  0  0  0  0  0  0  0
   14.2010   -2.6281    1.3773 C   0  0  0  0  0  0  0  0  0  0  0  0
   14.3777   -2.3568    2.6732 N   0  0  0  0  0  0  0  0  0  0  0  0
   15.2217   -2.9197    0.5738 N   0  0  0  0  0  0  0  0  0  0  0  0
   14.7965   -3.2519   -0.7875 C   0  0  1  0  0  0  0  0  0  0  0  0
   15.3794   -2.2443   -1.7949 C   0  0  0  0  0  0  0  0  0  0  0  0
   15.9522   -2.6550   -3.0208 C   0  0  0  0  0  0  0  0  0  0  0  0
   16.4340   -1.6937   -3.9273 C   0  0  0  0  0  0  0  0  0  0  0  0
   16.3364   -0.3224   -3.6308 C   0  0  0  0  0  0  0  0  0  0  0  0
   15.7943    0.1250   -2.4073 C   0  0  0  0  0  0  0  0  0  0  0  0
   15.6711    1.5693   -2.0915 C   0  0  0  0  0  0  0  0  0  0  0  0
   15.3832    2.0354   -0.7903 C   0  0  0  0  0  0  0  0  0  0  0  0
   15.3534    3.4188   -0.5357 C   0  0  0  0  0  0  0  0  0  0  0  0
   15.5968    4.3049   -1.5946 C   0  0  0  0  0  0  0  0  0  0  0  0
   15.8275    3.8920   -2.8511 N   0  0  0  0  0  0  0  0  0  0  0  0
   15.8598    2.5642   -3.0762 C   0  0  0  0  0  0  0  0  0  0  0  0
   15.3327   -0.8573   -1.5012 C   0  0  0  0  0  0  0  0  0  0  0  0
   13.2767   -3.0094   -0.6368 C   0  0  0  0  0  0  0  0  0  0  0  0
   12.3981   -3.0674   -1.5055 O   0  0  0  0  0  0  0  0  0  0  0  0
    0.0000    0.0000    0.0000 H   0  0  0  0  0  0  0  0  0  0  0  0
    0.0000    0.0000    0.0000 H   0  0  0  0  0  0  0  0  0  0  0  0
    0.0000    0.0000    0.0000 H   0  0  0  0  0  0  0  0  0  0  0  0
    0.0000    0.0000    0.0000 H   0  0  0  0  0  0  0  0  0  0  0  0
    0.0000    0.0000    0.0000 H   0  0  0  0  0  0  0  0  0  0  0  0
    0.0000    0.0000    0.0000 H   0  0  0  0  0  0  0  0  0  0  0  0
    0.0000    0.0000    0.0000 H   0  0  0  0  0  0  0  0  0  0  0  0
    0.0000    0.0000    0.0000 H   0  0  0  0  0  0  0  0  0  0  0  0
    0.0000    0.0000    0.0000 H   0  0  0  0  0  0  0  0  0  0  0  0
    0.0000    0.0000    0.0000 H   0  0  0  0  0  0  0  0  0  0  0  0
    0.0000    0.0000    0.0000 H   0  0  0  0  0  0  0  0  0  0  0  0
    0.0000    0.0000    0.0000 H   0  0  0  0  0  0  0  0  0  0  0  0
    0.0000    0.0000    0.0000 H   0  0  0  0  0  0  0  0  0  0  0  0
    0.0000    0.0000    0.0000 H   0  0  0  0  0  0  0  0  0  0  0  0
    6.9407   -1.5254   -0.3694 C   0  0  0  0  0  0  0  0  0  0  0  0
    6.0378   -2.5477   -0.2135 C   0  0  0  0  0  0  0  0  0  0  0  0
    4.6734   -2.2347   -0.1420 C   0  0  0  0  0  0  0  0  0  0  0  0
    4.2531   -0.9121   -0.2281 C   0  0  0  0  0  0  0  0  0  0  0  0
    2.8679   -0.6120   -0.1539 N   0  0  0  0  0  0  0  0  0  0  0  0
    5.2088    0.0695   -0.3842 C   0  0  0  0  0  0  0  0  0  0  0  0
    6.5722   -0.2130   -0.4584 C   0  0  0  0  0  0  0  0  0  0  0  0
    6.3215   -3.5690   -0.1440 H   0  0  0  0  0  0  0  0  0  0  0  0
    3.9199   -2.9984   -0.0198 H   0  0  0  0  0  0  0  0  0  0  0  0
    2.4201   -0.0721   -0.9167 H   0  0  0  0  0  0  0  0  0  0  0  0
    2.2911   -0.9222    0.6498 H   0  0  0  0  0  0  0  0  0  0  0  0
    4.8413    1.0971   -0.4482 H   0  0  0  0  0  0  0  0  0  0  0  0
    7.2650    0.5996   -0.5804 H   0  0  0  0  0  0  0  0  0  0  0  0
  1  2  1  0
  2  3  1  0
  2 19  1  0
  3  4  1  0
  3  5  2  0
  5  6  1  0
  6  7  1  1
  6 19  1  0
  7  8  2  0
  7 18  1  0
  8  9  1  0
  9 10  2  0
 10 11  1  0
 11 12  1  0
 11 18  2  0
 12 13  2  0
 12 17  1  0
 13 14  1  0
 14 15  2  0
 15 16  1  0
 16 17  2  0
 19 20  2  0
  1 21  1  0
  1 22  1  0
  1 23  1  0
  4 24  1  0
  4 25  1  0
  5 26  1  0
  8 27  1  0
  9 28  1  0
 10 29  1  0
 13 30  1  0
 14 31  1  0
 15 32  1  0
 17 33  1  0
 18 34  1  0
 35 36  2  0
 36 37  1  0
 37 38  2  0
 38 39  1  0
 38 40  1  0
 40 41  2  0
 41 35  1  0
 36 42  1  0
 37 43  1  0
 39 44  1  0
 39 45  1  0
 40 46  1  0
 41 47  1  0
  6 35  1  0
M  CHG  1   5   1
M  END
>  <attachment_point>  (125) 
26

>  <score>  (125) 
<NA>

$$$$
CAT-4j
     RDKit          3D

 48 51  0  0  1  0  0  0  0  0999 V2000
   11.7106   -2.3098    1.2658 C   0  0  0  0  0  0  0  0  0  0  0  0
   13.0313   -2.6523    0.7225 N   0  0  0  0  0  0  0  0  0  0  0  0
   14.2010   -2.6281    1.3773 C   0  0  0  0  0  0  0  0  0  0  0  0
   14.3777   -2.3568    2.6732 N   0  0  0  0  0  0  0  0  0  0  0  0
   15.2217   -2.9197    0.5738 N   0  0  0  0  0  0  0  0  0  0  0  0
   14.7965   -3.2519   -0.7875 C   0  0  1  0  0  0  0  0  0  0  0  0
   15.3794   -2.2443   -1.7949 C   0  0  0  0  0  0  0  0  0  0  0  0
   15.9522   -2.6550   -3.0208 C   0  0  0  0  0  0  0  0  0  0  0  0
   16.4340   -1.6937   -3.9273 C   0  0  0  0  0  0  0  0  0  0  0  0
   16.3364   -0.3224   -3.6308 C   0  0  0  0  0  0  0  0  0  0  0  0
   15.7943    0.1250   -2.4073 C   0  0  0  0  0  0  0  0  0  0  0  0
   15.6711    1.5693   -2.0915 C   0  0  0  0  0  0  0  0  0  0  0  0
   15.3832    2.0354   -0.7903 C   0  0  0  0  0  0  0  0  0  0  0  0
   15.3534    3.4188   -0.5357 C   0  0  0  0  0  0  0  0  0  0  0  0
   15.5968    4.3049   -1.5946 C   0  0  0  0  0  0  0  0  0  0  0  0
   15.8275    3.8920   -2.8511 N   0  0  0  0  0  0  0  0  0  0  0  0
   15.8598    2.5642   -3.0762 C   0  0  0  0  0  0  0  0  0  0  0  0
   15.3327   -0.8573   -1.5012 C   0  0  0  0  0  0  0  0  0  0  0  0
   13.2767   -3.0094   -0.6368 C   0  0  0  0  0  0  0  0  0  0  0  0
   12.3981   -3.0674   -1.5055 O   0  0  0  0  0  0  0  0  0  0  0  0
    0.0000    0.0000    0.0000 H   0  0  0  0  0  0  0  0  0  0  0  0
    0.0000    0.0000    0.0000 H   0  0  0  0  0  0  0  0  0  0  0  0
    0.0000    0.0000    0.0000 H   0  0  0  0  0  0  0  0  0  0  0  0
    0.0000    0.0000    0.0000 H   0  0  0  0  0  0  0  0  0  0  0  0
    0.0000    0.0000    0.0000 H   0  0  0  0  0  0  0  0  0  0  0  0
    0.0000    0.0000    0.0000 H   0  0  0  0  0  0  0  0  0  0  0  0
    0.0000    0.0000    0.0000 H   0  0  0  0  0  0  0  0  0  0  0  0
    0.0000    0.0000    0.0000 H   0  0  0  0  0  0  0  0  0  0  0  0
    0.0000    0.0000    0.0000 H   0  0  0  0  0  0  0  0  0  0  0  0
    0.0000    0.0000    0.0000 H   0  0  0  0  0  0  0  0  0  0  0  0
    0.0000    0.0000    0.0000 H   0  0  0  0  0  0  0  0  0  0  0  0
    0.0000    0.0000    0.0000 H   0  0  0  0  0  0  0  0  0  0  0  0
    0.0000    0.0000    0.0000 H   0  0  0  0  0  0  0  0  0  0  0  0
    0.0000    0.0000    0.0000 H   0  0  0  0  0  0  0  0  0  0  0  0
    6.9719   -1.5322   -0.3711 C   0  0  0  0  0  0  0  0  0  0  0  0
    5.9925   -2.4415   -0.6563 C   0  0  0  0  0  0  0  0  0  0  0  0
    4.6615   -2.0909   -0.5682 C   0  0  0  0  0  0  0  0  0  0  0  0
    4.3792   -0.7955   -0.1833 C   0  0  0  0  0  0  0  0  0  0  0  0
    5.3745    0.1182    0.1034 C   0  0  0  0  0  0  0  0  0  0  0  0
    6.7075   -0.2336    0.0150 C   0  0  0  0  0  0  0  0  0  0  0  0
    7.7877    0.7385    0.3203 C   0  0  0  0  0  0  0  0  0  0  0  0
    6.2514   -3.4399   -0.9524 H   0  0  0  0  0  0  0  0  0  0  0  0
    3.8551   -2.7819   -0.7857 H   0  0  0  0  0  0  0  0  0  0  0  0
    3.3172   -0.5179   -0.1137 H   0  0  0  0  0  0  0  0  0  0  0  0
    5.1150    1.1402    0.4066 H   0  0  0  0  0  0  0  0  0  0  0  0
    7.4853    1.7848    0.1126 H   0  0  0  0  0  0  0  0  0  0  0  0
    8.1223    0.6973    1.3660 H   0  0  0  0  0  0  0  0  0  0  0  0
    8.7006    0.5640   -0.3042 H   0  0  0  0  0  0  0  0  0  0  0  0
  1  2  1  0
  2  3  1  0
  2 19  1  0
  3  4  1  0
  3  5  2  0
  5  6  1  0
  6  7  1  1
  6 19  1  0
  7  8  2  0
  7 18  1  0
  8  9  1  0
  9 10  2  0
 10 11  1  0
 11 12  1  0
 11 18  2  0
 12 13  2  0
 12 17  1  0
 13 14  1  0
 14 15  2  0
 15 16  1  0
 16 17  2  0
 19 20  2  0
  1 21  1  0
  1 22  1  0
  1 23  1  0
  4 24  1  0
  4 25  1  0
  5 26  1  0
  8 27  1  0
  9 28  1  0
 10 29  1  0
 13 30  1  0
 14 31  1  0
 15 32  1  0
 17 33  1  0
 18 34  1  0
 35 36  2  0
 36 37  1  0
 37 38  2  0
 38 39  1  0
 39 40  2  0
 40 41  1  0
 40 35  1  0
 36 42  1  0
 37 43  1  0
 38 44  1  0
 39 45  1  0
 41 46  1  0
 41 47  1  0
 41 48  1  0
  6 35  1  0
M  CHG  1   5   1
M  END
>  <attachment_point>  (126) 
26

>  <score>  (126) 
<NA>

$$$$
CAT-4j
     RDKit          3D

 48 51  0  0  1  0  0  0  0  0999 V2000
   11.7106   -2.3098    1.2658 C   0  0  0  0  0  0  0  0  0  0  0  0
   13.0313   -2.6523    0.7225 N   0  0  0  0  0  0  0  0  0  0  0  0
   14.2010   -2.6281    1.3773 C   0  0  0  0  0  0  0  0  0  0  0  0
   14.3777   -2.3568    2.6732 N   0  0  0  0  0  0  0  0  0  0  0  0
   15.2217   -2.9197    0.5738 N   0  0  0  0  0  0  0  0  0  0  0  0
   14.7965   -3.2519   -0.7875 C   0  0  1  0  0  0  0  0  0  0  0  0
   15.3794   -2.2443   -1.7949 C   0  0  0  0  0  0  0  0  0  0  0  0
   15.9522   -2.6550   -3.0208 C   0  0  0  0  0  0  0  0  0  0  0  0
   16.4340   -1.6937   -3.9273 C   0  0  0  0  0  0  0  0  0  0  0  0
   16.3364   -0.3224   -3.6308 C   0  0  0  0  0  0  0  0  0  0  0  0
   15.7943    0.1250   -2.4073 C   0  0  0  0  0  0  0  0  0  0  0  0
   15.6711    1.5693   -2.0915 C   0  0  0  0  0  0  0  0  0  0  0  0
   15.3832    2.0354   -0.7903 C   0  0  0  0  0  0  0  0  0  0  0  0
   15.3534    3.4188   -0.5357 C   0  0  0  0  0  0  0  0  0  0  0  0
   15.5968    4.3049   -1.5946 C   0  0  0  0  0  0  0  0  0  0  0  0
   15.8275    3.8920   -2.8511 N   0  0  0  0  0  0  0  0  0  0  0  0
   15.8598    2.5642   -3.0762 C   0  0  0  0  0  0  0  0  0  0  0  0
   15.3327   -0.8573   -1.5012 C   0  0  0  0  0  0  0  0  0  0  0  0
   13.2767   -3.0094   -0.6368 C   0  0  0  0  0  0  0  0  0  0  0  0
   12.3981   -3.0674   -1.5055 O   0  0  0  0  0  0  0  0  0  0  0  0
    0.0000    0.0000    0.0000 H   0  0  0  0  0  0  0  0  0  0  0  0
    0.0000    0.0000    0.0000 H   0  0  0  0  0  0  0  0  0  0  0  0
    0.0000    0.0000    0.0000 H   0  0  0  0  0  0  0  0  0  0  0  0
    0.0000    0.0000    0.0000 H   0  0  0  0  0  0  0  0  0  0  0  0
    0.0000    0.0000    0.0000 H   0  0  0  0  0  0  0  0  0  0  0  0
    0.0000    0.0000    0.0000 H   0  0  0  0  0  0  0  0  0  0  0  0
    0.0000    0.0000    0.0000 H   0  0  0  0  0  0  0  0  0  0  0  0
    0.0000    0.0000    0.0000 H   0  0  0  0  0  0  0  0  0  0  0  0
    0.0000    0.0000    0.0000 H   0  0  0  0  0  0  0  0  0  0  0  0
    0.0000    0.0000    0.0000 H   0  0  0  0  0  0  0  0  0  0  0  0
    0.0000    0.0000    0.0000 H   0  0  0  0  0  0  0  0  0  0  0  0
    0.0000    0.0000    0.0000 H   0  0  0  0  0  0  0  0  0  0  0  0
    0.0000    0.0000    0.0000 H   0  0  0  0  0  0  0  0  0  0  0  0
    0.0000    0.0000    0.0000 H   0  0  0  0  0  0  0  0  0  0  0  0
    6.9563   -1.5288   -0.3702 C   0  0  0  0  0  0  0  0  0  0  0  0
    6.5221   -0.2314   -0.3707 C   0  0  0  0  0  0  0  0  0  0  0  0
    5.1875    0.1074   -0.3008 C   0  0  0  0  0  0  0  0  0  0  0  0
    4.2465   -0.8915   -0.2271 C   0  0  0  0  0  0  0  0  0  0  0  0
    2.7827   -0.6496   -0.1479 C   0  0  0  0  0  0  0  0  0  0  0  0
    2.3673   -1.0297    1.0962 F   0  0  0  0  0  0  0  0  0  0  0  0
    2.1936   -1.4736   -1.0919 F   0  0  0  0  0  0  0  0  0  0  0  0
    2.4710    0.6743   -0.4285 F   0  0  0  0  0  0  0  0  0  0  0  0
    4.6727   -2.1993   -0.2261 C   0  0  0  0  0  0  0  0  0  0  0  0
    6.0261   -2.5204   -0.2975 C   0  0  0  0  0  0  0  0  0  0  0  0
    7.2889    0.5544   -0.4301 H   0  0  0  0  0  0  0  0  0  0  0  0
    4.8438    1.1315   -0.3011 H   0  0  0  0  0  0  0  0  0  0  0  0
    3.9892   -3.0430   -0.1703 H   0  0  0  0  0  0  0  0  0  0  0  0
    6.3314   -3.5552   -0.2947 H   0  0  0  0  0  0  0  0  0  0  0  0
  1  2  1  0
  2  3  1  0
  2 19  1  0
  3  4  1  0
  3  5  2  0
  5  6  1  0
  6  7  1  1
  6 19  1  0
  7  8  2  0
  7 18  1  0
  8  9  1  0
  9 10  2  0
 10 11  1  0
 11 12  1  0
 11 18  2  0
 12 13  2  0
 12 17  1  0
 13 14  1  0
 14 15  2  0
 15 16  1  0
 16 17  2  0
 19 20  2  0
  1 21  1  0
  1 22  1  0
  1 23  1  0
  4 24  1  0
  4 25  1  0
  5 26  1  0
  8 27  1  0
  9 28  1  0
 10 29  1  0
 13 30  1  0
 14 31  1  0
 15 32  1  0
 17 33  1  0
 18 34  1  0
 35 36  2  0
 36 37  1  0
 37 38  2  0
 38 39  1  0
 39 40  1  0
 39 41  1  0
 39 42  1  0
 38 43  1  0
 43 44  2  0
 44 35  1  0
 36 45  1  0
 37 46  1  0
 43 47  1  0
 44 48  1  0
  6 35  1  0
M  CHG  1   5   1
M  END
>  <attachment_point>  (127) 
26

>  <score>  (127) 
<NA>

$$$$
CAT-4j
     RDKit          3D

 49 51  0  0  1  0  0  0  0  0999 V2000
   11.7106   -2.3098    1.2658 C   0  0  0  0  0  0  0  0  0  0  0  0
   13.0313   -2.6523    0.7225 N   0  0  0  0  0  0  0  0  0  0  0  0
   14.2010   -2.6281    1.3773 C   0  0  0  0  0  0  0  0  0  0  0  0
   14.3777   -2.3568    2.6732 N   0  0  0  0  0  0  0  0  0  0  0  0
   15.2217   -2.9197    0.5738 N   0  0  0  0  0  0  0  0  0  0  0  0
   14.7965   -3.2519   -0.7875 C   0  0  1  0  0  0  0  0  0  0  0  0
   15.3794   -2.2443   -1.7949 C   0  0  0  0  0  0  0  0  0  0  0  0
   15.9522   -2.6550   -3.0208 C   0  0  0  0  0  0  0  0  0  0  0  0
   16.4340   -1.6937   -3.9273 C   0  0  0  0  0  0  0  0  0  0  0  0
   16.3364   -0.3224   -3.6308 C   0  0  0  0  0  0  0  0  0  0  0  0
   15.7943    0.1250   -2.4073 C   0  0  0  0  0  0  0  0  0  0  0  0
   15.6711    1.5693   -2.0915 C   0  0  0  0  0  0  0  0  0  0  0  0
   15.3832    2.0354   -0.7903 C   0  0  0  0  0  0  0  0  0  0  0  0
   15.3534    3.4188   -0.5357 C   0  0  0  0  0  0  0  0  0  0  0  0
   15.5968    4.3049   -1.5946 C   0  0  0  0  0  0  0  0  0  0  0  0
   15.8275    3.8920   -2.8511 N   0  0  0  0  0  0  0  0  0  0  0  0
   15.8598    2.5642   -3.0762 C   0  0  0  0  0  0  0  0  0  0  0  0
   15.3327   -0.8573   -1.5012 C   0  0  0  0  0  0  0  0  0  0  0  0
   13.2767   -3.0094   -0.6368 C   0  0  0  0  0  0  0  0  0  0  0  0
   12.3981   -3.0674   -1.5055 O   0  0  0  0  0  0  0  0  0  0  0  0
    0.0000    0.0000    0.0000 H   0  0  0  0  0  0  0  0  0  0  0  0
    0.0000    0.0000    0.0000 H   0  0  0  0  0  0  0  0  0  0  0  0
    0.0000    0.0000    0.0000 H   0  0  0  0  0  0  0  0  0  0  0  0
    0.0000    0.0000    0.0000 H   0  0  0  0  0  0  0  0  0  0  0  0
    0.0000    0.0000    0.0000 H   0  0  0  0  0  0  0  0  0  0  0  0
    0.0000    0.0000    0.0000 H   0  0  0  0  0  0  0  0  0  0  0  0
    0.0000    0.0000    0.0000 H   0  0  0  0  0  0  0  0  0  0  0  0
    0.0000    0.0000    0.0000 H   0  0  0  0  0  0  0  0  0  0  0  0
    0.0000    0.0000    0.0000 H   0  0  0  0  0  0  0  0  0  0  0  0
    0.0000    0.0000    0.0000 H   0  0  0  0  0  0  0  0  0  0  0  0
    0.0000    0.0000    0.0000 H   0  0  0  0  0  0  0  0  0  0  0  0
    0.0000    0.0000    0.0000 H   0  0  0  0  0  0  0  0  0  0  0  0
    0.0000    0.0000    0.0000 H   0  0  0  0  0  0  0  0  0  0  0  0
    0.0000    0.0000    0.0000 H   0  0  0  0  0  0  0  0  0  0  0  0
    7.0419   -1.5476   -0.3748 N   0  0  0  0  0  0  0  0  0  0  0  0
    6.1163   -2.6413   -0.2302 C   0  0  0  0  0  0  0  0  0  0  0  0
    6.6093   -3.8263   -1.0231 C   0  0  0  0  0  0  0  0  0  0  0  0
    6.6125   -0.3436    0.2465 C   0  0  0  0  0  0  0  0  0  0  0  0
    7.7391    0.6483    0.3168 C   0  0  0  0  0  0  0  0  0  0  0  0
    5.0798   -2.3778   -0.4060 H   0  0  0  0  0  0  0  0  0  0  0  0
    6.1326   -2.9886    0.8758 H   0  0  0  0  0  0  0  0  0  0  0  0
    7.3214   -4.4710   -0.4759 H   0  0  0  0  0  0  0  0  0  0  0  0
    7.1133   -3.5225   -1.9593 H   0  0  0  0  0  0  0  0  0  0  0  0
    5.7309   -4.4726   -1.3396 H   0  0  0  0  0  0  0  0  0  0  0  0
    6.0750   -0.4227    1.1984 H   0  0  0  0  0  0  0  0  0  0  0  0
    5.8352    0.1709   -0.4375 H   0  0  0  0  0  0  0  0  0  0  0  0
    7.5691    1.5949   -0.2092 H   0  0  0  0  0  0  0  0  0  0  0  0
    8.6606    0.2015   -0.1487 H   0  0  0  0  0  0  0  0  0  0  0  0
    7.9983    0.8668    1.3731 H   0  0  0  0  0  0  0  0  0  0  0  0
  1  2  1  0
  2  3  1  0
  2 19  1  0
  3  4  1  0
  3  5  2  0
  5  6  1  0
  6  7  1  0
  6 19  1  0
  7  8  2  0
  7 18  1  0
  8  9  1  0
  9 10  2  0
 10 11  1  0
 11 12  1  0
 11 18  2  0
 12 13  2  0
 12 17  1  0
 13 14  1  0
 14 15  2  0
 15 16  1  0
 16 17  2  0
 19 20  2  0
  1 21  1  0
  1 22  1  0
  1 23  1  0
  4 24  1  0
  4 25  1  0
  5 26  1  0
  8 27  1  0
  9 28  1  0
 10 29  1  0
 13 30  1  0
 14 31  1  0
 15 32  1  0
 17 33  1  0
 18 34  1  0
 35 36  1  0
 36 37  1  0
 35 38  1  0
 38 39  1  0
 36 40  1  0
 36 41  1  0
 37 42  1  0
 37 43  1  0
 37 44  1  0
 38 45  1  0
 38 46  1  0
 39 47  1  0
 39 48  1  0
 39 49  1  0
  6 35  1  6
M  CHG  1   5   1
M  END
>  <attachment_point>  (128) 
26

>  <score>  (128) 
<NA>

$$$$
CAT-4j
     RDKit          3D

 55 58  0  0  1  0  0  0  0  0999 V2000
   11.7106   -2.3098    1.2658 C   0  0  0  0  0  0  0  0  0  0  0  0
   13.0313   -2.6523    0.7225 N   0  0  0  0  0  0  0  0  0  0  0  0
   14.2010   -2.6281    1.3773 C   0  0  0  0  0  0  0  0  0  0  0  0
   14.3777   -2.3568    2.6732 N   0  0  0  0  0  0  0  0  0  0  0  0
   15.2217   -2.9197    0.5738 N   0  0  0  0  0  0  0  0  0  0  0  0
   14.7965   -3.2519   -0.7875 C   0  0  1  0  0  0  0  0  0  0  0  0
   15.3794   -2.2443   -1.7949 C   0  0  0  0  0  0  0  0  0  0  0  0
   15.9522   -2.6550   -3.0208 C   0  0  0  0  0  0  0  0  0  0  0  0
   16.4340   -1.6937   -3.9273 C   0  0  0  0  0  0  0  0  0  0  0  0
   16.3364   -0.3224   -3.6308 C   0  0  0  0  0  0  0  0  0  0  0  0
   15.7943    0.1250   -2.4073 C   0  0  0  0  0  0  0  0  0  0  0  0
   15.6711    1.5693   -2.0915 C   0  0  0  0  0  0  0  0  0  0  0  0
   15.3832    2.0354   -0.7903 C   0  0  0  0  0  0  0  0  0  0  0  0
   15.3534    3.4188   -0.5357 C   0  0  0  0  0  0  0  0  0  0  0  0
   15.5968    4.3049   -1.5946 C   0  0  0  0  0  0  0  0  0  0  0  0
   15.8275    3.8920   -2.8511 N   0  0  0  0  0  0  0  0  0  0  0  0
   15.8598    2.5642   -3.0762 C   0  0  0  0  0  0  0  0  0  0  0  0
   15.3327   -0.8573   -1.5012 C   0  0  0  0  0  0  0  0  0  0  0  0
   13.2767   -3.0094   -0.6368 C   0  0  0  0  0  0  0  0  0  0  0  0
   12.3981   -3.0674   -1.5055 O   0  0  0  0  0  0  0  0  0  0  0  0
    0.0000    0.0000    0.0000 H   0  0  0  0  0  0  0  0  0  0  0  0
    0.0000    0.0000    0.0000 H   0  0  0  0  0  0  0  0  0  0  0  0
    0.0000    0.0000    0.0000 H   0  0  0  0  0  0  0  0  0  0  0  0
    0.0000    0.0000    0.0000 H   0  0  0  0  0  0  0  0  0  0  0  0
    0.0000    0.0000    0.0000 H   0  0  0  0  0  0  0  0  0  0  0  0
    0.0000    0.0000    0.0000 H   0  0  0  0  0  0  0  0  0  0  0  0
    0.0000    0.0000    0.0000 H   0  0  0  0  0  0  0  0  0  0  0  0
    0.0000    0.0000    0.0000 H   0  0  0  0  0  0  0  0  0  0  0  0
    0.0000    0.0000    0.0000 H   0  0  0  0  0  0  0  0  0  0  0  0
    0.0000    0.0000    0.0000 H   0  0  0  0  0  0  0  0  0  0  0  0
    0.0000    0.0000    0.0000 H   0  0  0  0  0  0  0  0  0  0  0  0
    0.0000    0.0000    0.0000 H   0  0  0  0  0  0  0  0  0  0  0  0
    0.0000    0.0000    0.0000 H   0  0  0  0  0  0  0  0  0  0  0  0
    0.0000    0.0000    0.0000 H   0  0  0  0  0  0  0  0  0  0  0  0
    6.9615   -1.5300   -0.3705 C   0  0  0  0  0  0  0  0  0  0  0  0
    6.5517   -0.6197    0.3717 O   0  0  0  0  0  0  0  0  0  0  0  0
    6.0099   -2.2381   -1.1255 N   0  0  0  0  0  0  0  0  0  0  0  0
    4.6356   -1.9296   -1.0467 C   0  0  0  0  0  0  0  0  0  0  0  0
    3.9137   -3.1498   -0.4608 C   0  0  0  0  0  0  0  0  0  0  0  0
    2.5416   -2.6545   -0.0530 C   0  0  0  0  0  0  0  0  0  0  0  0
    1.7997   -2.3260   -1.3235 C   0  0  0  0  0  0  0  0  0  0  0  0
    2.5248   -1.3588   -2.2009 C   0  0  0  0  0  0  0  0  0  0  0  0
    3.9804   -1.6118   -2.3591 C   0  0  0  0  0  0  0  0  0  0  0  0
    6.3165   -3.0201   -1.7695 H   0  0  0  0  0  0  0  0  0  0  0  0
    4.4303   -1.0980   -0.3450 H   0  0  0  0  0  0  0  0  0  0  0  0
    4.4416   -3.4840    0.4572 H   0  0  0  0  0  0  0  0  0  0  0  0
    3.8664   -3.9378   -1.2399 H   0  0  0  0  0  0  0  0  0  0  0  0
    2.6841   -1.7215    0.5215 H   0  0  0  0  0  0  0  0  0  0  0  0
    1.9646   -3.4006    0.5003 H   0  0  0  0  0  0  0  0  0  0  0  0
    1.5140   -3.2705   -1.8462 H   0  0  0  0  0  0  0  0  0  0  0  0
    0.8396   -1.8546   -1.0221 H   0  0  0  0  0  0  0  0  0  0  0  0
    2.0581   -1.4320   -3.2229 H   0  0  0  0  0  0  0  0  0  0  0  0
    2.3327   -0.3071   -1.8742 H   0  0  0  0  0  0  0  0  0  0  0  0
    4.1644   -2.4832   -3.0368 H   0  0  0  0  0  0  0  0  0  0  0  0
    4.4297   -0.6737   -2.7561 H   0  0  0  0  0  0  0  0  0  0  0  0
  1  2  1  0
  2  3  1  0
  2 19  1  0
  3  4  1  0
  3  5  2  0
  5  6  1  0
  6  7  1  0
  6 19  1  0
  7  8  2  0
  7 18  1  0
  8  9  1  0
  9 10  2  0
 10 11  1  0
 11 12  1  0
 11 18  2  0
 12 13  2  0
 12 17  1  0
 13 14  1  0
 14 15  2  0
 15 16  1  0
 16 17  2  0
 19 20  2  0
  1 21  1  0
  1 22  1  0
  1 23  1  0
  4 24  1  0
  4 25  1  0
  5 26  1  0
  8 27  1  0
  9 28  1  0
 10 29  1  0
 13 30  1  0
 14 31  1  0
 15 32  1  0
 17 33  1  0
 18 34  1  0
 35 36  2  0
 35 37  1  0
 37 38  1  0
 38 39  1  0
 39 40  1  0
 40 41  1  0
 41 42  1  0
 42 43  1  0
 43 38  1  0
 37 44  1  0
 38 45  1  0
 39 46  1  0
 39 47  1  0
 40 48  1  0
 40 49  1  0
 41 50  1  0
 41 51  1  0
 42 52  1  0
 42 53  1  0
 43 54  1  0
 43 55  1  0
  6 35  1  6
M  CHG  1   5   1
M  END
>  <attachment_point>  (129) 
26

>  <score>  (129) 
<NA>

$$$$
CAT-4j
     RDKit          3D

 47 51  0  0  1  0  0  0  0  0999 V2000
   11.7106   -2.3098    1.2658 C   0  0  0  0  0  0  0  0  0  0  0  0
   13.0313   -2.6523    0.7225 N   0  0  0  0  0  0  0  0  0  0  0  0
   14.2010   -2.6281    1.3773 C   0  0  0  0  0  0  0  0  0  0  0  0
   14.3777   -2.3568    2.6732 N   0  0  0  0  0  0  0  0  0  0  0  0
   15.2217   -2.9197    0.5738 N   0  0  0  0  0  0  0  0  0  0  0  0
   14.7965   -3.2519   -0.7875 C   0  0  1  0  0  0  0  0  0  0  0  0
   15.3794   -2.2443   -1.7949 C   0  0  0  0  0  0  0  0  0  0  0  0
   15.9522   -2.6550   -3.0208 C   0  0  0  0  0  0  0  0  0  0  0  0
   16.4340   -1.6937   -3.9273 C   0  0  0  0  0  0  0  0  0  0  0  0
   16.3364   -0.3224   -3.6308 C   0  0  0  0  0  0  0  0  0  0  0  0
   15.7943    0.1250   -2.4073 C   0  0  0  0  0  0  0  0  0  0  0  0
   15.6711    1.5693   -2.0915 C   0  0  0  0  0  0  0  0  0  0  0  0
   15.3832    2.0354   -0.7903 C   0  0  0  0  0  0  0  0  0  0  0  0
   15.3534    3.4188   -0.5357 C   0  0  0  0  0  0  0  0  0  0  0  0
   15.5968    4.3049   -1.5946 C   0  0  0  0  0  0  0  0  0  0  0  0
   15.8275    3.8920   -2.8511 N   0  0  0  0  0  0  0  0  0  0  0  0
   15.8598    2.5642   -3.0762 C   0  0  0  0  0  0  0  0  0  0  0  0
   15.3327   -0.8573   -1.5012 C   0  0  0  0  0  0  0  0  0  0  0  0
   13.2767   -3.0094   -0.6368 C   0  0  0  0  0  0  0  0  0  0  0  0
   12.3981   -3.0674   -1.5055 O   0  0  0  0  0  0  0  0  0  0  0  0
    0.0000    0.0000    0.0000 H   0  0  0  0  0  0  0  0  0  0  0  0
    0.0000    0.0000    0.0000 H   0  0  0  0  0  0  0  0  0  0  0  0
    0.0000    0.0000    0.0000 H   0  0  0  0  0  0  0  0  0  0  0  0
    0.0000    0.0000    0.0000 H   0  0  0  0  0  0  0  0  0  0  0  0
    0.0000    0.0000    0.0000 H   0  0  0  0  0  0  0  0  0  0  0  0
    0.0000    0.0000    0.0000 H   0  0  0  0  0  0  0  0  0  0  0  0
    0.0000    0.0000    0.0000 H   0  0  0  0  0  0  0  0  0  0  0  0
    0.0000    0.0000    0.0000 H   0  0  0  0  0  0  0  0  0  0  0  0
    0.0000    0.0000    0.0000 H   0  0  0  0  0  0  0  0  0  0  0  0
    0.0000    0.0000    0.0000 H   0  0  0  0  0  0  0  0  0  0  0  0
    0.0000    0.0000    0.0000 H   0  0  0  0  0  0  0  0  0  0  0  0
    0.0000    0.0000    0.0000 H   0  0  0  0  0  0  0  0  0  0  0  0
    0.0000    0.0000    0.0000 H   0  0  0  0  0  0  0  0  0  0  0  0
    0.0000    0.0000    0.0000 H   0  0  0  0  0  0  0  0  0  0  0  0
    6.9638   -1.5305   -0.3706 C   0  0  0  0  0  0  0  0  0  0  0  0
    5.9549   -2.2963   -0.0618 N   0  0  0  0  0  0  0  0  0  0  0  0
    4.7402   -1.8352   -0.0475 C   0  0  0  0  0  0  0  0  0  0  0  0
    3.5745   -2.5581    0.2675 C   0  0  0  0  0  0  0  0  0  0  0  0
    2.3590   -1.9578    0.2461 C   0  0  0  0  0  0  0  0  0  0  0  0
    2.1747   -0.6482   -0.0721 C   0  0  0  0  0  0  0  0  0  0  0  0
    3.2918    0.0893   -0.3854 C   0  0  0  0  0  0  0  0  0  0  0  0
    4.5627   -0.5134   -0.3694 C   0  0  0  0  0  0  0  0  0  0  0  0
    6.1835   -0.0280   -0.6731 S   0  0  0  0  0  0  0  0  0  0  0  0
    3.6301   -3.6229    0.5365 H   0  0  0  0  0  0  0  0  0  0  0  0
    1.4883   -2.5683    0.4994 H   0  0  0  0  0  0  0  0  0  0  0  0
    1.2055   -0.2157   -0.0772 H   0  0  0  0  0  0  0  0  0  0  0  0
    3.2733    1.1304   -0.6524 H   0  0  0  0  0  0  0  0  0  0  0  0
  1  2  1  0
  2  3  1  0
  2 19  1  0
  3  4  1  0
  3  5  2  0
  5  6  1  0
  6  7  1  1
  6 19  1  0
  7  8  2  0
  7 18  1  0
  8  9  1  0
  9 10  2  0
 10 11  1  0
 11 12  1  0
 11 18  2  0
 12 13  2  0
 12 17  1  0
 13 14  1  0
 14 15  2  0
 15 16  1  0
 16 17  2  0
 19 20  2  0
  1 21  1  0
  1 22  1  0
  1 23  1  0
  4 24  1  0
  4 25  1  0
  5 26  1  0
  8 27  1  0
  9 28  1  0
 10 29  1  0
 13 30  1  0
 14 31  1  0
 15 32  1  0
 17 33  1  0
 18 34  1  0
 35 36  2  0
 36 37  1  0
 37 38  2  0
 38 39  1  0
 39 40  2  0
 40 41  1  0
 41 42  2  0
 42 43  1  0
 43 35  1  0
 42 37  1  0
 38 44  1  0
 39 45  1  0
 40 46  1  0
 41 47  1  0
  6 35  1  0
M  CHG  1   5   1
M  END
>  <attachment_point>  (130) 
26

>  <score>  (130) 
<NA>

$$$$
CAT-4j
     RDKit          3D

 45 48  0  0  1  0  0  0  0  0999 V2000
   11.7106   -2.3098    1.2658 C   0  0  0  0  0  0  0  0  0  0  0  0
   13.0313   -2.6523    0.7225 N   0  0  0  0  0  0  0  0  0  0  0  0
   14.2010   -2.6281    1.3773 C   0  0  0  0  0  0  0  0  0  0  0  0
   14.3777   -2.3568    2.6732 N   0  0  0  0  0  0  0  0  0  0  0  0
   15.2217   -2.9197    0.5738 N   0  0  0  0  0  0  0  0  0  0  0  0
   14.7965   -3.2519   -0.7875 C   0  0  1  0  0  0  0  0  0  0  0  0
   15.3794   -2.2443   -1.7949 C   0  0  0  0  0  0  0  0  0  0  0  0
   15.9522   -2.6550   -3.0208 C   0  0  0  0  0  0  0  0  0  0  0  0
   16.4340   -1.6937   -3.9273 C   0  0  0  0  0  0  0  0  0  0  0  0
   16.3364   -0.3224   -3.6308 C   0  0  0  0  0  0  0  0  0  0  0  0
   15.7943    0.1250   -2.4073 C   0  0  0  0  0  0  0  0  0  0  0  0
   15.6711    1.5693   -2.0915 C   0  0  0  0  0  0  0  0  0  0  0  0
   15.3832    2.0354   -0.7903 C   0  0  0  0  0  0  0  0  0  0  0  0
   15.3534    3.4188   -0.5357 C   0  0  0  0  0  0  0  0  0  0  0  0
   15.5968    4.3049   -1.5946 C   0  0  0  0  0  0  0  0  0  0  0  0
   15.8275    3.8920   -2.8511 N   0  0  0  0  0  0  0  0  0  0  0  0
   15.8598    2.5642   -3.0762 C   0  0  0  0  0  0  0  0  0  0  0  0
   15.3327   -0.8573   -1.5012 C   0  0  0  0  0  0  0  0  0  0  0  0
   13.2767   -3.0094   -0.6368 C   0  0  0  0  0  0  0  0  0  0  0  0
   12.3981   -3.0674   -1.5055 O   0  0  0  0  0  0  0  0  0  0  0  0
    0.0000    0.0000    0.0000 H   0  0  0  0  0  0  0  0  0  0  0  0
    0.0000    0.0000    0.0000 H   0  0  0  0  0  0  0  0  0  0  0  0
    0.0000    0.0000    0.0000 H   0  0  0  0  0  0  0  0  0  0  0  0
    0.0000    0.0000    0.0000 H   0  0  0  0  0  0  0  0  0  0  0  0
    0.0000    0.0000    0.0000 H   0  0  0  0  0  0  0  0  0  0  0  0
    0.0000    0.0000    0.0000 H   0  0  0  0  0  0  0  0  0  0  0  0
    0.0000    0.0000    0.0000 H   0  0  0  0  0  0  0  0  0  0  0  0
    0.0000    0.0000    0.0000 H   0  0  0  0  0  0  0  0  0  0  0  0
    0.0000    0.0000    0.0000 H   0  0  0  0  0  0  0  0  0  0  0  0
    0.0000    0.0000    0.0000 H   0  0  0  0  0  0  0  0  0  0  0  0
    0.0000    0.0000    0.0000 H   0  0  0  0  0  0  0  0  0  0  0  0
    0.0000    0.0000    0.0000 H   0  0  0  0  0  0  0  0  0  0  0  0
    0.0000    0.0000    0.0000 H   0  0  0  0  0  0  0  0  0  0  0  0
    0.0000    0.0000    0.0000 H   0  0  0  0  0  0  0  0  0  0  0  0
    6.9540   -1.5283   -0.3701 C   0  0  0  0  0  0  0  0  0  0  0  0
    6.2880   -2.8334   -0.0547 C   0  0  0  0  0  0  0  0  0  0  0  0
    4.7660   -2.7226    0.0694 C   0  0  0  0  0  0  0  0  0  0  0  0
    5.3902   -3.4834   -1.0315 C   0  0  0  0  0  0  0  0  0  0  0  0
    6.8788   -0.7786    0.4320 H   0  0  0  0  0  0  0  0  0  0  0  0
    6.7400   -1.1440   -1.3728 H   0  0  0  0  0  0  0  0  0  0  0  0
    6.7730   -3.5043    0.6846 H   0  0  0  0  0  0  0  0  0  0  0  0
    4.2762   -1.7808   -0.1936 H   0  0  0  0  0  0  0  0  0  0  0  0
    4.2682   -3.2752    0.8908 H   0  0  0  0  0  0  0  0  0  0  0  0
    5.2586   -4.5842   -0.9778 H   0  0  0  0  0  0  0  0  0  0  0  0
    5.3912   -3.1113   -2.0834 H   0  0  0  0  0  0  0  0  0  0  0  0
  1  2  1  0
  2  3  1  0
  2 19  1  0
  3  4  1  0
  3  5  2  0
  5  6  1  0
  6  7  1  0
  6 19  1  0
  7  8  2  0
  7 18  1  0
  8  9  1  0
  9 10  2  0
 10 11  1  0
 11 12  1  0
 11 18  2  0
 12 13  2  0
 12 17  1  0
 13 14  1  0
 14 15  2  0
 15 16  1  0
 16 17  2  0
 19 20  2  0
  1 21  1  0
  1 22  1  0
  1 23  1  0
  4 24  1  0
  4 25  1  0
  5 26  1  0
  8 27  1  0
  9 28  1  0
 10 29  1  0
 13 30  1  0
 14 31  1  0
 15 32  1  0
 17 33  1  0
 18 34  1  0
 35 36  1  0
 36 37  1  0
 37 38  1  0
 38 36  1  0
 35 39  1  0
 35 40  1  0
 36 41  1  0
 37 42  1  0
 37 43  1  0
 38 44  1  0
 38 45  1  0
  6 35  1  6
M  CHG  1   5   1
M  END
>  <attachment_point>  (131) 
26

>  <score>  (131) 
<NA>

$$$$
CAT-4j
     RDKit          3D

 53 56  0  0  1  0  0  0  0  0999 V2000
   11.7106   -2.3098    1.2658 C   0  0  0  0  0  0  0  0  0  0  0  0
   13.0313   -2.6523    0.7225 N   0  0  0  0  0  0  0  0  0  0  0  0
   14.2010   -2.6281    1.3773 C   0  0  0  0  0  0  0  0  0  0  0  0
   14.3777   -2.3568    2.6732 N   0  0  0  0  0  0  0  0  0  0  0  0
   15.2217   -2.9197    0.5738 N   0  0  0  0  0  0  0  0  0  0  0  0
   14.7965   -3.2519   -0.7875 C   0  0  1  0  0  0  0  0  0  0  0  0
   15.3794   -2.2443   -1.7949 C   0  0  0  0  0  0  0  0  0  0  0  0
   15.9522   -2.6550   -3.0208 C   0  0  0  0  0  0  0  0  0  0  0  0
   16.4340   -1.6937   -3.9273 C   0  0  0  0  0  0  0  0  0  0  0  0
   16.3364   -0.3224   -3.6308 C   0  0  0  0  0  0  0  0  0  0  0  0
   15.7943    0.1250   -2.4073 C   0  0  0  0  0  0  0  0  0  0  0  0
   15.6711    1.5693   -2.0915 C   0  0  0  0  0  0  0  0  0  0  0  0
   15.3832    2.0354   -0.7903 C   0  0  0  0  0  0  0  0  0  0  0  0
   15.3534    3.4188   -0.5357 C   0  0  0  0  0  0  0  0  0  0  0  0
   15.5968    4.3049   -1.5946 C   0  0  0  0  0  0  0  0  0  0  0  0
   15.8275    3.8920   -2.8511 N   0  0  0  0  0  0  0  0  0  0  0  0
   15.8598    2.5642   -3.0762 C   0  0  0  0  0  0  0  0  0  0  0  0
   15.3327   -0.8573   -1.5012 C   0  0  0  0  0  0  0  0  0  0  0  0
   13.2767   -3.0094   -0.6368 C   0  0  0  0  0  0  0  0  0  0  0  0
   12.3981   -3.0674   -1.5055 O   0  0  0  0  0  0  0  0  0  0  0  0
    0.0000    0.0000    0.0000 H   0  0  0  0  0  0  0  0  0  0  0  0
    0.0000    0.0000    0.0000 H   0  0  0  0  0  0  0  0  0  0  0  0
    0.0000    0.0000    0.0000 H   0  0  0  0  0  0  0  0  0  0  0  0
    0.0000    0.0000    0.0000 H   0  0  0  0  0  0  0  0  0  0  0  0
    0.0000    0.0000    0.0000 H   0  0  0  0  0  0  0  0  0  0  0  0
    0.0000    0.0000    0.0000 H   0  0  0  0  0  0  0  0  0  0  0  0
    0.0000    0.0000    0.0000 H   0  0  0  0  0  0  0  0  0  0  0  0
    0.0000    0.0000    0.0000 H   0  0  0  0  0  0  0  0  0  0  0  0
    0.0000    0.0000    0.0000 H   0  0  0  0  0  0  0  0  0  0  0  0
    0.0000    0.0000    0.0000 H   0  0  0  0  0  0  0  0  0  0  0  0
    0.0000    0.0000    0.0000 H   0  0  0  0  0  0  0  0  0  0  0  0
    0.0000    0.0000    0.0000 H   0  0  0  0  0  0  0  0  0  0  0  0
    0.0000    0.0000    0.0000 H   0  0  0  0  0  0  0  0  0  0  0  0
    0.0000    0.0000    0.0000 H   0  0  0  0  0  0  0  0  0  0  0  0
    6.9830   -1.5347   -0.3717 C   0  0  0  0  0  0  0  0  0  0  0  0
    6.2803   -2.8797   -0.2233 C   0  0  0  0  0  0  0  0  0  0  0  0
    6.8495   -3.7618   -1.3419 C   0  0  0  0  0  0  0  0  0  0  0  0
    6.3896   -3.1794   -2.5836 N   0  0  0  0  0  0  0  0  0  0  0  0
    6.5360   -4.0454   -3.7129 C   0  0  0  0  0  0  0  0  0  0  0  0
    7.1530   -1.9413   -2.7642 C   0  0  0  0  0  0  0  0  0  0  0  0
    6.6001   -0.9691   -1.7165 C   0  0  0  0  0  0  0  0  0  0  0  0
    6.7618   -0.8525    0.4616 H   0  0  0  0  0  0  0  0  0  0  0  0
    6.4618   -3.3478    0.7497 H   0  0  0  0  0  0  0  0  0  0  0  0
    5.1848   -2.7887   -0.3839 H   0  0  0  0  0  0  0  0  0  0  0  0
    6.5236   -4.8011   -1.2527 H   0  0  0  0  0  0  0  0  0  0  0  0
    7.9575   -3.6901   -1.2246 H   0  0  0  0  0  0  0  0  0  0  0  0
    6.1115   -5.0344   -3.4633 H   0  0  0  0  0  0  0  0  0  0  0  0
    7.5813   -4.1072   -4.0755 H   0  0  0  0  0  0  0  0  0  0  0  0
    5.9316   -3.6216   -4.5455 H   0  0  0  0  0  0  0  0  0  0  0  0
    6.9833   -1.5579   -3.7758 H   0  0  0  0  0  0  0  0  0  0  0  0
    8.2109   -2.1485   -2.5254 H   0  0  0  0  0  0  0  0  0  0  0  0
    7.0495    0.0068   -1.9258 H   0  0  0  0  0  0  0  0  0  0  0  0
    5.4880   -0.9807   -1.8779 H   0  0  0  0  0  0  0  0  0  0  0  0
  1  2  1  0
  2  3  1  0
  2 19  1  0
  3  4  1  0
  3  5  2  0
  5  6  1  0
  6  7  1  0
  6 19  1  0
  7  8  2  0
  7 18  1  0
  8  9  1  0
  9 10  2  0
 10 11  1  0
 11 12  1  0
 11 18  2  0
 12 13  2  0
 12 17  1  0
 13 14  1  0
 14 15  2  0
 15 16  1  0
 16 17  2  0
 19 20  2  0
  1 21  1  0
  1 22  1  0
  1 23  1  0
  4 24  1  0
  4 25  1  0
  5 26  1  0
  8 27  1  0
  9 28  1  0
 10 29  1  0
 13 30  1  0
 14 31  1  0
 15 32  1  0
 17 33  1  0
 18 34  1  0
 35 36  1  0
 36 37  1  0
 37 38  1  0
 38 39  1  0
 38 40  1  0
 40 41  1  0
 41 35  1  0
 35 42  1  0
 36 43  1  0
 36 44  1  0
 37 45  1  0
 37 46  1  0
 39 47  1  0
 39 48  1  0
 39 49  1  0
 40 50  1  0
 40 51  1  0
 41 52  1  0
 41 53  1  0
  6 35  1  6
M  CHG  1   5   1
M  END
>  <attachment_point>  (132) 
26

>  <score>  (132) 
<NA>

$$$$
CAT-4j
     RDKit          3D

 48 51  0  0  1  0  0  0  0  0999 V2000
   11.7106   -2.3098    1.2658 C   0  0  0  0  0  0  0  0  0  0  0  0
   13.0313   -2.6523    0.7225 N   0  0  0  0  0  0  0  0  0  0  0  0
   14.2010   -2.6281    1.3773 C   0  0  0  0  0  0  0  0  0  0  0  0
   14.3777   -2.3568    2.6732 N   0  0  0  0  0  0  0  0  0  0  0  0
   15.2217   -2.9197    0.5738 N   0  0  0  0  0  0  0  0  0  0  0  0
   14.7965   -3.2519   -0.7875 C   0  0  1  0  0  0  0  0  0  0  0  0
   15.3794   -2.2443   -1.7949 C   0  0  0  0  0  0  0  0  0  0  0  0
   15.9522   -2.6550   -3.0208 C   0  0  0  0  0  0  0  0  0  0  0  0
   16.4340   -1.6937   -3.9273 C   0  0  0  0  0  0  0  0  0  0  0  0
   16.3364   -0.3224   -3.6308 C   0  0  0  0  0  0  0  0  0  0  0  0
   15.7943    0.1250   -2.4073 C   0  0  0  0  0  0  0  0  0  0  0  0
   15.6711    1.5693   -2.0915 C   0  0  0  0  0  0  0  0  0  0  0  0
   15.3832    2.0354   -0.7903 C   0  0  0  0  0  0  0  0  0  0  0  0
   15.3534    3.4188   -0.5357 C   0  0  0  0  0  0  0  0  0  0  0  0
   15.5968    4.3049   -1.5946 C   0  0  0  0  0  0  0  0  0  0  0  0
   15.8275    3.8920   -2.8511 N   0  0  0  0  0  0  0  0  0  0  0  0
   15.8598    2.5642   -3.0762 C   0  0  0  0  0  0  0  0  0  0  0  0
   15.3327   -0.8573   -1.5012 C   0  0  0  0  0  0  0  0  0  0  0  0
   13.2767   -3.0094   -0.6368 C   0  0  0  0  0  0  0  0  0  0  0  0
   12.3981   -3.0674   -1.5055 O   0  0  0  0  0  0  0  0  0  0  0  0
    0.0000    0.0000    0.0000 H   0  0  0  0  0  0  0  0  0  0  0  0
    0.0000    0.0000    0.0000 H   0  0  0  0  0  0  0  0  0  0  0  0
    0.0000    0.0000    0.0000 H   0  0  0  0  0  0  0  0  0  0  0  0
    0.0000    0.0000    0.0000 H   0  0  0  0  0  0  0  0  0  0  0  0
    0.0000    0.0000    0.0000 H   0  0  0  0  0  0  0  0  0  0  0  0
    0.0000    0.0000    0.0000 H   0  0  0  0  0  0  0  0  0  0  0  0
    0.0000    0.0000    0.0000 H   0  0  0  0  0  0  0  0  0  0  0  0
    0.0000    0.0000    0.0000 H   0  0  0  0  0  0  0  0  0  0  0  0
    0.0000    0.0000    0.0000 H   0  0  0  0  0  0  0  0  0  0  0  0
    0.0000    0.0000    0.0000 H   0  0  0  0  0  0  0  0  0  0  0  0
    0.0000    0.0000    0.0000 H   0  0  0  0  0  0  0  0  0  0  0  0
    0.0000    0.0000    0.0000 H   0  0  0  0  0  0  0  0  0  0  0  0
    0.0000    0.0000    0.0000 H   0  0  0  0  0  0  0  0  0  0  0  0
    0.0000    0.0000    0.0000 H   0  0  0  0  0  0  0  0  0  0  0  0
    6.9803   -1.5341   -0.3715 C   0  0  0  0  0  0  0  0  0  0  0  0
    6.0124   -2.3864    0.0904 C   0  0  0  0  0  0  0  0  0  0  0  0
    4.6750   -2.0376    0.1403 C   0  0  0  0  0  0  0  0  0  0  0  0
    4.3345   -0.7788   -0.2980 C   0  0  0  0  0  0  0  0  0  0  0  0
    5.2905    0.1083   -0.7719 C   0  0  0  0  0  0  0  0  0  0  0  0
    4.9281    1.4670   -1.2456 C   0  0  0  0  0  0  0  0  0  0  0  0
    3.5806    1.5793   -1.4843 F   0  0  0  0  0  0  0  0  0  0  0  0
    5.3641    2.3935   -0.3244 F   0  0  0  0  0  0  0  0  0  0  0  0
    5.5917    1.7587   -2.4358 F   0  0  0  0  0  0  0  0  0  0  0  0
    6.6048   -0.2843   -0.8017 C   0  0  0  0  0  0  0  0  0  0  0  0
    6.3163   -3.3703    0.4278 H   0  0  0  0  0  0  0  0  0  0  0  0
    3.9155   -2.7043    0.5020 H   0  0  0  0  0  0  0  0  0  0  0  0
    3.2948   -0.4223   -0.2922 H   0  0  0  0  0  0  0  0  0  0  0  0
    7.3410    0.4340   -1.1800 H   0  0  0  0  0  0  0  0  0  0  0  0
  1  2  1  0
  2  3  1  0
  2 19  1  0
  3  4  1  0
  3  5  2  0
  5  6  1  0
  6  7  1  1
  6 19  1  0
  7  8  2  0
  7 18  1  0
  8  9  1  0
  9 10  2  0
 10 11  1  0
 11 12  1  0
 11 18  2  0
 12 13  2  0
 12 17  1  0
 13 14  1  0
 14 15  2  0
 15 16  1  0
 16 17  2  0
 19 20  2  0
  1 21  1  0
  1 22  1  0
  1 23  1  0
  4 24  1  0
  4 25  1  0
  5 26  1  0
  8 27  1  0
  9 28  1  0
 10 29  1  0
 13 30  1  0
 14 31  1  0
 15 32  1  0
 17 33  1  0
 18 34  1  0
 35 36  2  0
 36 37  1  0
 37 38  2  0
 38 39  1  0
 39 40  1  0
 40 41  1  0
 40 42  1  0
 40 43  1  0
 39 44  2  0
 44 35  1  0
 36 45  1  0
 37 46  1  0
 38 47  1  0
 44 48  1  0
  6 35  1  0
M  CHG  1   5   1
M  END
>  <attachment_point>  (133) 
26

>  <score>  (133) 
<NA>

$$$$
CAT-4j
     RDKit          3D

 52 54  0  0  1  0  0  0  0  0999 V2000
   11.7106   -2.3098    1.2658 C   0  0  0  0  0  0  0  0  0  0  0  0
   13.0313   -2.6523    0.7225 N   0  0  0  0  0  0  0  0  0  0  0  0
   14.2010   -2.6281    1.3773 C   0  0  0  0  0  0  0  0  0  0  0  0
   14.3777   -2.3568    2.6732 N   0  0  0  0  0  0  0  0  0  0  0  0
   15.2217   -2.9197    0.5738 N   0  0  0  0  0  0  0  0  0  0  0  0
   14.7965   -3.2519   -0.7875 C   0  0  1  0  0  0  0  0  0  0  0  0
   15.3794   -2.2443   -1.7949 C   0  0  0  0  0  0  0  0  0  0  0  0
   15.9522   -2.6550   -3.0208 C   0  0  0  0  0  0  0  0  0  0  0  0
   16.4340   -1.6937   -3.9273 C   0  0  0  0  0  0  0  0  0  0  0  0
   16.3364   -0.3224   -3.6308 C   0  0  0  0  0  0  0  0  0  0  0  0
   15.7943    0.1250   -2.4073 C   0  0  0  0  0  0  0  0  0  0  0  0
   15.6711    1.5693   -2.0915 C   0  0  0  0  0  0  0  0  0  0  0  0
   15.3832    2.0354   -0.7903 C   0  0  0  0  0  0  0  0  0  0  0  0
   15.3534    3.4188   -0.5357 C   0  0  0  0  0  0  0  0  0  0  0  0
   15.5968    4.3049   -1.5946 C   0  0  0  0  0  0  0  0  0  0  0  0
   15.8275    3.8920   -2.8511 N   0  0  0  0  0  0  0  0  0  0  0  0
   15.8598    2.5642   -3.0762 C   0  0  0  0  0  0  0  0  0  0  0  0
   15.3327   -0.8573   -1.5012 C   0  0  0  0  0  0  0  0  0  0  0  0
   13.2767   -3.0094   -0.6368 C   0  0  0  0  0  0  0  0  0  0  0  0
   12.3981   -3.0674   -1.5055 O   0  0  0  0  0  0  0  0  0  0  0  0
    0.0000    0.0000    0.0000 H   0  0  0  0  0  0  0  0  0  0  0  0
    0.0000    0.0000    0.0000 H   0  0  0  0  0  0  0  0  0  0  0  0
    0.0000    0.0000    0.0000 H   0  0  0  0  0  0  0  0  0  0  0  0
    0.0000    0.0000    0.0000 H   0  0  0  0  0  0  0  0  0  0  0  0
    0.0000    0.0000    0.0000 H   0  0  0  0  0  0  0  0  0  0  0  0
    0.0000    0.0000    0.0000 H   0  0  0  0  0  0  0  0  0  0  0  0
    0.0000    0.0000    0.0000 H   0  0  0  0  0  0  0  0  0  0  0  0
    0.0000    0.0000    0.0000 H   0  0  0  0  0  0  0  0  0  0  0  0
    0.0000    0.0000    0.0000 H   0  0  0  0  0  0  0  0  0  0  0  0
    0.0000    0.0000    0.0000 H   0  0  0  0  0  0  0  0  0  0  0  0
    0.0000    0.0000    0.0000 H   0  0  0  0  0  0  0  0  0  0  0  0
    0.0000    0.0000    0.0000 H   0  0  0  0  0  0  0  0  0  0  0  0
    0.0000    0.0000    0.0000 H   0  0  0  0  0  0  0  0  0  0  0  0
    0.0000    0.0000    0.0000 H   0  0  0  0  0  0  0  0  0  0  0  0
    6.9911   -1.5365   -0.3721 C   0  0  0  0  0  0  0  0  0  0  0  0
    6.2772   -2.5081    0.4220 N   0  0  0  0  0  0  0  0  0  0  0  0
    4.8720   -2.2278    0.5130 C   0  0  0  0  0  0  0  0  0  0  0  0
    4.0848   -3.1977    1.3345 C   0  0  0  0  0  0  0  0  0  0  0  0
    6.6181   -3.8608    0.0973 C   0  0  0  0  0  0  0  0  0  0  0  0
    8.0645   -4.0869    0.5341 C   0  0  0  0  0  0  0  0  0  0  0  0
    6.4752   -1.3964   -1.3447 H   0  0  0  0  0  0  0  0  0  0  0  0
    6.9214   -0.5593    0.1677 H   0  0  0  0  0  0  0  0  0  0  0  0
    4.7899   -1.2139    1.0070 H   0  0  0  0  0  0  0  0  0  0  0  0
    4.3664   -2.0977   -0.4704 H   0  0  0  0  0  0  0  0  0  0  0  0
    4.0450   -4.2093    0.9364 H   0  0  0  0  0  0  0  0  0  0  0  0
    4.5088   -3.2121    2.3670 H   0  0  0  0  0  0  0  0  0  0  0  0
    3.0442   -2.7899    1.4588 H   0  0  0  0  0  0  0  0  0  0  0  0
    6.5003   -4.1494   -0.9446 H   0  0  0  0  0  0  0  0  0  0  0  0
    6.0282   -4.5457    0.7450 H   0  0  0  0  0  0  0  0  0  0  0  0
    8.6895   -3.2371    0.1947 H   0  0  0  0  0  0  0  0  0  0  0  0
    8.1645   -4.1318    1.6360 H   0  0  0  0  0  0  0  0  0  0  0  0
    8.3952   -5.0723    0.1500 H   0  0  0  0  0  0  0  0  0  0  0  0
  1  2  1  0
  2  3  1  0
  2 19  1  0
  3  4  1  0
  3  5  2  0
  5  6  1  0
  6  7  1  0
  6 19  1  0
  7  8  2  0
  7 18  1  0
  8  9  1  0
  9 10  2  0
 10 11  1  0
 11 12  1  0
 11 18  2  0
 12 13  2  0
 12 17  1  0
 13 14  1  0
 14 15  2  0
 15 16  1  0
 16 17  2  0
 19 20  2  0
  1 21  1  0
  1 22  1  0
  1 23  1  0
  4 24  1  0
  4 25  1  0
  5 26  1  0
  8 27  1  0
  9 28  1  0
 10 29  1  0
 13 30  1  0
 14 31  1  0
 15 32  1  0
 17 33  1  0
 18 34  1  0
 35 36  1  0
 36 37  1  0
 37 38  1  0
 36 39  1  0
 39 40  1  0
 35 41  1  0
 35 42  1  0
 37 43  1  0
 37 44  1  0
 38 45  1  0
 38 46  1  0
 38 47  1  0
 39 48  1  0
 39 49  1  0
 40 50  1  0
 40 51  1  0
 40 52  1  0
  6 35  1  6
M  CHG  1   5   1
M  END
>  <attachment_point>  (134) 
26

>  <score>  (134) 
<NA>

$$$$
CAT-4j
     RDKit          3D

 48 52  0  0  1  0  0  0  0  0999 V2000
   11.7106   -2.3098    1.2658 C   0  0  0  0  0  0  0  0  0  0  0  0
   13.0313   -2.6523    0.7225 N   0  0  0  0  0  0  0  0  0  0  0  0
   14.2010   -2.6281    1.3773 C   0  0  0  0  0  0  0  0  0  0  0  0
   14.3777   -2.3568    2.6732 N   0  0  0  0  0  0  0  0  0  0  0  0
   15.2217   -2.9197    0.5738 N   0  0  0  0  0  0  0  0  0  0  0  0
   14.7965   -3.2519   -0.7875 C   0  0  1  0  0  0  0  0  0  0  0  0
   15.3794   -2.2443   -1.7949 C   0  0  0  0  0  0  0  0  0  0  0  0
   15.9522   -2.6550   -3.0208 C   0  0  0  0  0  0  0  0  0  0  0  0
   16.4340   -1.6937   -3.9273 C   0  0  0  0  0  0  0  0  0  0  0  0
   16.3364   -0.3224   -3.6308 C   0  0  0  0  0  0  0  0  0  0  0  0
   15.7943    0.1250   -2.4073 C   0  0  0  0  0  0  0  0  0  0  0  0
   15.6711    1.5693   -2.0915 C   0  0  0  0  0  0  0  0  0  0  0  0
   15.3832    2.0354   -0.7903 C   0  0  0  0  0  0  0  0  0  0  0  0
   15.3534    3.4188   -0.5357 C   0  0  0  0  0  0  0  0  0  0  0  0
   15.5968    4.3049   -1.5946 C   0  0  0  0  0  0  0  0  0  0  0  0
   15.8275    3.8920   -2.8511 N   0  0  0  0  0  0  0  0  0  0  0  0
   15.8598    2.5642   -3.0762 C   0  0  0  0  0  0  0  0  0  0  0  0
   15.3327   -0.8573   -1.5012 C   0  0  0  0  0  0  0  0  0  0  0  0
   13.2767   -3.0094   -0.6368 C   0  0  0  0  0  0  0  0  0  0  0  0
   12.3981   -3.0674   -1.5055 O   0  0  0  0  0  0  0  0  0  0  0  0
    0.0000    0.0000    0.0000 H   0  0  0  0  0  0  0  0  0  0  0  0
    0.0000    0.0000    0.0000 H   0  0  0  0  0  0  0  0  0  0  0  0
    0.0000    0.0000    0.0000 H   0  0  0  0  0  0  0  0  0  0  0  0
    0.0000    0.0000    0.0000 H   0  0  0  0  0  0  0  0  0  0  0  0
    0.0000    0.0000    0.0000 H   0  0  0  0  0  0  0  0  0  0  0  0
    0.0000    0.0000    0.0000 H   0  0  0  0  0  0  0  0  0  0  0  0
    0.0000    0.0000    0.0000 H   0  0  0  0  0  0  0  0  0  0  0  0
    0.0000    0.0000    0.0000 H   0  0  0  0  0  0  0  0  0  0  0  0
    0.0000    0.0000    0.0000 H   0  0  0  0  0  0  0  0  0  0  0  0
    0.0000    0.0000    0.0000 H   0  0  0  0  0  0  0  0  0  0  0  0
    0.0000    0.0000    0.0000 H   0  0  0  0  0  0  0  0  0  0  0  0
    0.0000    0.0000    0.0000 H   0  0  0  0  0  0  0  0  0  0  0  0
    0.0000    0.0000    0.0000 H   0  0  0  0  0  0  0  0  0  0  0  0
    0.0000    0.0000    0.0000 H   0  0  0  0  0  0  0  0  0  0  0  0
    6.9469   -1.5268   -0.3697 C   0  0  0  0  0  0  0  0  0  0  0  0
    6.4173   -0.3168   -0.2080 N   0  0  0  0  0  0  0  0  0  0  0  0
    5.0684   -0.4335   -0.1868 C   0  0  0  0  0  0  0  0  0  0  0  0
    4.0324    0.4862   -0.0471 C   0  0  0  0  0  0  0  0  0  0  0  0
    2.7094    0.1017   -0.0591 C   0  0  0  0  0  0  0  0  0  0  0  0
    2.4405   -1.2312   -0.2150 C   0  0  0  0  0  0  0  0  0  0  0  0
    3.4415   -2.1508   -0.3537 C   0  0  0  0  0  0  0  0  0  0  0  0
    4.7782   -1.7703   -0.3424 C   0  0  0  0  0  0  0  0  0  0  0  0
    5.9515   -2.4116   -0.4516 N   0  0  0  0  0  0  0  0  0  0  0  0
    4.3116    1.5241    0.0724 H   0  0  0  0  0  0  0  0  0  0  0  0
    1.9248    0.8627    0.0544 H   0  0  0  0  0  0  0  0  0  0  0  0
    1.4039   -1.5292   -0.2240 H   0  0  0  0  0  0  0  0  0  0  0  0
    3.2111   -3.1905   -0.4746 H   0  0  0  0  0  0  0  0  0  0  0  0
    6.0241   -3.4369   -0.5788 H   0  0  0  0  0  0  0  0  0  0  0  0
  1  2  1  0
  2  3  1  0
  2 19  1  0
  3  4  1  0
  3  5  2  0
  5  6  1  0
  6  7  1  1
  6 19  1  0
  7  8  2  0
  7 18  1  0
  8  9  1  0
  9 10  2  0
 10 11  1  0
 11 12  1  0
 11 18  2  0
 12 13  2  0
 12 17  1  0
 13 14  1  0
 14 15  2  0
 15 16  1  0
 16 17  2  0
 19 20  2  0
  1 21  1  0
  1 22  1  0
  1 23  1  0
  4 24  1  0
  4 25  1  0
  5 26  1  0
  8 27  1  0
  9 28  1  0
 10 29  1  0
 13 30  1  0
 14 31  1  0
 15 32  1  0
 17 33  1  0
 18 34  1  0
 35 36  2  0
 36 37  1  0
 37 38  2  0
 38 39  1  0
 39 40  2  0
 40 41  1  0
 41 42  2  0
 42 43  1  0
 43 35  1  0
 42 37  1  0
 38 44  1  0
 39 45  1  0
 40 46  1  0
 41 47  1  0
 43 48  1  0
  6 35  1  0
M  CHG  1   5   1
M  END
>  <attachment_point>  (135) 
26

>  <score>  (135) 
<NA>

$$$$
CAT-4j
     RDKit          3D

 48 50  0  0  1  0  0  0  0  0999 V2000
   11.7106   -2.3098    1.2658 C   0  0  0  0  0  0  0  0  0  0  0  0
   13.0313   -2.6523    0.7225 N   0  0  0  0  0  0  0  0  0  0  0  0
   14.2010   -2.6281    1.3773 C   0  0  0  0  0  0  0  0  0  0  0  0
   14.3777   -2.3568    2.6732 N   0  0  0  0  0  0  0  0  0  0  0  0
   15.2217   -2.9197    0.5738 N   0  0  0  0  0  0  0  0  0  0  0  0
   14.7965   -3.2519   -0.7875 C   0  0  1  0  0  0  0  0  0  0  0  0
   15.3794   -2.2443   -1.7949 C   0  0  0  0  0  0  0  0  0  0  0  0
   15.9522   -2.6550   -3.0208 C   0  0  0  0  0  0  0  0  0  0  0  0
   16.4340   -1.6937   -3.9273 C   0  0  0  0  0  0  0  0  0  0  0  0
   16.3364   -0.3224   -3.6308 C   0  0  0  0  0  0  0  0  0  0  0  0
   15.7943    0.1250   -2.4073 C   0  0  0  0  0  0  0  0  0  0  0  0
   15.6711    1.5693   -2.0915 C   0  0  0  0  0  0  0  0  0  0  0  0
   15.3832    2.0354   -0.7903 C   0  0  0  0  0  0  0  0  0  0  0  0
   15.3534    3.4188   -0.5357 C   0  0  0  0  0  0  0  0  0  0  0  0
   15.5968    4.3049   -1.5946 C   0  0  0  0  0  0  0  0  0  0  0  0
   15.8275    3.8920   -2.8511 N   0  0  0  0  0  0  0  0  0  0  0  0
   15.8598    2.5642   -3.0762 C   0  0  0  0  0  0  0  0  0  0  0  0
   15.3327   -0.8573   -1.5012 C   0  0  0  0  0  0  0  0  0  0  0  0
   13.2767   -3.0094   -0.6368 C   0  0  0  0  0  0  0  0  0  0  0  0
   12.3981   -3.0674   -1.5055 O   0  0  0  0  0  0  0  0  0  0  0  0
    0.0000    0.0000    0.0000 H   0  0  0  0  0  0  0  0  0  0  0  0
    0.0000    0.0000    0.0000 H   0  0  0  0  0  0  0  0  0  0  0  0
    0.0000    0.0000    0.0000 H   0  0  0  0  0  0  0  0  0  0  0  0
    0.0000    0.0000    0.0000 H   0  0  0  0  0  0  0  0  0  0  0  0
    0.0000    0.0000    0.0000 H   0  0  0  0  0  0  0  0  0  0  0  0
    0.0000    0.0000    0.0000 H   0  0  0  0  0  0  0  0  0  0  0  0
    0.0000    0.0000    0.0000 H   0  0  0  0  0  0  0  0  0  0  0  0
    0.0000    0.0000    0.0000 H   0  0  0  0  0  0  0  0  0  0  0  0
    0.0000    0.0000    0.0000 H   0  0  0  0  0  0  0  0  0  0  0  0
    0.0000    0.0000    0.0000 H   0  0  0  0  0  0  0  0  0  0  0  0
    0.0000    0.0000    0.0000 H   0  0  0  0  0  0  0  0  0  0  0  0
    0.0000    0.0000    0.0000 H   0  0  0  0  0  0  0  0  0  0  0  0
    0.0000    0.0000    0.0000 H   0  0  0  0  0  0  0  0  0  0  0  0
    0.0000    0.0000    0.0000 H   0  0  0  0  0  0  0  0  0  0  0  0
    6.9175   -1.5203   -0.3682 C   0  0  0  0  0  0  0  0  0  0  0  0
    6.6118   -0.3737   -0.5748 O   0  0  0  0  0  0  0  0  0  0  0  0
    6.0932   -2.6097   -0.0620 N   0  0  0  0  0  0  0  0  0  0  0  0
    4.6428   -2.4434    0.0467 C   0  0  0  0  0  0  0  0  0  0  0  0
    3.9624   -3.4032   -0.9091 C   0  0  0  0  0  0  0  0  0  0  0  0
    4.1815   -2.8912    1.4363 C   0  0  0  0  0  0  0  0  0  0  0  0
    6.4445   -3.5769    0.1031 H   0  0  0  0  0  0  0  0  0  0  0  0
    4.3461   -1.3906   -0.1415 H   0  0  0  0  0  0  0  0  0  0  0  0
    4.5311   -4.3464   -0.8974 H   0  0  0  0  0  0  0  0  0  0  0  0
    2.9335   -3.6610   -0.5396 H   0  0  0  0  0  0  0  0  0  0  0  0
    3.8518   -2.9463   -1.8991 H   0  0  0  0  0  0  0  0  0  0  0  0
    3.0739   -2.8030    1.4410 H   0  0  0  0  0  0  0  0  0  0  0  0
    4.3975   -3.9823    1.5064 H   0  0  0  0  0  0  0  0  0  0  0  0
    4.6604   -2.2993    2.2336 H   0  0  0  0  0  0  0  0  0  0  0  0
  1  2  1  0
  2  3  1  0
  2 19  1  0
  3  4  1  0
  3  5  2  0
  5  6  1  0
  6  7  1  0
  6 19  1  0
  7  8  2  0
  7 18  1  0
  8  9  1  0
  9 10  2  0
 10 11  1  0
 11 12  1  0
 11 18  2  0
 12 13  2  0
 12 17  1  0
 13 14  1  0
 14 15  2  0
 15 16  1  0
 16 17  2  0
 19 20  2  0
  1 21  1  0
  1 22  1  0
  1 23  1  0
  4 24  1  0
  4 25  1  0
  5 26  1  0
  8 27  1  0
  9 28  1  0
 10 29  1  0
 13 30  1  0
 14 31  1  0
 15 32  1  0
 17 33  1  0
 18 34  1  0
 35 36  2  0
 35 37  1  0
 37 38  1  0
 38 39  1  0
 38 40  1  0
 37 41  1  0
 38 42  1  0
 39 43  1  0
 39 44  1  0
 39 45  1  0
 40 46  1  0
 40 47  1  0
 40 48  1  0
  6 35  1  6
M  CHG  1   5   1
M  END
>  <attachment_point>  (136) 
26

>  <score>  (136) 
<NA>

$$$$
CAT-4j
     RDKit          3D

 44 46  0  0  1  0  0  0  0  0999 V2000
   11.7106   -2.3098    1.2658 C   0  0  0  0  0  0  0  0  0  0  0  0
   13.0313   -2.6523    0.7225 N   0  0  0  0  0  0  0  0  0  0  0  0
   14.2010   -2.6281    1.3773 C   0  0  0  0  0  0  0  0  0  0  0  0
   14.3777   -2.3568    2.6732 N   0  0  0  0  0  0  0  0  0  0  0  0
   15.2217   -2.9197    0.5738 N   0  0  0  0  0  0  0  0  0  0  0  0
   14.7965   -3.2519   -0.7875 C   0  0  1  0  0  0  0  0  0  0  0  0
   15.3794   -2.2443   -1.7949 C   0  0  0  0  0  0  0  0  0  0  0  0
   15.9522   -2.6550   -3.0208 C   0  0  0  0  0  0  0  0  0  0  0  0
   16.4340   -1.6937   -3.9273 C   0  0  0  0  0  0  0  0  0  0  0  0
   16.3364   -0.3224   -3.6308 C   0  0  0  0  0  0  0  0  0  0  0  0
   15.7943    0.1250   -2.4073 C   0  0  0  0  0  0  0  0  0  0  0  0
   15.6711    1.5693   -2.0915 C   0  0  0  0  0  0  0  0  0  0  0  0
   15.3832    2.0354   -0.7903 C   0  0  0  0  0  0  0  0  0  0  0  0
   15.3534    3.4188   -0.5357 C   0  0  0  0  0  0  0  0  0  0  0  0
   15.5968    4.3049   -1.5946 C   0  0  0  0  0  0  0  0  0  0  0  0
   15.8275    3.8920   -2.8511 N   0  0  0  0  0  0  0  0  0  0  0  0
   15.8598    2.5642   -3.0762 C   0  0  0  0  0  0  0  0  0  0  0  0
   15.3327   -0.8573   -1.5012 C   0  0  0  0  0  0  0  0  0  0  0  0
   13.2767   -3.0094   -0.6368 C   0  0  0  0  0  0  0  0  0  0  0  0
   12.3981   -3.0674   -1.5055 O   0  0  0  0  0  0  0  0  0  0  0  0
    0.0000    0.0000    0.0000 H   0  0  0  0  0  0  0  0  0  0  0  0
    0.0000    0.0000    0.0000 H   0  0  0  0  0  0  0  0  0  0  0  0
    0.0000    0.0000    0.0000 H   0  0  0  0  0  0  0  0  0  0  0  0
    0.0000    0.0000    0.0000 H   0  0  0  0  0  0  0  0  0  0  0  0
    0.0000    0.0000    0.0000 H   0  0  0  0  0  0  0  0  0  0  0  0
    0.0000    0.0000    0.0000 H   0  0  0  0  0  0  0  0  0  0  0  0
    0.0000    0.0000    0.0000 H   0  0  0  0  0  0  0  0  0  0  0  0
    0.0000    0.0000    0.0000 H   0  0  0  0  0  0  0  0  0  0  0  0
    0.0000    0.0000    0.0000 H   0  0  0  0  0  0  0  0  0  0  0  0
    0.0000    0.0000    0.0000 H   0  0  0  0  0  0  0  0  0  0  0  0
    0.0000    0.0000    0.0000 H   0  0  0  0  0  0  0  0  0  0  0  0
    0.0000    0.0000    0.0000 H   0  0  0  0  0  0  0  0  0  0  0  0
    0.0000    0.0000    0.0000 H   0  0  0  0  0  0  0  0  0  0  0  0
    0.0000    0.0000    0.0000 H   0  0  0  0  0  0  0  0  0  0  0  0
    6.9734   -1.5326   -0.3711 N   0  0  0  0  0  0  0  0  0  0  0  0
    6.7782   -0.4122   -1.2280 C   0  0  0  0  0  0  0  0  0  0  0  0
    7.5836    0.8051   -0.8255 C   0  0  0  0  0  0  0  0  0  0  0  0
    8.9394    0.5735   -0.8272 O   0  0  0  0  0  0  0  0  0  0  0  0
    6.8134   -1.3599    0.6253 H   0  0  0  0  0  0  0  0  0  0  0  0
    7.0398   -0.6684   -2.2619 H   0  0  0  0  0  0  0  0  0  0  0  0
    5.7136   -0.1283   -1.2161 H   0  0  0  0  0  0  0  0  0  0  0  0
    7.3816    1.6291   -1.5418 H   0  0  0  0  0  0  0  0  0  0  0  0
    7.2870    1.1731    0.1794 H   0  0  0  0  0  0  0  0  0  0  0  0
    9.2727    0.3440   -1.7191 H   0  0  0  0  0  0  0  0  0  0  0  0
  1  2  1  0
  2  3  1  0
  2 19  1  0
  3  4  1  0
  3  5  2  0
  5  6  1  0
  6  7  1  0
  6 19  1  0
  7  8  2  0
  7 18  1  0
  8  9  1  0
  9 10  2  0
 10 11  1  0
 11 12  1  0
 11 18  2  0
 12 13  2  0
 12 17  1  0
 13 14  1  0
 14 15  2  0
 15 16  1  0
 16 17  2  0
 19 20  2  0
  1 21  1  0
  1 22  1  0
  1 23  1  0
  4 24  1  0
  4 25  1  0
  5 26  1  0
  8 27  1  0
  9 28  1  0
 10 29  1  0
 13 30  1  0
 14 31  1  0
 15 32  1  0
 17 33  1  0
 18 34  1  0
 35 36  1  0
 36 37  1  0
 37 38  1  0
 35 39  1  0
 36 40  1  0
 36 41  1  0
 37 42  1  0
 37 43  1  0
 38 44  1  0
  6 35  1  6
M  CHG  1   5   1
M  END
>  <attachment_point>  (137) 
26

>  <score>  (137) 
<NA>

$$$$
CAT-4j
     RDKit          3D

 51 55  0  0  1  0  0  0  0  0999 V2000
   11.7106   -2.3098    1.2658 C   0  0  0  0  0  0  0  0  0  0  0  0
   13.0313   -2.6523    0.7225 N   0  0  0  0  0  0  0  0  0  0  0  0
   14.2010   -2.6281    1.3773 C   0  0  0  0  0  0  0  0  0  0  0  0
   14.3777   -2.3568    2.6732 N   0  0  0  0  0  0  0  0  0  0  0  0
   15.2217   -2.9197    0.5738 N   0  0  0  0  0  0  0  0  0  0  0  0
   14.7965   -3.2519   -0.7875 C   0  0  1  0  0  0  0  0  0  0  0  0
   15.3794   -2.2443   -1.7949 C   0  0  0  0  0  0  0  0  0  0  0  0
   15.9522   -2.6550   -3.0208 C   0  0  0  0  0  0  0  0  0  0  0  0
   16.4340   -1.6937   -3.9273 C   0  0  0  0  0  0  0  0  0  0  0  0
   16.3364   -0.3224   -3.6308 C   0  0  0  0  0  0  0  0  0  0  0  0
   15.7943    0.1250   -2.4073 C   0  0  0  0  0  0  0  0  0  0  0  0
   15.6711    1.5693   -2.0915 C   0  0  0  0  0  0  0  0  0  0  0  0
   15.3832    2.0354   -0.7903 C   0  0  0  0  0  0  0  0  0  0  0  0
   15.3534    3.4188   -0.5357 C   0  0  0  0  0  0  0  0  0  0  0  0
   15.5968    4.3049   -1.5946 C   0  0  0  0  0  0  0  0  0  0  0  0
   15.8275    3.8920   -2.8511 N   0  0  0  0  0  0  0  0  0  0  0  0
   15.8598    2.5642   -3.0762 C   0  0  0  0  0  0  0  0  0  0  0  0
   15.3327   -0.8573   -1.5012 C   0  0  0  0  0  0  0  0  0  0  0  0
   13.2767   -3.0094   -0.6368 C   0  0  0  0  0  0  0  0  0  0  0  0
   12.3981   -3.0674   -1.5055 O   0  0  0  0  0  0  0  0  0  0  0  0
    0.0000    0.0000    0.0000 H   0  0  0  0  0  0  0  0  0  0  0  0
    0.0000    0.0000    0.0000 H   0  0  0  0  0  0  0  0  0  0  0  0
    0.0000    0.0000    0.0000 H   0  0  0  0  0  0  0  0  0  0  0  0
    0.0000    0.0000    0.0000 H   0  0  0  0  0  0  0  0  0  0  0  0
    0.0000    0.0000    0.0000 H   0  0  0  0  0  0  0  0  0  0  0  0
    0.0000    0.0000    0.0000 H   0  0  0  0  0  0  0  0  0  0  0  0
    0.0000    0.0000    0.0000 H   0  0  0  0  0  0  0  0  0  0  0  0
    0.0000    0.0000    0.0000 H   0  0  0  0  0  0  0  0  0  0  0  0
    0.0000    0.0000    0.0000 H   0  0  0  0  0  0  0  0  0  0  0  0
    0.0000    0.0000    0.0000 H   0  0  0  0  0  0  0  0  0  0  0  0
    0.0000    0.0000    0.0000 H   0  0  0  0  0  0  0  0  0  0  0  0
    0.0000    0.0000    0.0000 H   0  0  0  0  0  0  0  0  0  0  0  0
    0.0000    0.0000    0.0000 H   0  0  0  0  0  0  0  0  0  0  0  0
    0.0000    0.0000    0.0000 H   0  0  0  0  0  0  0  0  0  0  0  0
    6.9367   -1.5245   -0.3692 C   0  0  0  0  0  0  0  0  0  0  0  0
    6.4776   -0.5929    0.4867 C   0  0  0  0  0  0  0  0  0  0  0  0
    5.0986   -0.3434    0.5064 C   0  0  0  0  0  0  0  0  0  0  0  0
    4.2583   -1.0409   -0.3319 C   0  0  0  0  0  0  0  0  0  0  0  0
    4.7389   -1.9930   -1.2045 C   0  0  0  0  0  0  0  0  0  0  0  0
    6.1158   -2.2160   -1.1982 C   0  0  0  0  0  0  0  0  0  0  0  0
    3.8854   -2.6984   -2.0529 O   0  0  0  0  0  0  0  0  0  0  0  0
    2.6752   -2.0111   -2.4052 C   0  0  0  0  0  0  0  0  0  0  0  0
    2.0257   -1.6134   -1.0868 C   0  0  0  0  0  0  0  0  0  0  0  0
    2.8849   -0.7942   -0.3139 O   0  0  0  0  0  0  0  0  0  0  0  0
    7.1613   -0.0604    1.1335 H   0  0  0  0  0  0  0  0  0  0  0  0
    4.7699    0.4083    1.2039 H   0  0  0  0  0  0  0  0  0  0  0  0
    6.4914   -2.9605   -1.8806 H   0  0  0  0  0  0  0  0  0  0  0  0
    1.9819   -2.6384   -2.9606 H   0  0  0  0  0  0  0  0  0  0  0  0
    2.9242   -1.0447   -2.9207 H   0  0  0  0  0  0  0  0  0  0  0  0
    1.7730   -2.5401   -0.5530 H   0  0  0  0  0  0  0  0  0  0  0  0
    1.1114   -0.9869   -1.2958 H   0  0  0  0  0  0  0  0  0  0  0  0
  1  2  1  0
  2  3  1  0
  2 19  1  0
  3  4  1  0
  3  5  2  0
  5  6  1  0
  6  7  1  1
  6 19  1  0
  7  8  2  0
  7 18  1  0
  8  9  1  0
  9 10  2  0
 10 11  1  0
 11 12  1  0
 11 18  2  0
 12 13  2  0
 12 17  1  0
 13 14  1  0
 14 15  2  0
 15 16  1  0
 16 17  2  0
 19 20  2  0
  1 21  1  0
  1 22  1  0
  1 23  1  0
  4 24  1  0
  4 25  1  0
  5 26  1  0
  8 27  1  0
  9 28  1  0
 10 29  1  0
 13 30  1  0
 14 31  1  0
 15 32  1  0
 17 33  1  0
 18 34  1  0
 35 36  2  0
 36 37  1  0
 37 38  2  0
 38 39  1  0
 39 40  2  0
 39 41  1  0
 41 42  1  0
 42 43  1  0
 43 44  1  0
 40 35  1  0
 44 38  1  0
 36 45  1  0
 37 46  1  0
 40 47  1  0
 42 48  1  0
 42 49  1  0
 43 50  1  0
 43 51  1  0
  6 35  1  0
M  CHG  1   5   1
M  END
>  <attachment_point>  (138) 
26

>  <score>  (138) 
<NA>

$$$$
CAT-4j
     RDKit          3D

 46 48  0  0  1  0  0  0  0  0999 V2000
   11.7106   -2.3098    1.2658 C   0  0  0  0  0  0  0  0  0  0  0  0
   13.0313   -2.6523    0.7225 N   0  0  0  0  0  0  0  0  0  0  0  0
   14.2010   -2.6281    1.3773 C   0  0  0  0  0  0  0  0  0  0  0  0
   14.3777   -2.3568    2.6732 N   0  0  0  0  0  0  0  0  0  0  0  0
   15.2217   -2.9197    0.5738 N   0  0  0  0  0  0  0  0  0  0  0  0
   14.7965   -3.2519   -0.7875 C   0  0  1  0  0  0  0  0  0  0  0  0
   15.3794   -2.2443   -1.7949 C   0  0  0  0  0  0  0  0  0  0  0  0
   15.9522   -2.6550   -3.0208 C   0  0  0  0  0  0  0  0  0  0  0  0
   16.4340   -1.6937   -3.9273 C   0  0  0  0  0  0  0  0  0  0  0  0
   16.3364   -0.3224   -3.6308 C   0  0  0  0  0  0  0  0  0  0  0  0
   15.7943    0.1250   -2.4073 C   0  0  0  0  0  0  0  0  0  0  0  0
   15.6711    1.5693   -2.0915 C   0  0  0  0  0  0  0  0  0  0  0  0
   15.3832    2.0354   -0.7903 C   0  0  0  0  0  0  0  0  0  0  0  0
   15.3534    3.4188   -0.5357 C   0  0  0  0  0  0  0  0  0  0  0  0
   15.5968    4.3049   -1.5946 C   0  0  0  0  0  0  0  0  0  0  0  0
   15.8275    3.8920   -2.8511 N   0  0  0  0  0  0  0  0  0  0  0  0
   15.8598    2.5642   -3.0762 C   0  0  0  0  0  0  0  0  0  0  0  0
   15.3327   -0.8573   -1.5012 C   0  0  0  0  0  0  0  0  0  0  0  0
   13.2767   -3.0094   -0.6368 C   0  0  0  0  0  0  0  0  0  0  0  0
   12.3981   -3.0674   -1.5055 O   0  0  0  0  0  0  0  0  0  0  0  0
    0.0000    0.0000    0.0000 H   0  0  0  0  0  0  0  0  0  0  0  0
    0.0000    0.0000    0.0000 H   0  0  0  0  0  0  0  0  0  0  0  0
    0.0000    0.0000    0.0000 H   0  0  0  0  0  0  0  0  0  0  0  0
    0.0000    0.0000    0.0000 H   0  0  0  0  0  0  0  0  0  0  0  0
    0.0000    0.0000    0.0000 H   0  0  0  0  0  0  0  0  0  0  0  0
    0.0000    0.0000    0.0000 H   0  0  0  0  0  0  0  0  0  0  0  0
    0.0000    0.0000    0.0000 H   0  0  0  0  0  0  0  0  0  0  0  0
    0.0000    0.0000    0.0000 H   0  0  0  0  0  0  0  0  0  0  0  0
    0.0000    0.0000    0.0000 H   0  0  0  0  0  0  0  0  0  0  0  0
    0.0000    0.0000    0.0000 H   0  0  0  0  0  0  0  0  0  0  0  0
    0.0000    0.0000    0.0000 H   0  0  0  0  0  0  0  0  0  0  0  0
    0.0000    0.0000    0.0000 H   0  0  0  0  0  0  0  0  0  0  0  0
    0.0000    0.0000    0.0000 H   0  0  0  0  0  0  0  0  0  0  0  0
    0.0000    0.0000    0.0000 H   0  0  0  0  0  0  0  0  0  0  0  0
    6.8485   -1.5051   -0.3645 C   0  0  0  0  0  0  0  0  0  0  0  0
    6.5048   -1.0322   -1.3614 O   0  0  0  0  0  0  0  0  0  0  0  0
    6.2795   -1.8283    0.8110 N   0  0  0  0  0  0  0  0  0  0  0  0
    4.8397   -1.5825    1.0686 C   0  0  0  0  0  0  0  0  0  0  0  0
    4.0300   -2.3636    0.0383 C   0  0  0  0  0  0  0  0  0  0  0  0
    2.6892   -2.1533    0.2541 O   0  0  0  0  0  0  0  0  0  0  0  0
    6.8459   -2.2719    1.5967 H   0  0  0  0  0  0  0  0  0  0  0  0
    4.5927   -2.0197    2.0466 H   0  0  0  0  0  0  0  0  0  0  0  0
    4.5953   -0.5198    1.0343 H   0  0  0  0  0  0  0  0  0  0  0  0
    4.3738   -2.0146   -0.9650 H   0  0  0  0  0  0  0  0  0  0  0  0
    4.2196   -3.4491    0.1136 H   0  0  0  0  0  0  0  0  0  0  0  0
    2.2283   -2.0516   -0.6168 H   0  0  0  0  0  0  0  0  0  0  0  0
  1  2  1  0
  2  3  1  0
  2 19  1  0
  3  4  1  0
  3  5  2  0
  5  6  1  0
  6  7  1  0
  6 19  1  0
  7  8  2  0
  7 18  1  0
  8  9  1  0
  9 10  2  0
 10 11  1  0
 11 12  1  0
 11 18  2  0
 12 13  2  0
 12 17  1  0
 13 14  1  0
 14 15  2  0
 15 16  1  0
 16 17  2  0
 19 20  2  0
  1 21  1  0
  1 22  1  0
  1 23  1  0
  4 24  1  0
  4 25  1  0
  5 26  1  0
  8 27  1  0
  9 28  1  0
 10 29  1  0
 13 30  1  0
 14 31  1  0
 15 32  1  0
 17 33  1  0
 18 34  1  0
 35 36  2  0
 35 37  1  0
 37 38  1  0
 38 39  1  0
 39 40  1  0
 37 41  1  0
 38 42  1  0
 38 43  1  0
 39 44  1  0
 39 45  1  0
 40 46  1  0
  6 35  1  6
M  CHG  1   5   1
M  END
>  <attachment_point>  (139) 
26

>  <score>  (139) 
<NA>

$$$$
CAT-4j
     RDKit          3D

 48 52  0  0  1  0  0  0  0  0999 V2000
   11.7106   -2.3098    1.2658 C   0  0  0  0  0  0  0  0  0  0  0  0
   13.0313   -2.6523    0.7225 N   0  0  0  0  0  0  0  0  0  0  0  0
   14.2010   -2.6281    1.3773 C   0  0  0  0  0  0  0  0  0  0  0  0
   14.3777   -2.3568    2.6732 N   0  0  0  0  0  0  0  0  0  0  0  0
   15.2217   -2.9197    0.5738 N   0  0  0  0  0  0  0  0  0  0  0  0
   14.7965   -3.2519   -0.7875 C   0  0  1  0  0  0  0  0  0  0  0  0
   15.3794   -2.2443   -1.7949 C   0  0  0  0  0  0  0  0  0  0  0  0
   15.9522   -2.6550   -3.0208 C   0  0  0  0  0  0  0  0  0  0  0  0
   16.4340   -1.6937   -3.9273 C   0  0  0  0  0  0  0  0  0  0  0  0
   16.3364   -0.3224   -3.6308 C   0  0  0  0  0  0  0  0  0  0  0  0
   15.7943    0.1250   -2.4073 C   0  0  0  0  0  0  0  0  0  0  0  0
   15.6711    1.5693   -2.0915 C   0  0  0  0  0  0  0  0  0  0  0  0
   15.3832    2.0354   -0.7903 C   0  0  0  0  0  0  0  0  0  0  0  0
   15.3534    3.4188   -0.5357 C   0  0  0  0  0  0  0  0  0  0  0  0
   15.5968    4.3049   -1.5946 C   0  0  0  0  0  0  0  0  0  0  0  0
   15.8275    3.8920   -2.8511 N   0  0  0  0  0  0  0  0  0  0  0  0
   15.8598    2.5642   -3.0762 C   0  0  0  0  0  0  0  0  0  0  0  0
   15.3327   -0.8573   -1.5012 C   0  0  0  0  0  0  0  0  0  0  0  0
   13.2767   -3.0094   -0.6368 C   0  0  0  0  0  0  0  0  0  0  0  0
   12.3981   -3.0674   -1.5055 O   0  0  0  0  0  0  0  0  0  0  0  0
    0.0000    0.0000    0.0000 H   0  0  0  0  0  0  0  0  0  0  0  0
    0.0000    0.0000    0.0000 H   0  0  0  0  0  0  0  0  0  0  0  0
    0.0000    0.0000    0.0000 H   0  0  0  0  0  0  0  0  0  0  0  0
    0.0000    0.0000    0.0000 H   0  0  0  0  0  0  0  0  0  0  0  0
    0.0000    0.0000    0.0000 H   0  0  0  0  0  0  0  0  0  0  0  0
    0.0000    0.0000    0.0000 H   0  0  0  0  0  0  0  0  0  0  0  0
    0.0000    0.0000    0.0000 H   0  0  0  0  0  0  0  0  0  0  0  0
    0.0000    0.0000    0.0000 H   0  0  0  0  0  0  0  0  0  0  0  0
    0.0000    0.0000    0.0000 H   0  0  0  0  0  0  0  0  0  0  0  0
    0.0000    0.0000    0.0000 H   0  0  0  0  0  0  0  0  0  0  0  0
    0.0000    0.0000    0.0000 H   0  0  0  0  0  0  0  0  0  0  0  0
    0.0000    0.0000    0.0000 H   0  0  0  0  0  0  0  0  0  0  0  0
    0.0000    0.0000    0.0000 H   0  0  0  0  0  0  0  0  0  0  0  0
    0.0000    0.0000    0.0000 H   0  0  0  0  0  0  0  0  0  0  0  0
    6.9653   -1.5308   -0.3707 C   0  0  0  0  0  0  0  0  0  0  0  0
    6.3681   -0.6501    0.4926 C   0  0  0  0  0  0  0  0  0  0  0  0
    5.0256   -0.5087    0.3934 C   0  0  0  0  0  0  0  0  0  0  0  0
    4.2196    0.3370    1.1781 C   0  0  0  0  0  0  0  0  0  0  0  0
    2.8769    0.3805    0.9704 C   0  0  0  0  0  0  0  0  0  0  0  0
    2.2201   -0.3496    0.0351 C   0  0  0  0  0  0  0  0  0  0  0  0
    2.9948   -1.1887   -0.7482 C   0  0  0  0  0  0  0  0  0  0  0  0
    4.3869   -1.2520   -0.5531 C   0  0  0  0  0  0  0  0  0  0  0  0
    5.6555   -2.1269   -1.2819 S   0  0  0  0  0  0  0  0  0  0  0  0
    7.0405   -0.1154    1.2139 H   0  0  0  0  0  0  0  0  0  0  0  0
    4.6378    0.9637    1.9532 H   0  0  0  0  0  0  0  0  0  0  0  0
    2.2695    1.0468    1.5939 H   0  0  0  0  0  0  0  0  0  0  0  0
    1.1668   -0.3078   -0.1194 H   0  0  0  0  0  0  0  0  0  0  0  0
    2.5898   -1.8062   -1.5105 H   0  0  0  0  0  0  0  0  0  0  0  0
  1  2  1  0
  2  3  1  0
  2 19  1  0
  3  4  1  0
  3  5  2  0
  5  6  1  0
  6  7  1  1
  6 19  1  0
  7  8  2  0
  7 18  1  0
  8  9  1  0
  9 10  2  0
 10 11  1  0
 11 12  1  0
 11 18  2  0
 12 13  2  0
 12 17  1  0
 13 14  1  0
 14 15  2  0
 15 16  1  0
 16 17  2  0
 19 20  2  0
  1 21  1  0
  1 22  1  0
  1 23  1  0
  4 24  1  0
  4 25  1  0
  5 26  1  0
  8 27  1  0
  9 28  1  0
 10 29  1  0
 13 30  1  0
 14 31  1  0
 15 32  1  0
 17 33  1  0
 18 34  1  0
 35 36  2  0
 36 37  1  0
 37 38  2  0
 38 39  1  0
 39 40  2  0
 40 41  1  0
 41 42  2  0
 42 43  1  0
 43 35  1  0
 42 37  1  0
 36 44  1  0
 38 45  1  0
 39 46  1  0
 40 47  1  0
 41 48  1  0
  6 35  1  0
M  CHG  1   5   1
M  END
>  <attachment_point>  (140) 
26

>  <score>  (140) 
<NA>

$$$$
CAT-4j
     RDKit          3D

 54 57  0  0  1  0  0  0  0  0999 V2000
   11.7106   -2.3098    1.2658 C   0  0  0  0  0  0  0  0  0  0  0  0
   13.0313   -2.6523    0.7225 N   0  0  0  0  0  0  0  0  0  0  0  0
   14.2010   -2.6281    1.3773 C   0  0  0  0  0  0  0  0  0  0  0  0
   14.3777   -2.3568    2.6732 N   0  0  0  0  0  0  0  0  0  0  0  0
   15.2217   -2.9197    0.5738 N   0  0  0  0  0  0  0  0  0  0  0  0
   14.7965   -3.2519   -0.7875 C   0  0  1  0  0  0  0  0  0  0  0  0
   15.3794   -2.2443   -1.7949 C   0  0  0  0  0  0  0  0  0  0  0  0
   15.9522   -2.6550   -3.0208 C   0  0  0  0  0  0  0  0  0  0  0  0
   16.4340   -1.6937   -3.9273 C   0  0  0  0  0  0  0  0  0  0  0  0
   16.3364   -0.3224   -3.6308 C   0  0  0  0  0  0  0  0  0  0  0  0
   15.7943    0.1250   -2.4073 C   0  0  0  0  0  0  0  0  0  0  0  0
   15.6711    1.5693   -2.0915 C   0  0  0  0  0  0  0  0  0  0  0  0
   15.3832    2.0354   -0.7903 C   0  0  0  0  0  0  0  0  0  0  0  0
   15.3534    3.4188   -0.5357 C   0  0  0  0  0  0  0  0  0  0  0  0
   15.5968    4.3049   -1.5946 C   0  0  0  0  0  0  0  0  0  0  0  0
   15.8275    3.8920   -2.8511 N   0  0  0  0  0  0  0  0  0  0  0  0
   15.8598    2.5642   -3.0762 C   0  0  0  0  0  0  0  0  0  0  0  0
   15.3327   -0.8573   -1.5012 C   0  0  0  0  0  0  0  0  0  0  0  0
   13.2767   -3.0094   -0.6368 C   0  0  0  0  0  0  0  0  0  0  0  0
   12.3981   -3.0674   -1.5055 O   0  0  0  0  0  0  0  0  0  0  0  0
    0.0000    0.0000    0.0000 H   0  0  0  0  0  0  0  0  0  0  0  0
    0.0000    0.0000    0.0000 H   0  0  0  0  0  0  0  0  0  0  0  0
    0.0000    0.0000    0.0000 H   0  0  0  0  0  0  0  0  0  0  0  0
    0.0000    0.0000    0.0000 H   0  0  0  0  0  0  0  0  0  0  0  0
    0.0000    0.0000    0.0000 H   0  0  0  0  0  0  0  0  0  0  0  0
    0.0000    0.0000    0.0000 H   0  0  0  0  0  0  0  0  0  0  0  0
    0.0000    0.0000    0.0000 H   0  0  0  0  0  0  0  0  0  0  0  0
    0.0000    0.0000    0.0000 H   0  0  0  0  0  0  0  0  0  0  0  0
    0.0000    0.0000    0.0000 H   0  0  0  0  0  0  0  0  0  0  0  0
    0.0000    0.0000    0.0000 H   0  0  0  0  0  0  0  0  0  0  0  0
    0.0000    0.0000    0.0000 H   0  0  0  0  0  0  0  0  0  0  0  0
    0.0000    0.0000    0.0000 H   0  0  0  0  0  0  0  0  0  0  0  0
    0.0000    0.0000    0.0000 H   0  0  0  0  0  0  0  0  0  0  0  0
    0.0000    0.0000    0.0000 H   0  0  0  0  0  0  0  0  0  0  0  0
    6.9680   -1.5314   -0.3708 C   0  0  0  0  0  0  0  0  0  0  0  0
    6.3281   -2.4308   -1.4092 C   0  0  0  0  0  0  0  0  0  0  0  0
    6.9055   -2.1135   -2.7656 C   0  0  0  0  0  0  0  0  0  0  0  0
    8.3606   -2.3123   -2.8396 C   0  0  0  0  0  0  0  0  0  0  0  0
    8.9179   -3.5140   -3.2053 C   0  0  0  0  0  0  0  0  0  0  0  0
   10.2953   -3.6638   -3.2641 C   0  0  0  0  0  0  0  0  0  0  0  0
   11.1024   -2.5779   -2.9465 C   0  0  0  0  0  0  0  0  0  0  0  0
   10.5681   -1.3816   -2.5826 C   0  0  0  0  0  0  0  0  0  0  0  0
    9.1951   -1.2681   -2.5349 C   0  0  0  0  0  0  0  0  0  0  0  0
    6.5667   -1.7839    0.6394 H   0  0  0  0  0  0  0  0  0  0  0  0
    6.8116   -0.4529   -0.6041 H   0  0  0  0  0  0  0  0  0  0  0  0
    6.4886   -3.4626   -1.0874 H   0  0  0  0  0  0  0  0  0  0  0  0
    5.2376   -2.2395   -1.4664 H   0  0  0  0  0  0  0  0  0  0  0  0
    6.4084   -2.6633   -3.5799 H   0  0  0  0  0  0  0  0  0  0  0  0
    6.6812   -1.0256   -2.9501 H   0  0  0  0  0  0  0  0  0  0  0  0
    8.3190   -4.3842   -3.4603 H   0  0  0  0  0  0  0  0  0  0  0  0
   10.7747   -4.5811   -3.5438 H   0  0  0  0  0  0  0  0  0  0  0  0
   12.1885   -2.6684   -2.9844 H   0  0  0  0  0  0  0  0  0  0  0  0
   11.1750   -0.5252   -2.3319 H   0  0  0  0  0  0  0  0  0  0  0  0
    8.7836   -0.3045   -2.2419 H   0  0  0  0  0  0  0  0  0  0  0  0
  1  2  1  0
  2  3  1  0
  2 19  1  0
  3  4  1  0
  3  5  2  0
  5  6  1  0
  6  7  1  0
  6 19  1  0
  7  8  2  0
  7 18  1  0
  8  9  1  0
  9 10  2  0
 10 11  1  0
 11 12  1  0
 11 18  2  0
 12 13  2  0
 12 17  1  0
 13 14  1  0
 14 15  2  0
 15 16  1  0
 16 17  2  0
 19 20  2  0
  1 21  1  0
  1 22  1  0
  1 23  1  0
  4 24  1  0
  4 25  1  0
  5 26  1  0
  8 27  1  0
  9 28  1  0
 10 29  1  0
 13 30  1  0
 14 31  1  0
 15 32  1  0
 17 33  1  0
 18 34  1  0
 35 36  1  0
 36 37  1  0
 37 38  1  0
 38 39  2  0
 39 40  1  0
 40 41  2  0
 41 42  1  0
 42 43  2  0
 43 38  1  0
 35 44  1  0
 35 45  1  0
 36 46  1  0
 36 47  1  0
 37 48  1  0
 37 49  1  0
 39 50  1  0
 40 51  1  0
 41 52  1  0
 42 53  1  0
 43 54  1  0
  6 35  1  6
M  CHG  1   5   1
M  END
>  <attachment_point>  (141) 
26

>  <score>  (141) 
<NA>

$$$$
CAT-4j
     RDKit          3D

 49 52  0  0  1  0  0  0  0  0999 V2000
   11.7106   -2.3098    1.2658 C   0  0  0  0  0  0  0  0  0  0  0  0
   13.0313   -2.6523    0.7225 N   0  0  0  0  0  0  0  0  0  0  0  0
   14.2010   -2.6281    1.3773 C   0  0  0  0  0  0  0  0  0  0  0  0
   14.3777   -2.3568    2.6732 N   0  0  0  0  0  0  0  0  0  0  0  0
   15.2217   -2.9197    0.5738 N   0  0  0  0  0  0  0  0  0  0  0  0
   14.7965   -3.2519   -0.7875 C   0  0  1  0  0  0  0  0  0  0  0  0
   15.3794   -2.2443   -1.7949 C   0  0  0  0  0  0  0  0  0  0  0  0
   15.9522   -2.6550   -3.0208 C   0  0  0  0  0  0  0  0  0  0  0  0
   16.4340   -1.6937   -3.9273 C   0  0  0  0  0  0  0  0  0  0  0  0
   16.3364   -0.3224   -3.6308 C   0  0  0  0  0  0  0  0  0  0  0  0
   15.7943    0.1250   -2.4073 C   0  0  0  0  0  0  0  0  0  0  0  0
   15.6711    1.5693   -2.0915 C   0  0  0  0  0  0  0  0  0  0  0  0
   15.3832    2.0354   -0.7903 C   0  0  0  0  0  0  0  0  0  0  0  0
   15.3534    3.4188   -0.5357 C   0  0  0  0  0  0  0  0  0  0  0  0
   15.5968    4.3049   -1.5946 C   0  0  0  0  0  0  0  0  0  0  0  0
   15.8275    3.8920   -2.8511 N   0  0  0  0  0  0  0  0  0  0  0  0
   15.8598    2.5642   -3.0762 C   0  0  0  0  0  0  0  0  0  0  0  0
   15.3327   -0.8573   -1.5012 C   0  0  0  0  0  0  0  0  0  0  0  0
   13.2767   -3.0094   -0.6368 C   0  0  0  0  0  0  0  0  0  0  0  0
   12.3981   -3.0674   -1.5055 O   0  0  0  0  0  0  0  0  0  0  0  0
    0.0000    0.0000    0.0000 H   0  0  0  0  0  0  0  0  0  0  0  0
    0.0000    0.0000    0.0000 H   0  0  0  0  0  0  0  0  0  0  0  0
    0.0000    0.0000    0.0000 H   0  0  0  0  0  0  0  0  0  0  0  0
    0.0000    0.0000    0.0000 H   0  0  0  0  0  0  0  0  0  0  0  0
    0.0000    0.0000    0.0000 H   0  0  0  0  0  0  0  0  0  0  0  0
    0.0000    0.0000    0.0000 H   0  0  0  0  0  0  0  0  0  0  0  0
    0.0000    0.0000    0.0000 H   0  0  0  0  0  0  0  0  0  0  0  0
    0.0000    0.0000    0.0000 H   0  0  0  0  0  0  0  0  0  0  0  0
    0.0000    0.0000    0.0000 H   0  0  0  0  0  0  0  0  0  0  0  0
    0.0000    0.0000    0.0000 H   0  0  0  0  0  0  0  0  0  0  0  0
    0.0000    0.0000    0.0000 H   0  0  0  0  0  0  0  0  0  0  0  0
    0.0000    0.0000    0.0000 H   0  0  0  0  0  0  0  0  0  0  0  0
    0.0000    0.0000    0.0000 H   0  0  0  0  0  0  0  0  0  0  0  0
    0.0000    0.0000    0.0000 H   0  0  0  0  0  0  0  0  0  0  0  0
    6.9662   -1.5310   -0.3708 C   0  0  0  0  0  0  0  0  0  0  0  0
    6.6252   -0.4980    0.2141 O   0  0  0  0  0  0  0  0  0  0  0  0
    6.0498   -2.3910   -0.9499 N   0  0  0  0  0  0  0  0  0  0  0  0
    4.5947   -2.2224   -0.9620 C   0  0  0  0  0  0  0  0  0  0  0  0
    4.1283   -3.6109   -0.6319 C   0  0  0  0  0  0  0  0  0  0  0  0
    5.2965   -4.5434   -0.8761 C   0  0  0  0  0  0  0  0  0  0  0  0
    6.2370   -3.6428   -1.6762 C   0  0  0  0  0  0  0  0  0  0  0  0
    4.2528   -1.4579   -0.2672 H   0  0  0  0  0  0  0  0  0  0  0  0
    4.3264   -2.0274   -2.0176 H   0  0  0  0  0  0  0  0  0  0  0  0
    3.2622   -3.9420   -1.2487 H   0  0  0  0  0  0  0  0  0  0  0  0
    3.8364   -3.6381    0.4447 H   0  0  0  0  0  0  0  0  0  0  0  0
    5.7830   -4.7264    0.1074 H   0  0  0  0  0  0  0  0  0  0  0  0
    5.0297   -5.4508   -1.4151 H   0  0  0  0  0  0  0  0  0  0  0  0
    5.7926   -3.4932   -2.6768 H   0  0  0  0  0  0  0  0  0  0  0  0
    7.2658   -3.9943   -1.6728 H   0  0  0  0  0  0  0  0  0  0  0  0
  1  2  1  0
  2  3  1  0
  2 19  1  0
  3  4  1  0
  3  5  2  0
  5  6  1  0
  6  7  1  0
  6 19  1  0
  7  8  2  0
  7 18  1  0
  8  9  1  0
  9 10  2  0
 10 11  1  0
 11 12  1  0
 11 18  2  0
 12 13  2  0
 12 17  1  0
 13 14  1  0
 14 15  2  0
 15 16  1  0
 16 17  2  0
 19 20  2  0
  1 21  1  0
  1 22  1  0
  1 23  1  0
  4 24  1  0
  4 25  1  0
  5 26  1  0
  8 27  1  0
  9 28  1  0
 10 29  1  0
 13 30  1  0
 14 31  1  0
 15 32  1  0
 17 33  1  0
 18 34  1  0
 35 36  2  0
 35 37  1  0
 37 38  1  0
 38 39  1  0
 39 40  1  0
 40 41  1  0
 41 37  1  0
 38 42  1  0
 38 43  1  0
 39 44  1  0
 39 45  1  0
 40 46  1  0
 40 47  1  0
 41 48  1  0
 41 49  1  0
  6 35  1  6
M  CHG  1   5   1
M  END
>  <attachment_point>  (142) 
26

>  <score>  (142) 
<NA>

$$$$
CAT-4j
     RDKit          3D

 55 58  0  0  1  0  0  0  0  0999 V2000
   11.7106   -2.3098    1.2658 C   0  0  0  0  0  0  0  0  0  0  0  0
   13.0313   -2.6523    0.7225 N   0  0  0  0  0  0  0  0  0  0  0  0
   14.2010   -2.6281    1.3773 C   0  0  0  0  0  0  0  0  0  0  0  0
   14.3777   -2.3568    2.6732 N   0  0  0  0  0  0  0  0  0  0  0  0
   15.2217   -2.9197    0.5738 N   0  0  0  0  0  0  0  0  0  0  0  0
   14.7965   -3.2519   -0.7875 C   0  0  1  0  0  0  0  0  0  0  0  0
   15.3794   -2.2443   -1.7949 C   0  0  0  0  0  0  0  0  0  0  0  0
   15.9522   -2.6550   -3.0208 C   0  0  0  0  0  0  0  0  0  0  0  0
   16.4340   -1.6937   -3.9273 C   0  0  0  0  0  0  0  0  0  0  0  0
   16.3364   -0.3224   -3.6308 C   0  0  0  0  0  0  0  0  0  0  0  0
   15.7943    0.1250   -2.4073 C   0  0  0  0  0  0  0  0  0  0  0  0
   15.6711    1.5693   -2.0915 C   0  0  0  0  0  0  0  0  0  0  0  0
   15.3832    2.0354   -0.7903 C   0  0  0  0  0  0  0  0  0  0  0  0
   15.3534    3.4188   -0.5357 C   0  0  0  0  0  0  0  0  0  0  0  0
   15.5968    4.3049   -1.5946 C   0  0  0  0  0  0  0  0  0  0  0  0
   15.8275    3.8920   -2.8511 N   0  0  0  0  0  0  0  0  0  0  0  0
   15.8598    2.5642   -3.0762 C   0  0  0  0  0  0  0  0  0  0  0  0
   15.3327   -0.8573   -1.5012 C   0  0  0  0  0  0  0  0  0  0  0  0
   13.2767   -3.0094   -0.6368 C   0  0  0  0  0  0  0  0  0  0  0  0
   12.3981   -3.0674   -1.5055 O   0  0  0  0  0  0  0  0  0  0  0  0
    0.0000    0.0000    0.0000 H   0  0  0  0  0  0  0  0  0  0  0  0
    0.0000    0.0000    0.0000 H   0  0  0  0  0  0  0  0  0  0  0  0
    0.0000    0.0000    0.0000 H   0  0  0  0  0  0  0  0  0  0  0  0
    0.0000    0.0000    0.0000 H   0  0  0  0  0  0  0  0  0  0  0  0
    0.0000    0.0000    0.0000 H   0  0  0  0  0  0  0  0  0  0  0  0
    0.0000    0.0000    0.0000 H   0  0  0  0  0  0  0  0  0  0  0  0
    0.0000    0.0000    0.0000 H   0  0  0  0  0  0  0  0  0  0  0  0
    0.0000    0.0000    0.0000 H   0  0  0  0  0  0  0  0  0  0  0  0
    0.0000    0.0000    0.0000 H   0  0  0  0  0  0  0  0  0  0  0  0
    0.0000    0.0000    0.0000 H   0  0  0  0  0  0  0  0  0  0  0  0
    0.0000    0.0000    0.0000 H   0  0  0  0  0  0  0  0  0  0  0  0
    0.0000    0.0000    0.0000 H   0  0  0  0  0  0  0  0  0  0  0  0
    0.0000    0.0000    0.0000 H   0  0  0  0  0  0  0  0  0  0  0  0
    0.0000    0.0000    0.0000 H   0  0  0  0  0  0  0  0  0  0  0  0
    6.9341   -1.5239   -0.3690 C   0  0  0  0  0  0  0  0  0  0  0  0
    6.3020   -2.6415   -1.0061 N   0  0  0  0  0  0  0  0  0  0  0  0
    4.8906   -2.5774   -1.0627 C   0  0  0  0  0  0  0  0  0  0  0  0
    4.1583   -3.8521   -1.0667 C   0  0  0  0  0  0  0  0  0  0  0  0
    4.8978   -5.0102   -1.3878 N   0  0  0  0  0  0  0  0  0  0  0  0
    4.2052   -6.1664   -1.7151 C   0  0  0  0  0  0  0  0  0  0  0  0
    6.2555   -4.8941   -1.6848 C   0  0  0  0  0  0  0  0  0  0  0  0
    6.8596   -3.9117   -0.6705 C   0  0  0  0  0  0  0  0  0  0  0  0
    6.7464   -1.4465    0.7047 H   0  0  0  0  0  0  0  0  0  0  0  0
    6.8946   -0.5867   -0.9188 H   0  0  0  0  0  0  0  0  0  0  0  0
    4.5009   -1.9266   -0.2249 H   0  0  0  0  0  0  0  0  0  0  0  0
    4.6169   -1.9893   -1.9893 H   0  0  0  0  0  0  0  0  0  0  0  0
    3.6656   -4.0222   -0.0652 H   0  0  0  0  0  0  0  0  0  0  0  0
    3.2808   -3.7986   -1.7783 H   0  0  0  0  0  0  0  0  0  0  0  0
    4.3600   -6.9426   -0.9127 H   0  0  0  0  0  0  0  0  0  0  0  0
    4.6427   -6.6361   -2.6365 H   0  0  0  0  0  0  0  0  0  0  0  0
    3.1319   -6.0355   -1.8934 H   0  0  0  0  0  0  0  0  0  0  0  0
    6.4272   -4.4849   -2.7145 H   0  0  0  0  0  0  0  0  0  0  0  0
    6.7934   -5.8454   -1.5390 H   0  0  0  0  0  0  0  0  0  0  0  0
    6.4800   -4.1933    0.3445 H   0  0  0  0  0  0  0  0  0  0  0  0
    7.9436   -3.8636   -0.7386 H   0  0  0  0  0  0  0  0  0  0  0  0
  1  2  1  0
  2  3  1  0
  2 19  1  0
  3  4  1  0
  3  5  2  0
  5  6  1  0
  6  7  1  0
  6 19  1  0
  7  8  2  0
  7 18  1  0
  8  9  1  0
  9 10  2  0
 10 11  1  0
 11 12  1  0
 11 18  2  0
 12 13  2  0
 12 17  1  0
 13 14  1  0
 14 15  2  0
 15 16  1  0
 16 17  2  0
 19 20  2  0
  1 21  1  0
  1 22  1  0
  1 23  1  0
  4 24  1  0
  4 25  1  0
  5 26  1  0
  8 27  1  0
  9 28  1  0
 10 29  1  0
 13 30  1  0
 14 31  1  0
 15 32  1  0
 17 33  1  0
 18 34  1  0
 35 36  1  0
 36 37  1  0
 37 38  1  0
 38 39  1  0
 39 40  1  0
 39 41  1  0
 41 42  1  0
 42 36  1  0
 35 43  1  0
 35 44  1  0
 37 45  1  0
 37 46  1  0
 38 47  1  0
 38 48  1  0
 40 49  1  0
 40 50  1  0
 40 51  1  0
 41 52  1  0
 41 53  1  0
 42 54  1  0
 42 55  1  0
  6 35  1  6
M  CHG  1   5   1
M  END
>  <attachment_point>  (143) 
26

>  <score>  (143) 
<NA>

$$$$
CAT-4j
     RDKit          3D

 48 51  0  0  1  0  0  0  0  0999 V2000
   11.7106   -2.3098    1.2658 C   0  0  0  0  0  0  0  0  0  0  0  0
   13.0313   -2.6523    0.7225 N   0  0  0  0  0  0  0  0  0  0  0  0
   14.2010   -2.6281    1.3773 C   0  0  0  0  0  0  0  0  0  0  0  0
   14.3777   -2.3568    2.6732 N   0  0  0  0  0  0  0  0  0  0  0  0
   15.2217   -2.9197    0.5738 N   0  0  0  0  0  0  0  0  0  0  0  0
   14.7965   -3.2519   -0.7875 C   0  0  1  0  0  0  0  0  0  0  0  0
   15.3794   -2.2443   -1.7949 C   0  0  0  0  0  0  0  0  0  0  0  0
   15.9522   -2.6550   -3.0208 C   0  0  0  0  0  0  0  0  0  0  0  0
   16.4340   -1.6937   -3.9273 C   0  0  0  0  0  0  0  0  0  0  0  0
   16.3364   -0.3224   -3.6308 C   0  0  0  0  0  0  0  0  0  0  0  0
   15.7943    0.1250   -2.4073 C   0  0  0  0  0  0  0  0  0  0  0  0
   15.6711    1.5693   -2.0915 C   0  0  0  0  0  0  0  0  0  0  0  0
   15.3832    2.0354   -0.7903 C   0  0  0  0  0  0  0  0  0  0  0  0
   15.3534    3.4188   -0.5357 C   0  0  0  0  0  0  0  0  0  0  0  0
   15.5968    4.3049   -1.5946 C   0  0  0  0  0  0  0  0  0  0  0  0
   15.8275    3.8920   -2.8511 N   0  0  0  0  0  0  0  0  0  0  0  0
   15.8598    2.5642   -3.0762 C   0  0  0  0  0  0  0  0  0  0  0  0
   15.3327   -0.8573   -1.5012 C   0  0  0  0  0  0  0  0  0  0  0  0
   13.2767   -3.0094   -0.6368 C   0  0  0  0  0  0  0  0  0  0  0  0
   12.3981   -3.0674   -1.5055 O   0  0  0  0  0  0  0  0  0  0  0  0
    0.0000    0.0000    0.0000 H   0  0  0  0  0  0  0  0  0  0  0  0
    0.0000    0.0000    0.0000 H   0  0  0  0  0  0  0  0  0  0  0  0
    0.0000    0.0000    0.0000 H   0  0  0  0  0  0  0  0  0  0  0  0
    0.0000    0.0000    0.0000 H   0  0  0  0  0  0  0  0  0  0  0  0
    0.0000    0.0000    0.0000 H   0  0  0  0  0  0  0  0  0  0  0  0
    0.0000    0.0000    0.0000 H   0  0  0  0  0  0  0  0  0  0  0  0
    0.0000    0.0000    0.0000 H   0  0  0  0  0  0  0  0  0  0  0  0
    0.0000    0.0000    0.0000 H   0  0  0  0  0  0  0  0  0  0  0  0
    0.0000    0.0000    0.0000 H   0  0  0  0  0  0  0  0  0  0  0  0
    0.0000    0.0000    0.0000 H   0  0  0  0  0  0  0  0  0  0  0  0
    0.0000    0.0000    0.0000 H   0  0  0  0  0  0  0  0  0  0  0  0
    0.0000    0.0000    0.0000 H   0  0  0  0  0  0  0  0  0  0  0  0
    0.0000    0.0000    0.0000 H   0  0  0  0  0  0  0  0  0  0  0  0
    0.0000    0.0000    0.0000 H   0  0  0  0  0  0  0  0  0  0  0  0
    6.9363   -1.5244   -0.3692 C   0  0  0  0  0  0  0  0  0  0  0  0
    6.5236   -0.4026    0.2681 C   0  0  0  0  0  0  0  0  0  0  0  0
    5.1457   -0.1769    0.2953 C   0  0  0  0  0  0  0  0  0  0  0  0
    4.2471   -1.0438   -0.2918 C   0  0  0  0  0  0  0  0  0  0  0  0
    4.6902   -2.1802   -0.9352 C   0  0  0  0  0  0  0  0  0  0  0  0
    3.7587   -3.1188   -1.5677 C   0  0  0  0  0  0  0  0  0  0  0  0
    4.2246   -4.1277   -2.1333 O   0  0  0  0  0  0  0  0  0  0  0  0
    2.3918   -2.9310   -1.5623 O   0  0  0  0  0  0  0  0  0  0  0  0
    6.0576   -2.4025   -0.9614 C   0  0  0  0  0  0  0  0  0  0  0  0
    7.1904    0.2965    0.7370 H   0  0  0  0  0  0  0  0  0  0  0  0
    4.7338    0.7026    0.7879 H   0  0  0  0  0  0  0  0  0  0  0  0
    3.1768   -0.8839   -0.2798 H   0  0  0  0  0  0  0  0  0  0  0  0
    1.7335   -3.7274   -1.5455 H   0  0  0  0  0  0  0  0  0  0  0  0
    6.4006   -3.2914   -1.4650 H   0  0  0  0  0  0  0  0  0  0  0  0
  1  2  1  0
  2  3  1  0
  2 19  1  0
  3  4  1  0
  3  5  2  0
  5  6  1  0
  6  7  1  1
  6 19  1  0
  7  8  2  0
  7 18  1  0
  8  9  1  0
  9 10  2  0
 10 11  1  0
 11 12  1  0
 11 18  2  0
 12 13  2  0
 12 17  1  0
 13 14  1  0
 14 15  2  0
 15 16  1  0
 16 17  2  0
 19 20  2  0
  1 21  1  0
  1 22  1  0
  1 23  1  0
  4 24  1  0
  4 25  1  0
  5 26  1  0
  8 27  1  0
  9 28  1  0
 10 29  1  0
 13 30  1  0
 14 31  1  0
 15 32  1  0
 17 33  1  0
 18 34  1  0
 35 36  2  0
 36 37  1  0
 37 38  2  0
 38 39  1  0
 39 40  1  0
 40 41  2  0
 40 42  1  0
 39 43  2  0
 43 35  1  0
 36 44  1  0
 37 45  1  0
 38 46  1  0
 42 47  1  0
 43 48  1  0
  6 35  1  0
M  CHG  1   5   1
M  END
>  <attachment_point>  (144) 
26

>  <score>  (144) 
<NA>

$$$$
CAT-4j
     RDKit          3D

 45 47  0  0  1  0  0  0  0  0999 V2000
   11.7106   -2.3098    1.2658 C   0  0  0  0  0  0  0  0  0  0  0  0
   13.0313   -2.6523    0.7225 N   0  0  0  0  0  0  0  0  0  0  0  0
   14.2010   -2.6281    1.3773 C   0  0  0  0  0  0  0  0  0  0  0  0
   14.3777   -2.3568    2.6732 N   0  0  0  0  0  0  0  0  0  0  0  0
   15.2217   -2.9197    0.5738 N   0  0  0  0  0  0  0  0  0  0  0  0
   14.7965   -3.2519   -0.7875 C   0  0  1  0  0  0  0  0  0  0  0  0
   15.3794   -2.2443   -1.7949 C   0  0  0  0  0  0  0  0  0  0  0  0
   15.9522   -2.6550   -3.0208 C   0  0  0  0  0  0  0  0  0  0  0  0
   16.4340   -1.6937   -3.9273 C   0  0  0  0  0  0  0  0  0  0  0  0
   16.3364   -0.3224   -3.6308 C   0  0  0  0  0  0  0  0  0  0  0  0
   15.7943    0.1250   -2.4073 C   0  0  0  0  0  0  0  0  0  0  0  0
   15.6711    1.5693   -2.0915 C   0  0  0  0  0  0  0  0  0  0  0  0
   15.3832    2.0354   -0.7903 C   0  0  0  0  0  0  0  0  0  0  0  0
   15.3534    3.4188   -0.5357 C   0  0  0  0  0  0  0  0  0  0  0  0
   15.5968    4.3049   -1.5946 C   0  0  0  0  0  0  0  0  0  0  0  0
   15.8275    3.8920   -2.8511 N   0  0  0  0  0  0  0  0  0  0  0  0
   15.8598    2.5642   -3.0762 C   0  0  0  0  0  0  0  0  0  0  0  0
   15.3327   -0.8573   -1.5012 C   0  0  0  0  0  0  0  0  0  0  0  0
   13.2767   -3.0094   -0.6368 C   0  0  0  0  0  0  0  0  0  0  0  0
   12.3981   -3.0674   -1.5055 O   0  0  0  0  0  0  0  0  0  0  0  0
    0.0000    0.0000    0.0000 H   0  0  0  0  0  0  0  0  0  0  0  0
    0.0000    0.0000    0.0000 H   0  0  0  0  0  0  0  0  0  0  0  0
    0.0000    0.0000    0.0000 H   0  0  0  0  0  0  0  0  0  0  0  0
    0.0000    0.0000    0.0000 H   0  0  0  0  0  0  0  0  0  0  0  0
    0.0000    0.0000    0.0000 H   0  0  0  0  0  0  0  0  0  0  0  0
    0.0000    0.0000    0.0000 H   0  0  0  0  0  0  0  0  0  0  0  0
    0.0000    0.0000    0.0000 H   0  0  0  0  0  0  0  0  0  0  0  0
    0.0000    0.0000    0.0000 H   0  0  0  0  0  0  0  0  0  0  0  0
    0.0000    0.0000    0.0000 H   0  0  0  0  0  0  0  0  0  0  0  0
    0.0000    0.0000    0.0000 H   0  0  0  0  0  0  0  0  0  0  0  0
    0.0000    0.0000    0.0000 H   0  0  0  0  0  0  0  0  0  0  0  0
    0.0000    0.0000    0.0000 H   0  0  0  0  0  0  0  0  0  0  0  0
    0.0000    0.0000    0.0000 H   0  0  0  0  0  0  0  0  0  0  0  0
    0.0000    0.0000    0.0000 H   0  0  0  0  0  0  0  0  0  0  0  0
    6.9736   -1.5326   -0.3711 C   0  0  0  0  0  0  0  0  0  0  0  0
    6.2574   -1.5742   -1.4039 O   0  0  0  0  0  0  0  0  0  0  0  0
    6.3705   -1.1761    0.8672 N   0  0  0  0  0  0  0  0  0  0  0  0
    4.9516   -0.8763    0.8783 C   0  0  0  0  0  0  0  0  0  0  0  0
    4.6292    0.2860   -0.0257 C   0  0  0  0  0  0  0  0  0  0  0  0
    6.9650   -1.1406    1.7300 H   0  0  0  0  0  0  0  0  0  0  0  0
    4.4215   -1.8160    0.5669 H   0  0  0  0  0  0  0  0  0  0  0  0
    4.6595   -0.6918    1.9387 H   0  0  0  0  0  0  0  0  0  0  0  0
    5.5551    0.6388   -0.5286 H   0  0  0  0  0  0  0  0  0  0  0  0
    4.2688    1.1109    0.6160 H   0  0  0  0  0  0  0  0  0  0  0  0
    3.8460   -0.0406   -0.7391 H   0  0  0  0  0  0  0  0  0  0  0  0
  1  2  1  0
  2  3  1  0
  2 19  1  0
  3  4  1  0
  3  5  2  0
  5  6  1  0
  6  7  1  0
  6 19  1  0
  7  8  2  0
  7 18  1  0
  8  9  1  0
  9 10  2  0
 10 11  1  0
 11 12  1  0
 11 18  2  0
 12 13  2  0
 12 17  1  0
 13 14  1  0
 14 15  2  0
 15 16  1  0
 16 17  2  0
 19 20  2  0
  1 21  1  0
  1 22  1  0
  1 23  1  0
  4 24  1  0
  4 25  1  0
  5 26  1  0
  8 27  1  0
  9 28  1  0
 10 29  1  0
 13 30  1  0
 14 31  1  0
 15 32  1  0
 17 33  1  0
 18 34  1  0
 35 36  2  0
 35 37  1  0
 37 38  1  0
 38 39  1  0
 37 40  1  0
 38 41  1  0
 38 42  1  0
 39 43  1  0
 39 44  1  0
 39 45  1  0
  6 35  1  6
M  CHG  1   5   1
M  END
>  <attachment_point>  (145) 
26

>  <score>  (145) 
<NA>

$$$$
CAT-4j
     RDKit          3D

 55 58  0  0  1  0  0  0  0  0999 V2000
   11.7106   -2.3098    1.2658 C   0  0  0  0  0  0  0  0  0  0  0  0
   13.0313   -2.6523    0.7225 N   0  0  0  0  0  0  0  0  0  0  0  0
   14.2010   -2.6281    1.3773 C   0  0  0  0  0  0  0  0  0  0  0  0
   14.3777   -2.3568    2.6732 N   0  0  0  0  0  0  0  0  0  0  0  0
   15.2217   -2.9197    0.5738 N   0  0  0  0  0  0  0  0  0  0  0  0
   14.7965   -3.2519   -0.7875 C   0  0  1  0  0  0  0  0  0  0  0  0
   15.3794   -2.2443   -1.7949 C   0  0  0  0  0  0  0  0  0  0  0  0
   15.9522   -2.6550   -3.0208 C   0  0  0  0  0  0  0  0  0  0  0  0
   16.4340   -1.6937   -3.9273 C   0  0  0  0  0  0  0  0  0  0  0  0
   16.3364   -0.3224   -3.6308 C   0  0  0  0  0  0  0  0  0  0  0  0
   15.7943    0.1250   -2.4073 C   0  0  0  0  0  0  0  0  0  0  0  0
   15.6711    1.5693   -2.0915 C   0  0  0  0  0  0  0  0  0  0  0  0
   15.3832    2.0354   -0.7903 C   0  0  0  0  0  0  0  0  0  0  0  0
   15.3534    3.4188   -0.5357 C   0  0  0  0  0  0  0  0  0  0  0  0
   15.5968    4.3049   -1.5946 C   0  0  0  0  0  0  0  0  0  0  0  0
   15.8275    3.8920   -2.8511 N   0  0  0  0  0  0  0  0  0  0  0  0
   15.8598    2.5642   -3.0762 C   0  0  0  0  0  0  0  0  0  0  0  0
   15.3327   -0.8573   -1.5012 C   0  0  0  0  0  0  0  0  0  0  0  0
   13.2767   -3.0094   -0.6368 C   0  0  0  0  0  0  0  0  0  0  0  0
   12.3981   -3.0674   -1.5055 O   0  0  0  0  0  0  0  0  0  0  0  0
    0.0000    0.0000    0.0000 H   0  0  0  0  0  0  0  0  0  0  0  0
    0.0000    0.0000    0.0000 H   0  0  0  0  0  0  0  0  0  0  0  0
    0.0000    0.0000    0.0000 H   0  0  0  0  0  0  0  0  0  0  0  0
    0.0000    0.0000    0.0000 H   0  0  0  0  0  0  0  0  0  0  0  0
    0.0000    0.0000    0.0000 H   0  0  0  0  0  0  0  0  0  0  0  0
    0.0000    0.0000    0.0000 H   0  0  0  0  0  0  0  0  0  0  0  0
    0.0000    0.0000    0.0000 H   0  0  0  0  0  0  0  0  0  0  0  0
    0.0000    0.0000    0.0000 H   0  0  0  0  0  0  0  0  0  0  0  0
    0.0000    0.0000    0.0000 H   0  0  0  0  0  0  0  0  0  0  0  0
    0.0000    0.0000    0.0000 H   0  0  0  0  0  0  0  0  0  0  0  0
    0.0000    0.0000    0.0000 H   0  0  0  0  0  0  0  0  0  0  0  0
    0.0000    0.0000    0.0000 H   0  0  0  0  0  0  0  0  0  0  0  0
    0.0000    0.0000    0.0000 H   0  0  0  0  0  0  0  0  0  0  0  0
    0.0000    0.0000    0.0000 H   0  0  0  0  0  0  0  0  0  0  0  0
    7.1808   -1.5782   -0.3822 O   0  0  0  0  0  0  0  0  0  0  0  0
    6.2627   -0.7593    0.2833 C   0  0  0  0  0  0  0  0  0  0  0  0
    4.8857   -1.0589   -0.2579 C   0  0  0  0  0  0  0  0  0  0  0  0
    4.5630   -2.3936   -0.0515 N   0  0  0  0  0  0  0  0  0  0  0  0
    4.3472   -2.8976    1.2258 C   0  0  0  0  0  0  0  0  0  0  0  0
    4.3739   -4.3969    1.3345 C   0  0  0  0  0  0  0  0  0  0  0  0
    3.8553   -5.0306    0.2057 O   0  0  0  0  0  0  0  0  0  0  0  0
    4.7138   -4.6625   -0.8523 C   0  0  0  0  0  0  0  0  0  0  0  0
    4.3186   -3.2167   -1.1734 C   0  0  0  0  0  0  0  0  0  0  0  0
    6.2880   -0.9777    1.3665 H   0  0  0  0  0  0  0  0  0  0  0  0
    6.5095    0.3181    0.1732 H   0  0  0  0  0  0  0  0  0  0  0  0
    4.1165   -0.3865    0.1518 H   0  0  0  0  0  0  0  0  0  0  0  0
    4.9433   -0.8673   -1.3624 H   0  0  0  0  0  0  0  0  0  0  0  0
    3.3717   -2.5513    1.6268 H   0  0  0  0  0  0  0  0  0  0  0  0
    5.1248   -2.5325    1.9589 H   0  0  0  0  0  0  0  0  0  0  0  0
    3.8648   -4.7516    2.2560 H   0  0  0  0  0  0  0  0  0  0  0  0
    5.4290   -4.7504    1.4206 H   0  0  0  0  0  0  0  0  0  0  0  0
    5.7542   -4.5921   -0.4463 H   0  0  0  0  0  0  0  0  0  0  0  0
    4.6162   -5.3008   -1.7283 H   0  0  0  0  0  0  0  0  0  0  0  0
    4.8744   -2.8645   -2.0606 H   0  0  0  0  0  0  0  0  0  0  0  0
    3.2276   -3.2286   -1.3933 H   0  0  0  0  0  0  0  0  0  0  0  0
  1  2  1  0
  2  3  1  0
  2 19  1  0
  3  4  1  0
  3  5  2  0
  5  6  1  0
  6  7  1  0
  6 19  1  0
  7  8  2  0
  7 18  1  0
  8  9  1  0
  9 10  2  0
 10 11  1  0
 11 12  1  0
 11 18  2  0
 12 13  2  0
 12 17  1  0
 13 14  1  0
 14 15  2  0
 15 16  1  0
 16 17  2  0
 19 20  2  0
  1 21  1  0
  1 22  1  0
  1 23  1  0
  4 24  1  0
  4 25  1  0
  5 26  1  0
  8 27  1  0
  9 28  1  0
 10 29  1  0
 13 30  1  0
 14 31  1  0
 15 32  1  0
 17 33  1  0
 18 34  1  0
 35 36  1  0
 36 37  1  0
 37 38  1  0
 38 39  1  0
 39 40  1  0
 40 41  1  0
 41 42  1  0
 42 43  1  0
 43 38  1  0
 36 44  1  0
 36 45  1  0
 37 46  1  0
 37 47  1  0
 39 48  1  0
 39 49  1  0
 40 50  1  0
 40 51  1  0
 42 52  1  0
 42 53  1  0
 43 54  1  0
 43 55  1  0
  6 35  1  6
M  CHG  1   5   1
M  END
>  <attachment_point>  (146) 
26

>  <score>  (146) 
<NA>

$$$$
CAT-4j
     RDKit          3D

 54 57  0  0  1  0  0  0  0  0999 V2000
   11.7106   -2.3098    1.2658 C   0  0  0  0  0  0  0  0  0  0  0  0
   13.0313   -2.6523    0.7225 N   0  0  0  0  0  0  0  0  0  0  0  0
   14.2010   -2.6281    1.3773 C   0  0  0  0  0  0  0  0  0  0  0  0
   14.3777   -2.3568    2.6732 N   0  0  0  0  0  0  0  0  0  0  0  0
   15.2217   -2.9197    0.5738 N   0  0  0  0  0  0  0  0  0  0  0  0
   14.7965   -3.2519   -0.7875 C   0  0  1  0  0  0  0  0  0  0  0  0
   15.3794   -2.2443   -1.7949 C   0  0  0  0  0  0  0  0  0  0  0  0
   15.9522   -2.6550   -3.0208 C   0  0  0  0  0  0  0  0  0  0  0  0
   16.4340   -1.6937   -3.9273 C   0  0  0  0  0  0  0  0  0  0  0  0
   16.3364   -0.3224   -3.6308 C   0  0  0  0  0  0  0  0  0  0  0  0
   15.7943    0.1250   -2.4073 C   0  0  0  0  0  0  0  0  0  0  0  0
   15.6711    1.5693   -2.0915 C   0  0  0  0  0  0  0  0  0  0  0  0
   15.3832    2.0354   -0.7903 C   0  0  0  0  0  0  0  0  0  0  0  0
   15.3534    3.4188   -0.5357 C   0  0  0  0  0  0  0  0  0  0  0  0
   15.5968    4.3049   -1.5946 C   0  0  0  0  0  0  0  0  0  0  0  0
   15.8275    3.8920   -2.8511 N   0  0  0  0  0  0  0  0  0  0  0  0
   15.8598    2.5642   -3.0762 C   0  0  0  0  0  0  0  0  0  0  0  0
   15.3327   -0.8573   -1.5012 C   0  0  0  0  0  0  0  0  0  0  0  0
   13.2767   -3.0094   -0.6368 C   0  0  0  0  0  0  0  0  0  0  0  0
   12.3981   -3.0674   -1.5055 O   0  0  0  0  0  0  0  0  0  0  0  0
    0.0000    0.0000    0.0000 H   0  0  0  0  0  0  0  0  0  0  0  0
    0.0000    0.0000    0.0000 H   0  0  0  0  0  0  0  0  0  0  0  0
    0.0000    0.0000    0.0000 H   0  0  0  0  0  0  0  0  0  0  0  0
    0.0000    0.0000    0.0000 H   0  0  0  0  0  0  0  0  0  0  0  0
    0.0000    0.0000    0.0000 H   0  0  0  0  0  0  0  0  0  0  0  0
    0.0000    0.0000    0.0000 H   0  0  0  0  0  0  0  0  0  0  0  0
    0.0000    0.0000    0.0000 H   0  0  0  0  0  0  0  0  0  0  0  0
    0.0000    0.0000    0.0000 H   0  0  0  0  0  0  0  0  0  0  0  0
    0.0000    0.0000    0.0000 H   0  0  0  0  0  0  0  0  0  0  0  0
    0.0000    0.0000    0.0000 H   0  0  0  0  0  0  0  0  0  0  0  0
    0.0000    0.0000    0.0000 H   0  0  0  0  0  0  0  0  0  0  0  0
    0.0000    0.0000    0.0000 H   0  0  0  0  0  0  0  0  0  0  0  0
    0.0000    0.0000    0.0000 H   0  0  0  0  0  0  0  0  0  0  0  0
    0.0000    0.0000    0.0000 H   0  0  0  0  0  0  0  0  0  0  0  0
    7.0096   -1.5405   -0.3731 C   0  0  0  0  0  0  0  0  0  0  0  0
    6.0798   -2.2036   -1.3138 C   0  0  0  0  0  0  0  0  0  0  0  0
    6.0680   -3.6188   -1.2656 N   0  0  0  0  0  0  0  0  0  0  0  0
    5.2856   -4.1034   -2.3558 C   0  0  0  0  0  0  0  0  0  0  0  0
    5.3055   -5.5888   -2.5462 C   0  0  0  0  0  0  0  0  0  0  0  0
    6.3767   -6.2187   -1.9122 O   0  0  0  0  0  0  0  0  0  0  0  0
    7.4746   -5.3884   -1.9711 C   0  0  0  0  0  0  0  0  0  0  0  0
    7.2474   -4.2908   -0.9292 C   0  0  0  0  0  0  0  0  0  0  0  0
    6.6545   -1.6823    0.6853 H   0  0  0  0  0  0  0  0  0  0  0  0
    6.9373   -0.4139   -0.5285 H   0  0  0  0  0  0  0  0  0  0  0  0
    5.0146   -1.8666   -1.0815 H   0  0  0  0  0  0  0  0  0  0  0  0
    6.2411   -1.8230   -2.3476 H   0  0  0  0  0  0  0  0  0  0  0  0
    5.5759   -3.5766   -3.3017 H   0  0  0  0  0  0  0  0  0  0  0  0
    4.2198   -3.7889   -2.1248 H   0  0  0  0  0  0  0  0  0  0  0  0
    5.3713   -5.8367   -3.6241 H   0  0  0  0  0  0  0  0  0  0  0  0
    4.3643   -5.9916   -2.0839 H   0  0  0  0  0  0  0  0  0  0  0  0
    7.5280   -4.8663   -2.9511 H   0  0  0  0  0  0  0  0  0  0  0  0
    8.3948   -5.9510   -1.7665 H   0  0  0  0  0  0  0  0  0  0  0  0
    7.0680   -4.8619    0.0297 H   0  0  0  0  0  0  0  0  0  0  0  0
    8.1577   -3.6923   -0.7743 H   0  0  0  0  0  0  0  0  0  0  0  0
  1  2  1  0
  2  3  1  0
  2 19  1  0
  3  4  1  0
  3  5  2  0
  5  6  1  0
  6  7  1  0
  6 19  1  0
  7  8  2  0
  7 18  1  0
  8  9  1  0
  9 10  2  0
 10 11  1  0
 11 12  1  0
 11 18  2  0
 12 13  2  0
 12 17  1  0
 13 14  1  0
 14 15  2  0
 15 16  1  0
 16 17  2  0
 19 20  2  0
  1 21  1  0
  1 22  1  0
  1 23  1  0
  4 24  1  0
  4 25  1  0
  5 26  1  0
  8 27  1  0
  9 28  1  0
 10 29  1  0
 13 30  1  0
 14 31  1  0
 15 32  1  0
 17 33  1  0
 18 34  1  0
 35 36  1  0
 36 37  1  0
 37 38  1  0
 38 39  1  0
 39 40  1  0
 40 41  1  0
 41 42  1  0
 42 37  1  0
 35 43  1  0
 35 44  1  0
 36 45  1  0
 36 46  1  0
 38 47  1  0
 38 48  1  0
 39 49  1  0
 39 50  1  0
 41 51  1  0
 41 52  1  0
 42 53  1  0
 42 54  1  0
  6 35  1  6
M  CHG  1   5   1
M  END
>  <attachment_point>  (147) 
26

>  <score>  (147) 
<NA>

$$$$
CAT-4j
     RDKit          3D

 49 53  0  0  1  0  0  0  0  0999 V2000
   11.7106   -2.3098    1.2658 C   0  0  0  0  0  0  0  0  0  0  0  0
   13.0313   -2.6523    0.7225 N   0  0  0  0  0  0  0  0  0  0  0  0
   14.2010   -2.6281    1.3773 C   0  0  0  0  0  0  0  0  0  0  0  0
   14.3777   -2.3568    2.6732 N   0  0  0  0  0  0  0  0  0  0  0  0
   15.2217   -2.9197    0.5738 N   0  0  0  0  0  0  0  0  0  0  0  0
   14.7965   -3.2519   -0.7875 C   0  0  1  0  0  0  0  0  0  0  0  0
   15.3794   -2.2443   -1.7949 C   0  0  0  0  0  0  0  0  0  0  0  0
   15.9522   -2.6550   -3.0208 C   0  0  0  0  0  0  0  0  0  0  0  0
   16.4340   -1.6937   -3.9273 C   0  0  0  0  0  0  0  0  0  0  0  0
   16.3364   -0.3224   -3.6308 C   0  0  0  0  0  0  0  0  0  0  0  0
   15.7943    0.1250   -2.4073 C   0  0  0  0  0  0  0  0  0  0  0  0
   15.6711    1.5693   -2.0915 C   0  0  0  0  0  0  0  0  0  0  0  0
   15.3832    2.0354   -0.7903 C   0  0  0  0  0  0  0  0  0  0  0  0
   15.3534    3.4188   -0.5357 C   0  0  0  0  0  0  0  0  0  0  0  0
   15.5968    4.3049   -1.5946 C   0  0  0  0  0  0  0  0  0  0  0  0
   15.8275    3.8920   -2.8511 N   0  0  0  0  0  0  0  0  0  0  0  0
   15.8598    2.5642   -3.0762 C   0  0  0  0  0  0  0  0  0  0  0  0
   15.3327   -0.8573   -1.5012 C   0  0  0  0  0  0  0  0  0  0  0  0
   13.2767   -3.0094   -0.6368 C   0  0  0  0  0  0  0  0  0  0  0  0
   12.3981   -3.0674   -1.5055 O   0  0  0  0  0  0  0  0  0  0  0  0
    0.0000    0.0000    0.0000 H   0  0  0  0  0  0  0  0  0  0  0  0
    0.0000    0.0000    0.0000 H   0  0  0  0  0  0  0  0  0  0  0  0
    0.0000    0.0000    0.0000 H   0  0  0  0  0  0  0  0  0  0  0  0
    0.0000    0.0000    0.0000 H   0  0  0  0  0  0  0  0  0  0  0  0
    0.0000    0.0000    0.0000 H   0  0  0  0  0  0  0  0  0  0  0  0
    0.0000    0.0000    0.0000 H   0  0  0  0  0  0  0  0  0  0  0  0
    0.0000    0.0000    0.0000 H   0  0  0  0  0  0  0  0  0  0  0  0
    0.0000    0.0000    0.0000 H   0  0  0  0  0  0  0  0  0  0  0  0
    0.0000    0.0000    0.0000 H   0  0  0  0  0  0  0  0  0  0  0  0
    0.0000    0.0000    0.0000 H   0  0  0  0  0  0  0  0  0  0  0  0
    0.0000    0.0000    0.0000 H   0  0  0  0  0  0  0  0  0  0  0  0
    0.0000    0.0000    0.0000 H   0  0  0  0  0  0  0  0  0  0  0  0
    0.0000    0.0000    0.0000 H   0  0  0  0  0  0  0  0  0  0  0  0
    0.0000    0.0000    0.0000 H   0  0  0  0  0  0  0  0  0  0  0  0
    6.9869   -1.5356   -0.3719 C   0  0  0  0  0  0  0  0  0  0  0  0
    6.0557   -2.2799    0.3249 C   0  0  0  0  0  0  0  0  0  0  0  0
    4.8718   -1.6640    0.1453 N   0  0  0  0  0  0  0  0  0  0  0  0
    5.0360   -0.5634   -0.6386 C   0  0  0  0  0  0  0  0  0  0  0  0
    4.1938    0.4078   -1.1298 C   0  0  0  0  0  0  0  0  0  0  0  0
    4.6421    1.4434   -1.9270 C   0  0  0  0  0  0  0  0  0  0  0  0
    5.9819    1.5382   -2.2638 C   0  0  0  0  0  0  0  0  0  0  0  0
    6.8327    0.5750   -1.7797 C   0  0  0  0  0  0  0  0  0  0  0  0
    6.3778   -0.4561   -0.9842 C   0  0  0  0  0  0  0  0  0  0  0  0
    6.2437   -3.1899    0.9072 H   0  0  0  0  0  0  0  0  0  0  0  0
    3.9727   -1.9829    0.5453 H   0  0  0  0  0  0  0  0  0  0  0  0
    3.1277    0.3406   -0.8673 H   0  0  0  0  0  0  0  0  0  0  0  0
    3.9185    2.1823   -2.2839 H   0  0  0  0  0  0  0  0  0  0  0  0
    6.2976    2.3649   -2.8916 H   0  0  0  0  0  0  0  0  0  0  0  0
    7.8764    0.6486   -2.0419 H   0  0  0  0  0  0  0  0  0  0  0  0
  1  2  1  0
  2  3  1  0
  2 19  1  0
  3  4  1  0
  3  5  2  0
  5  6  1  0
  6  7  1  1
  6 19  1  0
  7  8  2  0
  7 18  1  0
  8  9  1  0
  9 10  2  0
 10 11  1  0
 11 12  1  0
 11 18  2  0
 12 13  2  0
 12 17  1  0
 13 14  1  0
 14 15  2  0
 15 16  1  0
 16 17  2  0
 19 20  2  0
  1 21  1  0
  1 22  1  0
  1 23  1  0
  4 24  1  0
  4 25  1  0
  5 26  1  0
  8 27  1  0
  9 28  1  0
 10 29  1  0
 13 30  1  0
 14 31  1  0
 15 32  1  0
 17 33  1  0
 18 34  1  0
 35 36  2  0
 36 37  1  0
 37 38  1  0
 38 39  2  0
 39 40  1  0
 40 41  2  0
 41 42  1  0
 42 43  2  0
 43 35  1  0
 43 38  1  0
 36 44  1  0
 37 45  1  0
 39 46  1  0
 40 47  1  0
 41 48  1  0
 42 49  1  0
  6 35  1  0
M  CHG  1   5   1
M  END
>  <attachment_point>  (148) 
26

>  <score>  (148) 
<NA>

$$$$
CAT-4j
     RDKit          3D

 50 54  0  0  1  0  0  0  0  0999 V2000
   11.7106   -2.3098    1.2658 C   0  0  0  0  0  0  0  0  0  0  0  0
   13.0313   -2.6523    0.7225 N   0  0  0  0  0  0  0  0  0  0  0  0
   14.2010   -2.6281    1.3773 C   0  0  0  0  0  0  0  0  0  0  0  0
   14.3777   -2.3568    2.6732 N   0  0  0  0  0  0  0  0  0  0  0  0
   15.2217   -2.9197    0.5738 N   0  0  0  0  0  0  0  0  0  0  0  0
   14.7965   -3.2519   -0.7875 C   0  0  1  0  0  0  0  0  0  0  0  0
   15.3794   -2.2443   -1.7949 C   0  0  0  0  0  0  0  0  0  0  0  0
   15.9522   -2.6550   -3.0208 C   0  0  0  0  0  0  0  0  0  0  0  0
   16.4340   -1.6937   -3.9273 C   0  0  0  0  0  0  0  0  0  0  0  0
   16.3364   -0.3224   -3.6308 C   0  0  0  0  0  0  0  0  0  0  0  0
   15.7943    0.1250   -2.4073 C   0  0  0  0  0  0  0  0  0  0  0  0
   15.6711    1.5693   -2.0915 C   0  0  0  0  0  0  0  0  0  0  0  0
   15.3832    2.0354   -0.7903 C   0  0  0  0  0  0  0  0  0  0  0  0
   15.3534    3.4188   -0.5357 C   0  0  0  0  0  0  0  0  0  0  0  0
   15.5968    4.3049   -1.5946 C   0  0  0  0  0  0  0  0  0  0  0  0
   15.8275    3.8920   -2.8511 N   0  0  0  0  0  0  0  0  0  0  0  0
   15.8598    2.5642   -3.0762 C   0  0  0  0  0  0  0  0  0  0  0  0
   15.3327   -0.8573   -1.5012 C   0  0  0  0  0  0  0  0  0  0  0  0
   13.2767   -3.0094   -0.6368 C   0  0  0  0  0  0  0  0  0  0  0  0
   12.3981   -3.0674   -1.5055 O   0  0  0  0  0  0  0  0  0  0  0  0
    0.0000    0.0000    0.0000 H   0  0  0  0  0  0  0  0  0  0  0  0
    0.0000    0.0000    0.0000 H   0  0  0  0  0  0  0  0  0  0  0  0
    0.0000    0.0000    0.0000 H   0  0  0  0  0  0  0  0  0  0  0  0
    0.0000    0.0000    0.0000 H   0  0  0  0  0  0  0  0  0  0  0  0
    0.0000    0.0000    0.0000 H   0  0  0  0  0  0  0  0  0  0  0  0
    0.0000    0.0000    0.0000 H   0  0  0  0  0  0  0  0  0  0  0  0
    0.0000    0.0000    0.0000 H   0  0  0  0  0  0  0  0  0  0  0  0
    0.0000    0.0000    0.0000 H   0  0  0  0  0  0  0  0  0  0  0  0
    0.0000    0.0000    0.0000 H   0  0  0  0  0  0  0  0  0  0  0  0
    0.0000    0.0000    0.0000 H   0  0  0  0  0  0  0  0  0  0  0  0
    0.0000    0.0000    0.0000 H   0  0  0  0  0  0  0  0  0  0  0  0
    0.0000    0.0000    0.0000 H   0  0  0  0  0  0  0  0  0  0  0  0
    0.0000    0.0000    0.0000 H   0  0  0  0  0  0  0  0  0  0  0  0
    0.0000    0.0000    0.0000 H   0  0  0  0  0  0  0  0  0  0  0  0
    6.9797   -1.5340   -0.3715 C   0  0  0  0  0  0  0  0  0  0  0  0
    6.4842   -0.2513   -0.4859 C   0  0  0  0  0  0  0  0  0  0  0  0
    5.1671    0.0173   -0.4131 N   0  0  0  0  0  0  0  0  0  0  0  0
    4.2842   -0.9853   -0.2226 C   0  0  0  0  0  0  0  0  0  0  0  0
    2.9326   -0.6596   -0.1541 C   0  0  0  0  0  0  0  0  0  0  0  0
    1.9987   -1.6554    0.0397 C   0  0  0  0  0  0  0  0  0  0  0  0
    2.4552   -2.9506    0.1587 C   0  0  0  0  0  0  0  0  0  0  0  0
    3.7986   -3.2855    0.0919 C   0  0  0  0  0  0  0  0  0  0  0  0
    4.7305   -2.2842   -0.1024 C   0  0  0  0  0  0  0  0  0  0  0  0
    6.0820   -2.5633   -0.1766 C   0  0  0  0  0  0  0  0  0  0  0  0
    7.2007    0.5588   -0.6401 H   0  0  0  0  0  0  0  0  0  0  0  0
    2.5709    0.3563   -0.2470 H   0  0  0  0  0  0  0  0  0  0  0  0
    0.9412   -1.4309    0.0970 H   0  0  0  0  0  0  0  0  0  0  0  0
    1.7246   -3.7394    0.3115 H   0  0  0  0  0  0  0  0  0  0  0  0
    4.1664   -4.2903    0.1830 H   0  0  0  0  0  0  0  0  0  0  0  0
    6.4352   -3.5990   -0.0805 H   0  0  0  0  0  0  0  0  0  0  0  0
  1  2  1  0
  2  3  1  0
  2 19  1  0
  3  4  1  0
  3  5  2  0
  5  6  1  0
  6  7  1  1
  6 19  1  0
  7  8  2  0
  7 18  1  0
  8  9  1  0
  9 10  2  0
 10 11  1  0
 11 12  1  0
 11 18  2  0
 12 13  2  0
 12 17  1  0
 13 14  1  0
 14 15  2  0
 15 16  1  0
 16 17  2  0
 19 20  2  0
  1 21  1  0
  1 22  1  0
  1 23  1  0
  4 24  1  0
  4 25  1  0
  5 26  1  0
  8 27  1  0
  9 28  1  0
 10 29  1  0
 13 30  1  0
 14 31  1  0
 15 32  1  0
 17 33  1  0
 18 34  1  0
 35 36  2  0
 36 37  1  0
 37 38  2  0
 38 39  1  0
 39 40  2  0
 40 41  1  0
 41 42  2  0
 42 43  1  0
 43 44  2  0
 44 35  1  0
 43 38  1  0
 36 45  1  0
 39 46  1  0
 40 47  1  0
 41 48  1  0
 42 49  1  0
 44 50  1  0
  6 35  1  0
M  CHG  1   5   1
M  END
>  <attachment_point>  (149) 
26

>  <score>  (149) 
<NA>

$$$$
CAT-4j
     RDKit          3D

 53 55  0  0  1  0  0  0  0  0999 V2000
   11.7106   -2.3098    1.2658 C   0  0  0  0  0  0  0  0  0  0  0  0
   13.0313   -2.6523    0.7225 N   0  0  0  0  0  0  0  0  0  0  0  0
   14.2010   -2.6281    1.3773 C   0  0  0  0  0  0  0  0  0  0  0  0
   14.3777   -2.3568    2.6732 N   0  0  0  0  0  0  0  0  0  0  0  0
   15.2217   -2.9197    0.5738 N   0  0  0  0  0  0  0  0  0  0  0  0
   14.7965   -3.2519   -0.7875 C   0  0  1  0  0  0  0  0  0  0  0  0
   15.3794   -2.2443   -1.7949 C   0  0  0  0  0  0  0  0  0  0  0  0
   15.9522   -2.6550   -3.0208 C   0  0  0  0  0  0  0  0  0  0  0  0
   16.4340   -1.6937   -3.9273 C   0  0  0  0  0  0  0  0  0  0  0  0
   16.3364   -0.3224   -3.6308 C   0  0  0  0  0  0  0  0  0  0  0  0
   15.7943    0.1250   -2.4073 C   0  0  0  0  0  0  0  0  0  0  0  0
   15.6711    1.5693   -2.0915 C   0  0  0  0  0  0  0  0  0  0  0  0
   15.3832    2.0354   -0.7903 C   0  0  0  0  0  0  0  0  0  0  0  0
   15.3534    3.4188   -0.5357 C   0  0  0  0  0  0  0  0  0  0  0  0
   15.5968    4.3049   -1.5946 C   0  0  0  0  0  0  0  0  0  0  0  0
   15.8275    3.8920   -2.8511 N   0  0  0  0  0  0  0  0  0  0  0  0
   15.8598    2.5642   -3.0762 C   0  0  0  0  0  0  0  0  0  0  0  0
   15.3327   -0.8573   -1.5012 C   0  0  0  0  0  0  0  0  0  0  0  0
   13.2767   -3.0094   -0.6368 C   0  0  0  0  0  0  0  0  0  0  0  0
   12.3981   -3.0674   -1.5055 O   0  0  0  0  0  0  0  0  0  0  0  0
    0.0000    0.0000    0.0000 H   0  0  0  0  0  0  0  0  0  0  0  0
    0.0000    0.0000    0.0000 H   0  0  0  0  0  0  0  0  0  0  0  0
    0.0000    0.0000    0.0000 H   0  0  0  0  0  0  0  0  0  0  0  0
    0.0000    0.0000    0.0000 H   0  0  0  0  0  0  0  0  0  0  0  0
    0.0000    0.0000    0.0000 H   0  0  0  0  0  0  0  0  0  0  0  0
    0.0000    0.0000    0.0000 H   0  0  0  0  0  0  0  0  0  0  0  0
    0.0000    0.0000    0.0000 H   0  0  0  0  0  0  0  0  0  0  0  0
    0.0000    0.0000    0.0000 H   0  0  0  0  0  0  0  0  0  0  0  0
    0.0000    0.0000    0.0000 H   0  0  0  0  0  0  0  0  0  0  0  0
    0.0000    0.0000    0.0000 H   0  0  0  0  0  0  0  0  0  0  0  0
    0.0000    0.0000    0.0000 H   0  0  0  0  0  0  0  0  0  0  0  0
    0.0000    0.0000    0.0000 H   0  0  0  0  0  0  0  0  0  0  0  0
    0.0000    0.0000    0.0000 H   0  0  0  0  0  0  0  0  0  0  0  0
    0.0000    0.0000    0.0000 H   0  0  0  0  0  0  0  0  0  0  0  0
    7.0092   -1.5404   -0.3730 O   0  0  0  0  0  0  0  0  0  0  0  0
    6.5420   -1.9575    0.8969 C   0  0  0  0  0  0  0  0  0  0  0  0
    5.0594   -1.6521    1.0237 C   0  0  0  0  0  0  0  0  0  0  0  0
    4.2590   -2.3681   -0.0366 C   0  0  0  0  0  0  0  0  0  0  0  0
    4.4063   -3.8020    0.0466 N   0  0  0  0  0  0  0  0  0  0  0  0
    3.6348   -4.4729   -0.9743 C   0  0  0  0  0  0  0  0  0  0  0  0
    3.9617   -4.3263    1.3221 C   0  0  0  0  0  0  0  0  0  0  0  0
    7.1088   -1.4402    1.6928 H   0  0  0  0  0  0  0  0  0  0  0  0
    6.6752   -3.0574    0.9120 H   0  0  0  0  0  0  0  0  0  0  0  0
    4.9028   -0.5547    0.8450 H   0  0  0  0  0  0  0  0  0  0  0  0
    4.6976   -1.8618    2.0375 H   0  0  0  0  0  0  0  0  0  0  0  0
    4.6852   -2.0594   -1.0176 H   0  0  0  0  0  0  0  0  0  0  0  0
    3.2010   -2.0448    0.0870 H   0  0  0  0  0  0  0  0  0  0  0  0
    4.3109   -4.7790   -1.8032 H   0  0  0  0  0  0  0  0  0  0  0  0
    2.8284   -3.8254   -1.3808 H   0  0  0  0  0  0  0  0  0  0  0  0
    3.1293   -5.3840   -0.5920 H   0  0  0  0  0  0  0  0  0  0  0  0
    4.1868   -5.4231    1.3015 H   0  0  0  0  0  0  0  0  0  0  0  0
    4.4661   -3.8913    2.1830 H   0  0  0  0  0  0  0  0  0  0  0  0
    2.8377   -4.2763    1.4132 H   0  0  0  0  0  0  0  0  0  0  0  0
  1  2  1  0
  2  3  1  0
  2 19  1  0
  3  4  1  0
  3  5  2  0
  5  6  1  0
  6  7  1  0
  6 19  1  0
  7  8  2  0
  7 18  1  0
  8  9  1  0
  9 10  2  0
 10 11  1  0
 11 12  1  0
 11 18  2  0
 12 13  2  0
 12 17  1  0
 13 14  1  0
 14 15  2  0
 15 16  1  0
 16 17  2  0
 19 20  2  0
  1 21  1  0
  1 22  1  0
  1 23  1  0
  4 24  1  0
  4 25  1  0
  5 26  1  0
  8 27  1  0
  9 28  1  0
 10 29  1  0
 13 30  1  0
 14 31  1  0
 15 32  1  0
 17 33  1  0
 18 34  1  0
 35 36  1  0
 36 37  1  0
 37 38  1  0
 38 39  1  0
 39 40  1  0
 39 41  1  0
 36 42  1  0
 36 43  1  0
 37 44  1  0
 37 45  1  0
 38 46  1  0
 38 47  1  0
 40 48  1  0
 40 49  1  0
 40 50  1  0
 41 51  1  0
 41 52  1  0
 41 53  1  0
  6 35  1  6
M  CHG  1   5   1
M  END
>  <attachment_point>  (150) 
26

>  <score>  (150) 
<NA>

$$$$
CAT-4j
     RDKit          3D

 47 50  0  0  1  0  0  0  0  0999 V2000
   11.7106   -2.3098    1.2658 C   0  0  0  0  0  0  0  0  0  0  0  0
   13.0313   -2.6523    0.7225 N   0  0  0  0  0  0  0  0  0  0  0  0
   14.2010   -2.6281    1.3773 C   0  0  0  0  0  0  0  0  0  0  0  0
   14.3777   -2.3568    2.6732 N   0  0  0  0  0  0  0  0  0  0  0  0
   15.2217   -2.9197    0.5738 N   0  0  0  0  0  0  0  0  0  0  0  0
   14.7965   -3.2519   -0.7875 C   0  0  1  0  0  0  0  0  0  0  0  0
   15.3794   -2.2443   -1.7949 C   0  0  0  0  0  0  0  0  0  0  0  0
   15.9522   -2.6550   -3.0208 C   0  0  0  0  0  0  0  0  0  0  0  0
   16.4340   -1.6937   -3.9273 C   0  0  0  0  0  0  0  0  0  0  0  0
   16.3364   -0.3224   -3.6308 C   0  0  0  0  0  0  0  0  0  0  0  0
   15.7943    0.1250   -2.4073 C   0  0  0  0  0  0  0  0  0  0  0  0
   15.6711    1.5693   -2.0915 C   0  0  0  0  0  0  0  0  0  0  0  0
   15.3832    2.0354   -0.7903 C   0  0  0  0  0  0  0  0  0  0  0  0
   15.3534    3.4188   -0.5357 C   0  0  0  0  0  0  0  0  0  0  0  0
   15.5968    4.3049   -1.5946 C   0  0  0  0  0  0  0  0  0  0  0  0
   15.8275    3.8920   -2.8511 N   0  0  0  0  0  0  0  0  0  0  0  0
   15.8598    2.5642   -3.0762 C   0  0  0  0  0  0  0  0  0  0  0  0
   15.3327   -0.8573   -1.5012 C   0  0  0  0  0  0  0  0  0  0  0  0
   13.2767   -3.0094   -0.6368 C   0  0  0  0  0  0  0  0  0  0  0  0
   12.3981   -3.0674   -1.5055 O   0  0  0  0  0  0  0  0  0  0  0  0
    0.0000    0.0000    0.0000 H   0  0  0  0  0  0  0  0  0  0  0  0
    0.0000    0.0000    0.0000 H   0  0  0  0  0  0  0  0  0  0  0  0
    0.0000    0.0000    0.0000 H   0  0  0  0  0  0  0  0  0  0  0  0
    0.0000    0.0000    0.0000 H   0  0  0  0  0  0  0  0  0  0  0  0
    0.0000    0.0000    0.0000 H   0  0  0  0  0  0  0  0  0  0  0  0
    0.0000    0.0000    0.0000 H   0  0  0  0  0  0  0  0  0  0  0  0
    0.0000    0.0000    0.0000 H   0  0  0  0  0  0  0  0  0  0  0  0
    0.0000    0.0000    0.0000 H   0  0  0  0  0  0  0  0  0  0  0  0
    0.0000    0.0000    0.0000 H   0  0  0  0  0  0  0  0  0  0  0  0
    0.0000    0.0000    0.0000 H   0  0  0  0  0  0  0  0  0  0  0  0
    0.0000    0.0000    0.0000 H   0  0  0  0  0  0  0  0  0  0  0  0
    0.0000    0.0000    0.0000 H   0  0  0  0  0  0  0  0  0  0  0  0
    0.0000    0.0000    0.0000 H   0  0  0  0  0  0  0  0  0  0  0  0
    0.0000    0.0000    0.0000 H   0  0  0  0  0  0  0  0  0  0  0  0
    6.9741   -1.5327   -0.3712 C   0  0  0  0  0  0  0  0  0  0  0  0
    6.5418   -2.0366    0.9598 C   0  0  0  0  0  0  0  0  0  0  0  0
    6.5804   -1.2512    2.0926 C   0  0  0  0  0  0  0  0  0  0  0  0
    6.1593   -1.7920    3.3051 C   0  0  0  0  0  0  0  0  0  0  0  0
    5.7029   -3.0903    3.4154 C   0  0  0  0  0  0  0  0  0  0  0  0
    5.6815   -3.8223    2.2860 N   0  0  0  0  0  0  0  0  0  0  0  0
    6.0837   -3.3288    1.0888 C   0  0  0  0  0  0  0  0  0  0  0  0
    6.8936   -0.4284   -0.4097 H   0  0  0  0  0  0  0  0  0  0  0  0
    6.4942   -2.0481   -1.2028 H   0  0  0  0  0  0  0  0  0  0  0  0
    6.9379   -0.2395    1.9980 H   0  0  0  0  0  0  0  0  0  0  0  0
    6.1980   -1.1622    4.1742 H   0  0  0  0  0  0  0  0  0  0  0  0
    5.3768   -3.5004    4.3694 H   0  0  0  0  0  0  0  0  0  0  0  0
    6.0611   -3.9352    0.1779 H   0  0  0  0  0  0  0  0  0  0  0  0
  1  2  1  0
  2  3  1  0
  2 19  1  0
  3  4  1  0
  3  5  2  0
  5  6  1  0
  6  7  1  0
  6 19  1  0
  7  8  2  0
  7 18  1  0
  8  9  1  0
  9 10  2  0
 10 11  1  0
 11 12  1  0
 11 18  2  0
 12 13  2  0
 12 17  1  0
 13 14  1  0
 14 15  2  0
 15 16  1  0
 16 17  2  0
 19 20  2  0
  1 21  1  0
  1 22  1  0
  1 23  1  0
  4 24  1  0
  4 25  1  0
  5 26  1  0
  8 27  1  0
  9 28  1  0
 10 29  1  0
 13 30  1  0
 14 31  1  0
 15 32  1  0
 17 33  1  0
 18 34  1  0
 35 36  1  0
 36 37  2  0
 37 38  1  0
 38 39  2  0
 39 40  1  0
 40 41  2  0
 41 36  1  0
 35 42  1  0
 35 43  1  0
 37 44  1  0
 38 45  1  0
 39 46  1  0
 41 47  1  0
  6 35  1  6
M  CHG  1   5   1
M  END
>  <attachment_point>  (151) 
26

>  <score>  (151) 
<NA>

$$$$
CAT-4j
     RDKit          3D

 46 49  0  0  1  0  0  0  0  0999 V2000
   11.7106   -2.3098    1.2658 C   0  0  0  0  0  0  0  0  0  0  0  0
   13.0313   -2.6523    0.7225 N   0  0  0  0  0  0  0  0  0  0  0  0
   14.2010   -2.6281    1.3773 C   0  0  0  0  0  0  0  0  0  0  0  0
   14.3777   -2.3568    2.6732 N   0  0  0  0  0  0  0  0  0  0  0  0
   15.2217   -2.9197    0.5738 N   0  0  0  0  0  0  0  0  0  0  0  0
   14.7965   -3.2519   -0.7875 C   0  0  1  0  0  0  0  0  0  0  0  0
   15.3794   -2.2443   -1.7949 C   0  0  0  0  0  0  0  0  0  0  0  0
   15.9522   -2.6550   -3.0208 C   0  0  0  0  0  0  0  0  0  0  0  0
   16.4340   -1.6937   -3.9273 C   0  0  0  0  0  0  0  0  0  0  0  0
   16.3364   -0.3224   -3.6308 C   0  0  0  0  0  0  0  0  0  0  0  0
   15.7943    0.1250   -2.4073 C   0  0  0  0  0  0  0  0  0  0  0  0
   15.6711    1.5693   -2.0915 C   0  0  0  0  0  0  0  0  0  0  0  0
   15.3832    2.0354   -0.7903 C   0  0  0  0  0  0  0  0  0  0  0  0
   15.3534    3.4188   -0.5357 C   0  0  0  0  0  0  0  0  0  0  0  0
   15.5968    4.3049   -1.5946 C   0  0  0  0  0  0  0  0  0  0  0  0
   15.8275    3.8920   -2.8511 N   0  0  0  0  0  0  0  0  0  0  0  0
   15.8598    2.5642   -3.0762 C   0  0  0  0  0  0  0  0  0  0  0  0
   15.3327   -0.8573   -1.5012 C   0  0  0  0  0  0  0  0  0  0  0  0
   13.2767   -3.0094   -0.6368 C   0  0  0  0  0  0  0  0  0  0  0  0
   12.3981   -3.0674   -1.5055 O   0  0  0  0  0  0  0  0  0  0  0  0
    0.0000    0.0000    0.0000 H   0  0  0  0  0  0  0  0  0  0  0  0
    0.0000    0.0000    0.0000 H   0  0  0  0  0  0  0  0  0  0  0  0
    0.0000    0.0000    0.0000 H   0  0  0  0  0  0  0  0  0  0  0  0
    0.0000    0.0000    0.0000 H   0  0  0  0  0  0  0  0  0  0  0  0
    0.0000    0.0000    0.0000 H   0  0  0  0  0  0  0  0  0  0  0  0
    0.0000    0.0000    0.0000 H   0  0  0  0  0  0  0  0  0  0  0  0
    0.0000    0.0000    0.0000 H   0  0  0  0  0  0  0  0  0  0  0  0
    0.0000    0.0000    0.0000 H   0  0  0  0  0  0  0  0  0  0  0  0
    0.0000    0.0000    0.0000 H   0  0  0  0  0  0  0  0  0  0  0  0
    0.0000    0.0000    0.0000 H   0  0  0  0  0  0  0  0  0  0  0  0
    0.0000    0.0000    0.0000 H   0  0  0  0  0  0  0  0  0  0  0  0
    0.0000    0.0000    0.0000 H   0  0  0  0  0  0  0  0  0  0  0  0
    0.0000    0.0000    0.0000 H   0  0  0  0  0  0  0  0  0  0  0  0
    0.0000    0.0000    0.0000 H   0  0  0  0  0  0  0  0  0  0  0  0
    7.0030   -1.5391   -0.3727 C   0  0  0  0  0  0  0  0  0  0  0  0
    6.5401   -0.3309    0.1164 C   0  0  0  0  0  0  0  0  0  0  0  0
    5.1747   -0.0914    0.1636 C   0  0  0  0  0  0  0  0  0  0  0  0
    4.2471   -1.0206   -0.2627 C   0  0  0  0  0  0  0  0  0  0  0  0
    4.7241   -2.2292   -0.7515 C   0  0  0  0  0  0  0  0  0  0  0  0
    6.0906   -2.4954   -0.8098 C   0  0  0  0  0  0  0  0  0  0  0  0
    6.4879   -3.7208   -1.3087 O   0  0  0  0  0  0  0  0  0  0  0  0
    7.2090    0.4192    0.4574 H   0  0  0  0  0  0  0  0  0  0  0  0
    4.8271    0.8652    0.5516 H   0  0  0  0  0  0  0  0  0  0  0  0
    3.1788   -0.8549   -0.2348 H   0  0  0  0  0  0  0  0  0  0  0  0
    4.0335   -2.9967   -1.1006 H   0  0  0  0  0  0  0  0  0  0  0  0
    6.1456   -4.6074   -0.9527 H   0  0  0  0  0  0  0  0  0  0  0  0
  1  2  1  0
  2  3  1  0
  2 19  1  0
  3  4  1  0
  3  5  2  0
  5  6  1  0
  6  7  1  1
  6 19  1  0
  7  8  2  0
  7 18  1  0
  8  9  1  0
  9 10  2  0
 10 11  1  0
 11 12  1  0
 11 18  2  0
 12 13  2  0
 12 17  1  0
 13 14  1  0
 14 15  2  0
 15 16  1  0
 16 17  2  0
 19 20  2  0
  1 21  1  0
  1 22  1  0
  1 23  1  0
  4 24  1  0
  4 25  1  0
  5 26  1  0
  8 27  1  0
  9 28  1  0
 10 29  1  0
 13 30  1  0
 14 31  1  0
 15 32  1  0
 17 33  1  0
 18 34  1  0
 35 36  2  0
 36 37  1  0
 37 38  2  0
 38 39  1  0
 39 40  2  0
 40 41  1  0
 40 35  1  0
 36 42  1  0
 37 43  1  0
 38 44  1  0
 39 45  1  0
 41 46  1  0
  6 35  1  0
M  CHG  1   5   1
M  END
>  <attachment_point>  (152) 
26

>  <score>  (152) 
<NA>

$$$$
CAT-4j
     RDKit          3D

 45 48  0  0  1  0  0  0  0  0999 V2000
   11.7106   -2.3098    1.2658 C   0  0  0  0  0  0  0  0  0  0  0  0
   13.0313   -2.6523    0.7225 N   0  0  0  0  0  0  0  0  0  0  0  0
   14.2010   -2.6281    1.3773 C   0  0  0  0  0  0  0  0  0  0  0  0
   14.3777   -2.3568    2.6732 N   0  0  0  0  0  0  0  0  0  0  0  0
   15.2217   -2.9197    0.5738 N   0  0  0  0  0  0  0  0  0  0  0  0
   14.7965   -3.2519   -0.7875 C   0  0  1  0  0  0  0  0  0  0  0  0
   15.3794   -2.2443   -1.7949 C   0  0  0  0  0  0  0  0  0  0  0  0
   15.9522   -2.6550   -3.0208 C   0  0  0  0  0  0  0  0  0  0  0  0
   16.4340   -1.6937   -3.9273 C   0  0  0  0  0  0  0  0  0  0  0  0
   16.3364   -0.3224   -3.6308 C   0  0  0  0  0  0  0  0  0  0  0  0
   15.7943    0.1250   -2.4073 C   0  0  0  0  0  0  0  0  0  0  0  0
   15.6711    1.5693   -2.0915 C   0  0  0  0  0  0  0  0  0  0  0  0
   15.3832    2.0354   -0.7903 C   0  0  0  0  0  0  0  0  0  0  0  0
   15.3534    3.4188   -0.5357 C   0  0  0  0  0  0  0  0  0  0  0  0
   15.5968    4.3049   -1.5946 C   0  0  0  0  0  0  0  0  0  0  0  0
   15.8275    3.8920   -2.8511 N   0  0  0  0  0  0  0  0  0  0  0  0
   15.8598    2.5642   -3.0762 C   0  0  0  0  0  0  0  0  0  0  0  0
   15.3327   -0.8573   -1.5012 C   0  0  0  0  0  0  0  0  0  0  0  0
   13.2767   -3.0094   -0.6368 C   0  0  0  0  0  0  0  0  0  0  0  0
   12.3981   -3.0674   -1.5055 O   0  0  0  0  0  0  0  0  0  0  0  0
    0.0000    0.0000    0.0000 H   0  0  0  0  0  0  0  0  0  0  0  0
    0.0000    0.0000    0.0000 H   0  0  0  0  0  0  0  0  0  0  0  0
    0.0000    0.0000    0.0000 H   0  0  0  0  0  0  0  0  0  0  0  0
    0.0000    0.0000    0.0000 H   0  0  0  0  0  0  0  0  0  0  0  0
    0.0000    0.0000    0.0000 H   0  0  0  0  0  0  0  0  0  0  0  0
    0.0000    0.0000    0.0000 H   0  0  0  0  0  0  0  0  0  0  0  0
    0.0000    0.0000    0.0000 H   0  0  0  0  0  0  0  0  0  0  0  0
    0.0000    0.0000    0.0000 H   0  0  0  0  0  0  0  0  0  0  0  0
    0.0000    0.0000    0.0000 H   0  0  0  0  0  0  0  0  0  0  0  0
    0.0000    0.0000    0.0000 H   0  0  0  0  0  0  0  0  0  0  0  0
    0.0000    0.0000    0.0000 H   0  0  0  0  0  0  0  0  0  0  0  0
    0.0000    0.0000    0.0000 H   0  0  0  0  0  0  0  0  0  0  0  0
    0.0000    0.0000    0.0000 H   0  0  0  0  0  0  0  0  0  0  0  0
    0.0000    0.0000    0.0000 H   0  0  0  0  0  0  0  0  0  0  0  0
    6.9929   -1.5369   -0.3722 C   0  0  0  0  0  0  0  0  0  0  0  0
    6.7079   -0.8494    0.9695 C   0  0  0  0  0  0  0  0  0  0  0  0
    6.8354   -2.2568    1.5705 C   0  0  0  0  0  0  0  0  0  0  0  0
    6.2637   -2.7409    0.2326 C   0  0  0  0  0  0  0  0  0  0  0  0
    6.5040   -1.0758   -1.2252 H   0  0  0  0  0  0  0  0  0  0  0  0
    5.6456   -0.5020    0.9848 H   0  0  0  0  0  0  0  0  0  0  0  0
    7.4608   -0.1379    1.2954 H   0  0  0  0  0  0  0  0  0  0  0  0
    7.9073   -2.5236    1.6345 H   0  0  0  0  0  0  0  0  0  0  0  0
    6.2129   -2.4477    2.4384 H   0  0  0  0  0  0  0  0  0  0  0  0
    6.6313   -3.7162   -0.0980 H   0  0  0  0  0  0  0  0  0  0  0  0
    5.1624   -2.5885    0.1892 H   0  0  0  0  0  0  0  0  0  0  0  0
  1  2  1  0
  2  3  1  0
  2 19  1  0
  3  4  1  0
  3  5  2  0
  5  6  1  0
  6  7  1  0
  6 19  1  0
  7  8  2  0
  7 18  1  0
  8  9  1  0
  9 10  2  0
 10 11  1  0
 11 12  1  0
 11 18  2  0
 12 13  2  0
 12 17  1  0
 13 14  1  0
 14 15  2  0
 15 16  1  0
 16 17  2  0
 19 20  2  0
  1 21  1  0
  1 22  1  0
  1 23  1  0
  4 24  1  0
  4 25  1  0
  5 26  1  0
  8 27  1  0
  9 28  1  0
 10 29  1  0
 13 30  1  0
 14 31  1  0
 15 32  1  0
 17 33  1  0
 18 34  1  0
 35 36  1  0
 36 37  1  0
 37 38  1  0
 38 35  1  0
 35 39  1  0
 36 40  1  0
 36 41  1  0
 37 42  1  0
 37 43  1  0
 38 44  1  0
 38 45  1  0
  6 35  1  6
M  CHG  1   5   1
M  END
>  <attachment_point>  (153) 
26

>  <score>  (153) 
<NA>

$$$$
CAT-4j
     RDKit          3D

 40 42  0  0  1  0  0  0  0  0999 V2000
   11.7106   -2.3098    1.2658 C   0  0  0  0  0  0  0  0  0  0  0  0
   13.0313   -2.6523    0.7225 N   0  0  0  0  0  0  0  0  0  0  0  0
   14.2010   -2.6281    1.3773 C   0  0  0  0  0  0  0  0  0  0  0  0
   14.3777   -2.3568    2.6732 N   0  0  0  0  0  0  0  0  0  0  0  0
   15.2217   -2.9197    0.5738 N   0  0  0  0  0  0  0  0  0  0  0  0
   14.7965   -3.2519   -0.7875 C   0  0  1  0  0  0  0  0  0  0  0  0
   15.3794   -2.2443   -1.7949 C   0  0  0  0  0  0  0  0  0  0  0  0
   15.9522   -2.6550   -3.0208 C   0  0  0  0  0  0  0  0  0  0  0  0
   16.4340   -1.6937   -3.9273 C   0  0  0  0  0  0  0  0  0  0  0  0
   16.3364   -0.3224   -3.6308 C   0  0  0  0  0  0  0  0  0  0  0  0
   15.7943    0.1250   -2.4073 C   0  0  0  0  0  0  0  0  0  0  0  0
   15.6711    1.5693   -2.0915 C   0  0  0  0  0  0  0  0  0  0  0  0
   15.3832    2.0354   -0.7903 C   0  0  0  0  0  0  0  0  0  0  0  0
   15.3534    3.4188   -0.5357 C   0  0  0  0  0  0  0  0  0  0  0  0
   15.5968    4.3049   -1.5946 C   0  0  0  0  0  0  0  0  0  0  0  0
   15.8275    3.8920   -2.8511 N   0  0  0  0  0  0  0  0  0  0  0  0
   15.8598    2.5642   -3.0762 C   0  0  0  0  0  0  0  0  0  0  0  0
   15.3327   -0.8573   -1.5012 C   0  0  0  0  0  0  0  0  0  0  0  0
   13.2767   -3.0094   -0.6368 C   0  0  0  0  0  0  0  0  0  0  0  0
   12.3981   -3.0674   -1.5055 O   0  0  0  0  0  0  0  0  0  0  0  0
    0.0000    0.0000    0.0000 H   0  0  0  0  0  0  0  0  0  0  0  0
    0.0000    0.0000    0.0000 H   0  0  0  0  0  0  0  0  0  0  0  0
    0.0000    0.0000    0.0000 H   0  0  0  0  0  0  0  0  0  0  0  0
    0.0000    0.0000    0.0000 H   0  0  0  0  0  0  0  0  0  0  0  0
    0.0000    0.0000    0.0000 H   0  0  0  0  0  0  0  0  0  0  0  0
    0.0000    0.0000    0.0000 H   0  0  0  0  0  0  0  0  0  0  0  0
    0.0000    0.0000    0.0000 H   0  0  0  0  0  0  0  0  0  0  0  0
    0.0000    0.0000    0.0000 H   0  0  0  0  0  0  0  0  0  0  0  0
    0.0000    0.0000    0.0000 H   0  0  0  0  0  0  0  0  0  0  0  0
    0.0000    0.0000    0.0000 H   0  0  0  0  0  0  0  0  0  0  0  0
    0.0000    0.0000    0.0000 H   0  0  0  0  0  0  0  0  0  0  0  0
    0.0000    0.0000    0.0000 H   0  0  0  0  0  0  0  0  0  0  0  0
    0.0000    0.0000    0.0000 H   0  0  0  0  0  0  0  0  0  0  0  0
    0.0000    0.0000    0.0000 H   0  0  0  0  0  0  0  0  0  0  0  0
    6.9460   -1.5266   -0.3697 C   0  0  0  0  0  0  0  0  0  0  0  0
    6.1966   -2.4392   -0.8600 N   0  0  0  0  0  0  0  0  0  0  0  0
    6.5090   -0.3249    0.1978 N   0  0  0  0  0  0  0  0  0  0  0  0
    5.1627   -2.2947   -0.8457 H   0  0  0  0  0  0  0  0  0  0  0  0
    5.6203   -0.3306    0.7438 H   0  0  0  0  0  0  0  0  0  0  0  0
    7.0246    0.5776    0.1042 H   0  0  0  0  0  0  0  0  0  0  0  0
  1  2  1  0
  2  3  1  0
  2 19  1  0
  3  4  1  0
  3  5  2  0
  5  6  1  0
  6  7  1  1
  6 19  1  0
  7  8  2  0
  7 18  1  0
  8  9  1  0
  9 10  2  0
 10 11  1  0
 11 12  1  0
 11 18  2  0
 12 13  2  0
 12 17  1  0
 13 14  1  0
 14 15  2  0
 15 16  1  0
 16 17  2  0
 19 20  2  0
  1 21  1  0
  1 22  1  0
  1 23  1  0
  4 24  1  0
  4 25  1  0
  5 26  1  0
  8 27  1  0
  9 28  1  0
 10 29  1  0
 13 30  1  0
 14 31  1  0
 15 32  1  0
 17 33  1  0
 18 34  1  0
 35 36  2  3
 35 37  1  0
 36 38  1  0
 37 39  1  0
 37 40  1  0
  6 35  1  0
M  CHG  1   5   1
M  END
>  <attachment_point>  (154) 
26

>  <score>  (154) 
<NA>

$$$$
CAT-4j
     RDKit          3D

 48 52  0  0  1  0  0  0  0  0999 V2000
   11.7106   -2.3098    1.2658 C   0  0  0  0  0  0  0  0  0  0  0  0
   13.0313   -2.6523    0.7225 N   0  0  0  0  0  0  0  0  0  0  0  0
   14.2010   -2.6281    1.3773 C   0  0  0  0  0  0  0  0  0  0  0  0
   14.3777   -2.3568    2.6732 N   0  0  0  0  0  0  0  0  0  0  0  0
   15.2217   -2.9197    0.5738 N   0  0  0  0  0  0  0  0  0  0  0  0
   14.7965   -3.2519   -0.7875 C   0  0  1  0  0  0  0  0  0  0  0  0
   15.3794   -2.2443   -1.7949 C   0  0  0  0  0  0  0  0  0  0  0  0
   15.9522   -2.6550   -3.0208 C   0  0  0  0  0  0  0  0  0  0  0  0
   16.4340   -1.6937   -3.9273 C   0  0  0  0  0  0  0  0  0  0  0  0
   16.3364   -0.3224   -3.6308 C   0  0  0  0  0  0  0  0  0  0  0  0
   15.7943    0.1250   -2.4073 C   0  0  0  0  0  0  0  0  0  0  0  0
   15.6711    1.5693   -2.0915 C   0  0  0  0  0  0  0  0  0  0  0  0
   15.3832    2.0354   -0.7903 C   0  0  0  0  0  0  0  0  0  0  0  0
   15.3534    3.4188   -0.5357 C   0  0  0  0  0  0  0  0  0  0  0  0
   15.5968    4.3049   -1.5946 C   0  0  0  0  0  0  0  0  0  0  0  0
   15.8275    3.8920   -2.8511 N   0  0  0  0  0  0  0  0  0  0  0  0
   15.8598    2.5642   -3.0762 C   0  0  0  0  0  0  0  0  0  0  0  0
   15.3327   -0.8573   -1.5012 C   0  0  0  0  0  0  0  0  0  0  0  0
   13.2767   -3.0094   -0.6368 C   0  0  0  0  0  0  0  0  0  0  0  0
   12.3981   -3.0674   -1.5055 O   0  0  0  0  0  0  0  0  0  0  0  0
    0.0000    0.0000    0.0000 H   0  0  0  0  0  0  0  0  0  0  0  0
    0.0000    0.0000    0.0000 H   0  0  0  0  0  0  0  0  0  0  0  0
    0.0000    0.0000    0.0000 H   0  0  0  0  0  0  0  0  0  0  0  0
    0.0000    0.0000    0.0000 H   0  0  0  0  0  0  0  0  0  0  0  0
    0.0000    0.0000    0.0000 H   0  0  0  0  0  0  0  0  0  0  0  0
    0.0000    0.0000    0.0000 H   0  0  0  0  0  0  0  0  0  0  0  0
    0.0000    0.0000    0.0000 H   0  0  0  0  0  0  0  0  0  0  0  0
    0.0000    0.0000    0.0000 H   0  0  0  0  0  0  0  0  0  0  0  0
    0.0000    0.0000    0.0000 H   0  0  0  0  0  0  0  0  0  0  0  0
    0.0000    0.0000    0.0000 H   0  0  0  0  0  0  0  0  0  0  0  0
    0.0000    0.0000    0.0000 H   0  0  0  0  0  0  0  0  0  0  0  0
    0.0000    0.0000    0.0000 H   0  0  0  0  0  0  0  0  0  0  0  0
    0.0000    0.0000    0.0000 H   0  0  0  0  0  0  0  0  0  0  0  0
    0.0000    0.0000    0.0000 H   0  0  0  0  0  0  0  0  0  0  0  0
    6.8892   -1.5141   -0.3667 C   0  0  0  0  0  0  0  0  0  0  0  0
    6.4299   -0.3481    0.0923 C   0  0  0  0  0  0  0  0  0  0  0  0
    5.0430   -0.4576   -0.0029 C   0  0  0  0  0  0  0  0  0  0  0  0
    3.9590    0.3349    0.2808 C   0  0  0  0  0  0  0  0  0  0  0  0
    2.6688   -0.1106    0.0522 C   0  0  0  0  0  0  0  0  0  0  0  0
    2.4454   -1.3677   -0.4688 C   0  0  0  0  0  0  0  0  0  0  0  0
    3.5213   -2.1809   -0.7613 C   0  0  0  0  0  0  0  0  0  0  0  0
    4.7930   -1.7294   -0.5308 C   0  0  0  0  0  0  0  0  0  0  0  0
    5.9809   -2.3129   -0.7256 O   0  0  0  0  0  0  0  0  0  0  0  0
    6.9098    0.5417    0.4727 H   0  0  0  0  0  0  0  0  0  0  0  0
    4.1705    1.3264    0.6930 H   0  0  0  0  0  0  0  0  0  0  0  0
    1.8468    0.5675    0.2988 H   0  0  0  0  0  0  0  0  0  0  0  0
    1.4276   -1.6718   -0.6300 H   0  0  0  0  0  0  0  0  0  0  0  0
    3.3288   -3.1619   -1.1685 H   0  0  0  0  0  0  0  0  0  0  0  0
  1  2  1  0
  2  3  1  0
  2 19  1  0
  3  4  1  0
  3  5  2  0
  5  6  1  0
  6  7  1  1
  6 19  1  0
  7  8  2  0
  7 18  1  0
  8  9  1  0
  9 10  2  0
 10 11  1  0
 11 12  1  0
 11 18  2  0
 12 13  2  0
 12 17  1  0
 13 14  1  0
 14 15  2  0
 15 16  1  0
 16 17  2  0
 19 20  2  0
  1 21  1  0
  1 22  1  0
  1 23  1  0
  4 24  1  0
  4 25  1  0
  5 26  1  0
  8 27  1  0
  9 28  1  0
 10 29  1  0
 13 30  1  0
 14 31  1  0
 15 32  1  0
 17 33  1  0
 18 34  1  0
 35 36  2  0
 36 37  1  0
 37 38  2  0
 38 39  1  0
 39 40  2  0
 40 41  1  0
 41 42  2  0
 42 43  1  0
 43 35  1  0
 42 37  1  0
 36 44  1  0
 38 45  1  0
 39 46  1  0
 40 47  1  0
 41 48  1  0
  6 35  1  0
M  CHG  1   5   1
M  END
>  <attachment_point>  (155) 
26

>  <score>  (155) 
<NA>

$$$$
CAT-4j
     RDKit          3D

 52 55  0  0  1  0  0  0  0  0999 V2000
   11.7106   -2.3098    1.2658 C   0  0  0  0  0  0  0  0  0  0  0  0
   13.0313   -2.6523    0.7225 N   0  0  0  0  0  0  0  0  0  0  0  0
   14.2010   -2.6281    1.3773 C   0  0  0  0  0  0  0  0  0  0  0  0
   14.3777   -2.3568    2.6732 N   0  0  0  0  0  0  0  0  0  0  0  0
   15.2217   -2.9197    0.5738 N   0  0  0  0  0  0  0  0  0  0  0  0
   14.7965   -3.2519   -0.7875 C   0  0  1  0  0  0  0  0  0  0  0  0
   15.3794   -2.2443   -1.7949 C   0  0  0  0  0  0  0  0  0  0  0  0
   15.9522   -2.6550   -3.0208 C   0  0  0  0  0  0  0  0  0  0  0  0
   16.4340   -1.6937   -3.9273 C   0  0  0  0  0  0  0  0  0  0  0  0
   16.3364   -0.3224   -3.6308 C   0  0  0  0  0  0  0  0  0  0  0  0
   15.7943    0.1250   -2.4073 C   0  0  0  0  0  0  0  0  0  0  0  0
   15.6711    1.5693   -2.0915 C   0  0  0  0  0  0  0  0  0  0  0  0
   15.3832    2.0354   -0.7903 C   0  0  0  0  0  0  0  0  0  0  0  0
   15.3534    3.4188   -0.5357 C   0  0  0  0  0  0  0  0  0  0  0  0
   15.5968    4.3049   -1.5946 C   0  0  0  0  0  0  0  0  0  0  0  0
   15.8275    3.8920   -2.8511 N   0  0  0  0  0  0  0  0  0  0  0  0
   15.8598    2.5642   -3.0762 C   0  0  0  0  0  0  0  0  0  0  0  0
   15.3327   -0.8573   -1.5012 C   0  0  0  0  0  0  0  0  0  0  0  0
   13.2767   -3.0094   -0.6368 C   0  0  0  0  0  0  0  0  0  0  0  0
   12.3981   -3.0674   -1.5055 O   0  0  0  0  0  0  0  0  0  0  0  0
    0.0000    0.0000    0.0000 H   0  0  0  0  0  0  0  0  0  0  0  0
    0.0000    0.0000    0.0000 H   0  0  0  0  0  0  0  0  0  0  0  0
    0.0000    0.0000    0.0000 H   0  0  0  0  0  0  0  0  0  0  0  0
    0.0000    0.0000    0.0000 H   0  0  0  0  0  0  0  0  0  0  0  0
    0.0000    0.0000    0.0000 H   0  0  0  0  0  0  0  0  0  0  0  0
    0.0000    0.0000    0.0000 H   0  0  0  0  0  0  0  0  0  0  0  0
    0.0000    0.0000    0.0000 H   0  0  0  0  0  0  0  0  0  0  0  0
    0.0000    0.0000    0.0000 H   0  0  0  0  0  0  0  0  0  0  0  0
    0.0000    0.0000    0.0000 H   0  0  0  0  0  0  0  0  0  0  0  0
    0.0000    0.0000    0.0000 H   0  0  0  0  0  0  0  0  0  0  0  0
    0.0000    0.0000    0.0000 H   0  0  0  0  0  0  0  0  0  0  0  0
    0.0000    0.0000    0.0000 H   0  0  0  0  0  0  0  0  0  0  0  0
    0.0000    0.0000    0.0000 H   0  0  0  0  0  0  0  0  0  0  0  0
    0.0000    0.0000    0.0000 H   0  0  0  0  0  0  0  0  0  0  0  0
    6.9997   -1.5384   -0.3725 C   0  0  0  0  0  0  0  0  0  0  0  0
    6.7391   -0.3284    0.4578 C   0  0  0  0  0  0  0  0  0  0  0  0
    6.7131    0.9306   -0.1071 C   0  0  0  0  0  0  0  0  0  0  0  0
    6.4746    2.0781    0.6302 C   0  0  0  0  0  0  0  0  0  0  0  0
    6.2496    1.9938    1.9892 C   0  0  0  0  0  0  0  0  0  0  0  0
    6.0062    3.1195    2.7671 O   0  0  0  0  0  0  0  0  0  0  0  0
    5.9938    4.3811    2.1216 C   0  0  0  0  0  0  0  0  0  0  0  0
    6.2719    0.7363    2.5746 C   0  0  0  0  0  0  0  0  0  0  0  0
    6.5131   -0.4053    1.8179 C   0  0  0  0  0  0  0  0  0  0  0  0
    6.3854   -2.3577    0.0576 H   0  0  0  0  0  0  0  0  0  0  0  0
    6.6369   -1.3914   -1.4221 H   0  0  0  0  0  0  0  0  0  0  0  0
    6.8930    0.9743   -1.1802 H   0  0  0  0  0  0  0  0  0  0  0  0
    6.4650    3.0396    0.1389 H   0  0  0  0  0  0  0  0  0  0  0  0
    5.3384    4.3849    1.2294 H   0  0  0  0  0  0  0  0  0  0  0  0
    5.8128    5.2109    2.8050 H   0  0  0  0  0  0  0  0  0  0  0  0
    7.0408    4.5271    1.7249 H   0  0  0  0  0  0  0  0  0  0  0  0
    6.0944    0.6919    3.6344 H   0  0  0  0  0  0  0  0  0  0  0  0
    6.5244   -1.3792    2.3065 H   0  0  0  0  0  0  0  0  0  0  0  0
  1  2  1  0
  2  3  1  0
  2 19  1  0
  3  4  1  0
  3  5  2  0
  5  6  1  0
  6  7  1  0
  6 19  1  0
  7  8  2  0
  7 18  1  0
  8  9  1  0
  9 10  2  0
 10 11  1  0
 11 12  1  0
 11 18  2  0
 12 13  2  0
 12 17  1  0
 13 14  1  0
 14 15  2  0
 15 16  1  0
 16 17  2  0
 19 20  2  0
  1 21  1  0
  1 22  1  0
  1 23  1  0
  4 24  1  0
  4 25  1  0
  5 26  1  0
  8 27  1  0
  9 28  1  0
 10 29  1  0
 13 30  1  0
 14 31  1  0
 15 32  1  0
 17 33  1  0
 18 34  1  0
 35 36  1  0
 36 37  2  0
 37 38  1  0
 38 39  2  0
 39 40  1  0
 40 41  1  0
 39 42  1  0
 42 43  2  0
 43 36  1  0
 35 44  1  0
 35 45  1  0
 37 46  1  0
 38 47  1  0
 41 48  1  0
 41 49  1  0
 41 50  1  0
 42 51  1  0
 43 52  1  0
  6 35  1  6
M  CHG  1   5   1
M  END
>  <attachment_point>  (156) 
26

>  <score>  (156) 
<NA>

$$$$
CAT-4j
     RDKit          3D

 47 50  0  0  1  0  0  0  0  0999 V2000
   11.7106   -2.3098    1.2658 C   0  0  0  0  0  0  0  0  0  0  0  0
   13.0313   -2.6523    0.7225 N   0  0  0  0  0  0  0  0  0  0  0  0
   14.2010   -2.6281    1.3773 C   0  0  0  0  0  0  0  0  0  0  0  0
   14.3777   -2.3568    2.6732 N   0  0  0  0  0  0  0  0  0  0  0  0
   15.2217   -2.9197    0.5738 N   0  0  0  0  0  0  0  0  0  0  0  0
   14.7965   -3.2519   -0.7875 C   0  0  1  0  0  0  0  0  0  0  0  0
   15.3794   -2.2443   -1.7949 C   0  0  0  0  0  0  0  0  0  0  0  0
   15.9522   -2.6550   -3.0208 C   0  0  0  0  0  0  0  0  0  0  0  0
   16.4340   -1.6937   -3.9273 C   0  0  0  0  0  0  0  0  0  0  0  0
   16.3364   -0.3224   -3.6308 C   0  0  0  0  0  0  0  0  0  0  0  0
   15.7943    0.1250   -2.4073 C   0  0  0  0  0  0  0  0  0  0  0  0
   15.6711    1.5693   -2.0915 C   0  0  0  0  0  0  0  0  0  0  0  0
   15.3832    2.0354   -0.7903 C   0  0  0  0  0  0  0  0  0  0  0  0
   15.3534    3.4188   -0.5357 C   0  0  0  0  0  0  0  0  0  0  0  0
   15.5968    4.3049   -1.5946 C   0  0  0  0  0  0  0  0  0  0  0  0
   15.8275    3.8920   -2.8511 N   0  0  0  0  0  0  0  0  0  0  0  0
   15.8598    2.5642   -3.0762 C   0  0  0  0  0  0  0  0  0  0  0  0
   15.3327   -0.8573   -1.5012 C   0  0  0  0  0  0  0  0  0  0  0  0
   13.2767   -3.0094   -0.6368 C   0  0  0  0  0  0  0  0  0  0  0  0
   12.3981   -3.0674   -1.5055 O   0  0  0  0  0  0  0  0  0  0  0  0
    0.0000    0.0000    0.0000 H   0  0  0  0  0  0  0  0  0  0  0  0
    0.0000    0.0000    0.0000 H   0  0  0  0  0  0  0  0  0  0  0  0
    0.0000    0.0000    0.0000 H   0  0  0  0  0  0  0  0  0  0  0  0
    0.0000    0.0000    0.0000 H   0  0  0  0  0  0  0  0  0  0  0  0
    0.0000    0.0000    0.0000 H   0  0  0  0  0  0  0  0  0  0  0  0
    0.0000    0.0000    0.0000 H   0  0  0  0  0  0  0  0  0  0  0  0
    0.0000    0.0000    0.0000 H   0  0  0  0  0  0  0  0  0  0  0  0
    0.0000    0.0000    0.0000 H   0  0  0  0  0  0  0  0  0  0  0  0
    0.0000    0.0000    0.0000 H   0  0  0  0  0  0  0  0  0  0  0  0
    0.0000    0.0000    0.0000 H   0  0  0  0  0  0  0  0  0  0  0  0
    0.0000    0.0000    0.0000 H   0  0  0  0  0  0  0  0  0  0  0  0
    0.0000    0.0000    0.0000 H   0  0  0  0  0  0  0  0  0  0  0  0
    0.0000    0.0000    0.0000 H   0  0  0  0  0  0  0  0  0  0  0  0
    0.0000    0.0000    0.0000 H   0  0  0  0  0  0  0  0  0  0  0  0
    7.0109   -1.5408   -0.3731 C   0  0  0  0  0  0  0  0  0  0  0  0
    6.2106   -2.7974   -0.3485 C   0  0  0  0  0  0  0  0  0  0  0  0
    5.8759   -3.4304    0.8333 C   0  0  0  0  0  0  0  0  0  0  0  0
    5.1336   -4.5962    0.8596 C   0  0  0  0  0  0  0  0  0  0  0  0
    4.6929   -5.1794   -0.3130 C   0  0  0  0  0  0  0  0  0  0  0  0
    5.0457   -4.5200   -1.4744 C   0  0  0  0  0  0  0  0  0  0  0  0
    5.7695   -3.3851   -1.4787 N   0  0  0  0  0  0  0  0  0  0  0  0
    6.8182   -0.9222    0.5477 H   0  0  0  0  0  0  0  0  0  0  0  0
    6.5807   -0.9285   -1.2120 H   0  0  0  0  0  0  0  0  0  0  0  0
    6.2300   -2.9584    1.7397 H   0  0  0  0  0  0  0  0  0  0  0  0
    4.8805   -5.0796    1.8042 H   0  0  0  0  0  0  0  0  0  0  0  0
    4.1103   -6.0930   -0.3090 H   0  0  0  0  0  0  0  0  0  0  0  0
    4.7022   -4.9723   -2.4132 H   0  0  0  0  0  0  0  0  0  0  0  0
  1  2  1  0
  2  3  1  0
  2 19  1  0
  3  4  1  0
  3  5  2  0
  5  6  1  0
  6  7  1  0
  6 19  1  0
  7  8  2  0
  7 18  1  0
  8  9  1  0
  9 10  2  0
 10 11  1  0
 11 12  1  0
 11 18  2  0
 12 13  2  0
 12 17  1  0
 13 14  1  0
 14 15  2  0
 15 16  1  0
 16 17  2  0
 19 20  2  0
  1 21  1  0
  1 22  1  0
  1 23  1  0
  4 24  1  0
  4 25  1  0
  5 26  1  0
  8 27  1  0
  9 28  1  0
 10 29  1  0
 13 30  1  0
 14 31  1  0
 15 32  1  0
 17 33  1  0
 18 34  1  0
 35 36  1  0
 36 37  2  0
 37 38  1  0
 38 39  2  0
 39 40  1  0
 40 41  2  0
 41 36  1  0
 35 42  1  0
 35 43  1  0
 37 44  1  0
 38 45  1  0
 39 46  1  0
 40 47  1  0
  6 35  1  6
M  CHG  1   5   1
M  END
>  <attachment_point>  (157) 
26

>  <score>  (157) 
<NA>

$$$$
CAT-4j
     RDKit          3D

 39 41  0  0  1  0  0  0  0  0999 V2000
   11.7106   -2.3098    1.2658 C   0  0  0  0  0  0  0  0  0  0  0  0
   13.0313   -2.6523    0.7225 N   0  0  0  0  0  0  0  0  0  0  0  0
   14.2010   -2.6281    1.3773 C   0  0  0  0  0  0  0  0  0  0  0  0
   14.3777   -2.3568    2.6732 N   0  0  0  0  0  0  0  0  0  0  0  0
   15.2217   -2.9197    0.5738 N   0  0  0  0  0  0  0  0  0  0  0  0
   14.7965   -3.2519   -0.7875 C   0  0  1  0  0  0  0  0  0  0  0  0
   15.3794   -2.2443   -1.7949 C   0  0  0  0  0  0  0  0  0  0  0  0
   15.9522   -2.6550   -3.0208 C   0  0  0  0  0  0  0  0  0  0  0  0
   16.4340   -1.6937   -3.9273 C   0  0  0  0  0  0  0  0  0  0  0  0
   16.3364   -0.3224   -3.6308 C   0  0  0  0  0  0  0  0  0  0  0  0
   15.7943    0.1250   -2.4073 C   0  0  0  0  0  0  0  0  0  0  0  0
   15.6711    1.5693   -2.0915 C   0  0  0  0  0  0  0  0  0  0  0  0
   15.3832    2.0354   -0.7903 C   0  0  0  0  0  0  0  0  0  0  0  0
   15.3534    3.4188   -0.5357 C   0  0  0  0  0  0  0  0  0  0  0  0
   15.5968    4.3049   -1.5946 C   0  0  0  0  0  0  0  0  0  0  0  0
   15.8275    3.8920   -2.8511 N   0  0  0  0  0  0  0  0  0  0  0  0
   15.8598    2.5642   -3.0762 C   0  0  0  0  0  0  0  0  0  0  0  0
   15.3327   -0.8573   -1.5012 C   0  0  0  0  0  0  0  0  0  0  0  0
   13.2767   -3.0094   -0.6368 C   0  0  0  0  0  0  0  0  0  0  0  0
   12.3981   -3.0674   -1.5055 O   0  0  0  0  0  0  0  0  0  0  0  0
    0.0000    0.0000    0.0000 H   0  0  0  0  0  0  0  0  0  0  0  0
    0.0000    0.0000    0.0000 H   0  0  0  0  0  0  0  0  0  0  0  0
    0.0000    0.0000    0.0000 H   0  0  0  0  0  0  0  0  0  0  0  0
    0.0000    0.0000    0.0000 H   0  0  0  0  0  0  0  0  0  0  0  0
    0.0000    0.0000    0.0000 H   0  0  0  0  0  0  0  0  0  0  0  0
    0.0000    0.0000    0.0000 H   0  0  0  0  0  0  0  0  0  0  0  0
    0.0000    0.0000    0.0000 H   0  0  0  0  0  0  0  0  0  0  0  0
    0.0000    0.0000    0.0000 H   0  0  0  0  0  0  0  0  0  0  0  0
    0.0000    0.0000    0.0000 H   0  0  0  0  0  0  0  0  0  0  0  0
    0.0000    0.0000    0.0000 H   0  0  0  0  0  0  0  0  0  0  0  0
    0.0000    0.0000    0.0000 H   0  0  0  0  0  0  0  0  0  0  0  0
    0.0000    0.0000    0.0000 H   0  0  0  0  0  0  0  0  0  0  0  0
    0.0000    0.0000    0.0000 H   0  0  0  0  0  0  0  0  0  0  0  0
    0.0000    0.0000    0.0000 H   0  0  0  0  0  0  0  0  0  0  0  0
    6.9971   -1.5378   -0.3724 C   0  0  0  0  0  0  0  0  0  0  0  0
    6.2081   -2.7703   -0.2634 C   0  0  0  0  0  0  0  0  0  0  0  0
    5.5767   -3.7376   -0.1942 N   0  0  0  0  0  0  0  0  0  0  0  0
    6.8664   -0.9260    0.5676 H   0  0  0  0  0  0  0  0  0  0  0  0
    6.5989   -0.9741   -1.2386 H   0  0  0  0  0  0  0  0  0  0  0  0
  1  2  1  0
  2  3  1  0
  2 19  1  0
  3  4  1  0
  3  5  2  0
  5  6  1  0
  6  7  1  0
  6 19  1  0
  7  8  2  0
  7 18  1  0
  8  9  1  0
  9 10  2  0
 10 11  1  0
 11 12  1  0
 11 18  2  0
 12 13  2  0
 12 17  1  0
 13 14  1  0
 14 15  2  0
 15 16  1  0
 16 17  2  0
 19 20  2  0
  1 21  1  0
  1 22  1  0
  1 23  1  0
  4 24  1  0
  4 25  1  0
  5 26  1  0
  8 27  1  0
  9 28  1  0
 10 29  1  0
 13 30  1  0
 14 31  1  0
 15 32  1  0
 17 33  1  0
 18 34  1  0
 35 36  1  0
 36 37  3  0
 35 38  1  0
 35 39  1  0
  6 35  1  6
M  CHG  1   5   1
M  END
>  <attachment_point>  (158) 
26

>  <score>  (158) 
<NA>

$$$$
CAT-4j
     RDKit          3D

 45 48  0  0  1  0  0  0  0  0999 V2000
   11.7106   -2.3098    1.2658 C   0  0  0  0  0  0  0  0  0  0  0  0
   13.0313   -2.6523    0.7225 N   0  0  0  0  0  0  0  0  0  0  0  0
   14.2010   -2.6281    1.3773 C   0  0  0  0  0  0  0  0  0  0  0  0
   14.3777   -2.3568    2.6732 N   0  0  0  0  0  0  0  0  0  0  0  0
   15.2217   -2.9197    0.5738 N   0  0  0  0  0  0  0  0  0  0  0  0
   14.7965   -3.2519   -0.7875 C   0  0  1  0  0  0  0  0  0  0  0  0
   15.3794   -2.2443   -1.7949 C   0  0  0  0  0  0  0  0  0  0  0  0
   15.9522   -2.6550   -3.0208 C   0  0  0  0  0  0  0  0  0  0  0  0
   16.4340   -1.6937   -3.9273 C   0  0  0  0  0  0  0  0  0  0  0  0
   16.3364   -0.3224   -3.6308 C   0  0  0  0  0  0  0  0  0  0  0  0
   15.7943    0.1250   -2.4073 C   0  0  0  0  0  0  0  0  0  0  0  0
   15.6711    1.5693   -2.0915 C   0  0  0  0  0  0  0  0  0  0  0  0
   15.3832    2.0354   -0.7903 C   0  0  0  0  0  0  0  0  0  0  0  0
   15.3534    3.4188   -0.5357 C   0  0  0  0  0  0  0  0  0  0  0  0
   15.5968    4.3049   -1.5946 C   0  0  0  0  0  0  0  0  0  0  0  0
   15.8275    3.8920   -2.8511 N   0  0  0  0  0  0  0  0  0  0  0  0
   15.8598    2.5642   -3.0762 C   0  0  0  0  0  0  0  0  0  0  0  0
   15.3327   -0.8573   -1.5012 C   0  0  0  0  0  0  0  0  0  0  0  0
   13.2767   -3.0094   -0.6368 C   0  0  0  0  0  0  0  0  0  0  0  0
   12.3981   -3.0674   -1.5055 O   0  0  0  0  0  0  0  0  0  0  0  0
    0.0000    0.0000    0.0000 H   0  0  0  0  0  0  0  0  0  0  0  0
    0.0000    0.0000    0.0000 H   0  0  0  0  0  0  0  0  0  0  0  0
    0.0000    0.0000    0.0000 H   0  0  0  0  0  0  0  0  0  0  0  0
    0.0000    0.0000    0.0000 H   0  0  0  0  0  0  0  0  0  0  0  0
    0.0000    0.0000    0.0000 H   0  0  0  0  0  0  0  0  0  0  0  0
    0.0000    0.0000    0.0000 H   0  0  0  0  0  0  0  0  0  0  0  0
    0.0000    0.0000    0.0000 H   0  0  0  0  0  0  0  0  0  0  0  0
    0.0000    0.0000    0.0000 H   0  0  0  0  0  0  0  0  0  0  0  0
    0.0000    0.0000    0.0000 H   0  0  0  0  0  0  0  0  0  0  0  0
    0.0000    0.0000    0.0000 H   0  0  0  0  0  0  0  0  0  0  0  0
    0.0000    0.0000    0.0000 H   0  0  0  0  0  0  0  0  0  0  0  0
    0.0000    0.0000    0.0000 H   0  0  0  0  0  0  0  0  0  0  0  0
    0.0000    0.0000    0.0000 H   0  0  0  0  0  0  0  0  0  0  0  0
    0.0000    0.0000    0.0000 H   0  0  0  0  0  0  0  0  0  0  0  0
    6.9954   -1.5374   -0.3723 C   0  0  0  0  0  0  0  0  0  0  0  0
    6.0925   -2.5793   -0.3091 C   0  0  0  0  0  0  0  0  0  0  0  0
    4.7333   -2.3216   -0.2363 C   0  0  0  0  0  0  0  0  0  0  0  0
    4.2907   -1.0111   -0.2276 C   0  0  0  0  0  0  0  0  0  0  0  0
    2.5699   -0.6364   -0.1362 Cl  0  0  0  0  0  0  0  0  0  0  0  0
    5.1683    0.0381   -0.2896 C   0  0  0  0  0  0  0  0  0  0  0  0
    4.6352    1.7143   -0.2803 Cl  0  0  0  0  0  0  0  0  0  0  0  0
    6.5152   -0.2270   -0.3615 C   0  0  0  0  0  0  0  0  0  0  0  0
    6.3770   -3.6217   -0.3121 H   0  0  0  0  0  0  0  0  0  0  0  0
    4.0073   -3.1222   -0.1859 H   0  0  0  0  0  0  0  0  0  0  0  0
    7.2080    0.6246   -0.4106 H   0  0  0  0  0  0  0  0  0  0  0  0
  1  2  1  0
  2  3  1  0
  2 19  1  0
  3  4  1  0
  3  5  2  0
  5  6  1  0
  6  7  1  1
  6 19  1  0
  7  8  2  0
  7 18  1  0
  8  9  1  0
  9 10  2  0
 10 11  1  0
 11 12  1  0
 11 18  2  0
 12 13  2  0
 12 17  1  0
 13 14  1  0
 14 15  2  0
 15 16  1  0
 16 17  2  0
 19 20  2  0
  1 21  1  0
  1 22  1  0
  1 23  1  0
  4 24  1  0
  4 25  1  0
  5 26  1  0
  8 27  1  0
  9 28  1  0
 10 29  1  0
 13 30  1  0
 14 31  1  0
 15 32  1  0
 17 33  1  0
 18 34  1  0
 35 36  2  0
 36 37  1  0
 37 38  2  0
 38 39  1  0
 38 40  1  0
 40 41  1  0
 40 42  2  0
 42 35  1  0
 36 43  1  0
 37 44  1  0
 42 45  1  0
  6 35  1  0
M  CHG  1   5   1
M  END
>  <attachment_point>  (159) 
26

>  <score>  (159) 
<NA>

$$$$
CAT-4j
     RDKit          3D

 53 56  0  0  1  0  0  0  0  0999 V2000
   11.7106   -2.3098    1.2658 C   0  0  0  0  0  0  0  0  0  0  0  0
   13.0313   -2.6523    0.7225 N   0  0  0  0  0  0  0  0  0  0  0  0
   14.2010   -2.6281    1.3773 C   0  0  0  0  0  0  0  0  0  0  0  0
   14.3777   -2.3568    2.6732 N   0  0  0  0  0  0  0  0  0  0  0  0
   15.2217   -2.9197    0.5738 N   0  0  0  0  0  0  0  0  0  0  0  0
   14.7965   -3.2519   -0.7875 C   0  0  1  0  0  0  0  0  0  0  0  0
   15.3794   -2.2443   -1.7949 C   0  0  0  0  0  0  0  0  0  0  0  0
   15.9522   -2.6550   -3.0208 C   0  0  0  0  0  0  0  0  0  0  0  0
   16.4340   -1.6937   -3.9273 C   0  0  0  0  0  0  0  0  0  0  0  0
   16.3364   -0.3224   -3.6308 C   0  0  0  0  0  0  0  0  0  0  0  0
   15.7943    0.1250   -2.4073 C   0  0  0  0  0  0  0  0  0  0  0  0
   15.6711    1.5693   -2.0915 C   0  0  0  0  0  0  0  0  0  0  0  0
   15.3832    2.0354   -0.7903 C   0  0  0  0  0  0  0  0  0  0  0  0
   15.3534    3.4188   -0.5357 C   0  0  0  0  0  0  0  0  0  0  0  0
   15.5968    4.3049   -1.5946 C   0  0  0  0  0  0  0  0  0  0  0  0
   15.8275    3.8920   -2.8511 N   0  0  0  0  0  0  0  0  0  0  0  0
   15.8598    2.5642   -3.0762 C   0  0  0  0  0  0  0  0  0  0  0  0
   15.3327   -0.8573   -1.5012 C   0  0  0  0  0  0  0  0  0  0  0  0
   13.2767   -3.0094   -0.6368 C   0  0  0  0  0  0  0  0  0  0  0  0
   12.3981   -3.0674   -1.5055 O   0  0  0  0  0  0  0  0  0  0  0  0
    0.0000    0.0000    0.0000 H   0  0  0  0  0  0  0  0  0  0  0  0
    0.0000    0.0000    0.0000 H   0  0  0  0  0  0  0  0  0  0  0  0
    0.0000    0.0000    0.0000 H   0  0  0  0  0  0  0  0  0  0  0  0
    0.0000    0.0000    0.0000 H   0  0  0  0  0  0  0  0  0  0  0  0
    0.0000    0.0000    0.0000 H   0  0  0  0  0  0  0  0  0  0  0  0
    0.0000    0.0000    0.0000 H   0  0  0  0  0  0  0  0  0  0  0  0
    0.0000    0.0000    0.0000 H   0  0  0  0  0  0  0  0  0  0  0  0
    0.0000    0.0000    0.0000 H   0  0  0  0  0  0  0  0  0  0  0  0
    0.0000    0.0000    0.0000 H   0  0  0  0  0  0  0  0  0  0  0  0
    0.0000    0.0000    0.0000 H   0  0  0  0  0  0  0  0  0  0  0  0
    0.0000    0.0000    0.0000 H   0  0  0  0  0  0  0  0  0  0  0  0
    0.0000    0.0000    0.0000 H   0  0  0  0  0  0  0  0  0  0  0  0
    0.0000    0.0000    0.0000 H   0  0  0  0  0  0  0  0  0  0  0  0
    0.0000    0.0000    0.0000 H   0  0  0  0  0  0  0  0  0  0  0  0
    6.9526   -1.5280   -0.3700 C   0  0  0  0  0  0  0  0  0  0  0  0
    6.4806   -0.3761   -0.9262 C   0  0  0  0  0  0  0  0  0  0  0  0
    5.1443   -0.0502   -0.8731 C   0  0  0  0  0  0  0  0  0  0  0  0
    4.2633   -0.9045   -0.2451 C   0  0  0  0  0  0  0  0  0  0  0  0
    2.9000   -0.5913   -0.1801 N   0  0  0  0  0  0  0  0  0  0  0  0
    2.4264    0.6404   -0.7803 C   0  0  0  0  0  0  0  0  0  0  0  0
    1.9955   -1.5098    0.4876 C   0  0  0  0  0  0  0  0  0  0  0  0
    4.7494   -2.0882    0.3262 C   0  0  0  0  0  0  0  0  0  0  0  0
    6.0950   -2.3762    0.2504 C   0  0  0  0  0  0  0  0  0  0  0  0
    7.1978    0.2828   -1.4171 H   0  0  0  0  0  0  0  0  0  0  0  0
    4.7912    0.8851   -1.3299 H   0  0  0  0  0  0  0  0  0  0  0  0
    1.3313    0.6768   -0.8316 H   0  0  0  0  0  0  0  0  0  0  0  0
    2.8723    1.5064   -0.2422 H   0  0  0  0  0  0  0  0  0  0  0  0
    2.7972    0.6783   -1.8329 H   0  0  0  0  0  0  0  0  0  0  0  0
    2.3913   -1.7572    1.4895 H   0  0  0  0  0  0  0  0  0  0  0  0
    0.9859   -1.0390    0.5912 H   0  0  0  0  0  0  0  0  0  0  0  0
    1.8319   -2.4268   -0.1208 H   0  0  0  0  0  0  0  0  0  0  0  0
    4.0474   -2.7665    0.8251 H   0  0  0  0  0  0  0  0  0  0  0  0
    6.5000   -3.2939    0.6884 H   0  0  0  0  0  0  0  0  0  0  0  0
  1  2  1  0
  2  3  1  0
  2 19  1  0
  3  4  1  0
  3  5  2  0
  5  6  1  0
  6  7  1  1
  6 19  1  0
  7  8  2  0
  7 18  1  0
  8  9  1  0
  9 10  2  0
 10 11  1  0
 11 12  1  0
 11 18  2  0
 12 13  2  0
 12 17  1  0
 13 14  1  0
 14 15  2  0
 15 16  1  0
 16 17  2  0
 19 20  2  0
  1 21  1  0
  1 22  1  0
  1 23  1  0
  4 24  1  0
  4 25  1  0
  5 26  1  0
  8 27  1  0
  9 28  1  0
 10 29  1  0
 13 30  1  0
 14 31  1  0
 15 32  1  0
 17 33  1  0
 18 34  1  0
 35 36  2  0
 36 37  1  0
 37 38  2  0
 38 39  1  0
 39 40  1  0
 39 41  1  0
 38 42  1  0
 42 43  2  0
 43 35  1  0
 36 44  1  0
 37 45  1  0
 40 46  1  0
 40 47  1  0
 40 48  1  0
 41 49  1  0
 41 50  1  0
 41 51  1  0
 42 52  1  0
 43 53  1  0
  6 35  1  0
M  CHG  1   5   1
M  END
>  <attachment_point>  (160) 
26

>  <score>  (160) 
<NA>

$$$$
CAT-4j
     RDKit          3D

 48 51  0  0  1  0  0  0  0  0999 V2000
   11.7106   -2.3098    1.2658 C   0  0  0  0  0  0  0  0  0  0  0  0
   13.0313   -2.6523    0.7225 N   0  0  0  0  0  0  0  0  0  0  0  0
   14.2010   -2.6281    1.3773 C   0  0  0  0  0  0  0  0  0  0  0  0
   14.3777   -2.3568    2.6732 N   0  0  0  0  0  0  0  0  0  0  0  0
   15.2217   -2.9197    0.5738 N   0  0  0  0  0  0  0  0  0  0  0  0
   14.7965   -3.2519   -0.7875 C   0  0  1  0  0  0  0  0  0  0  0  0
   15.3794   -2.2443   -1.7949 C   0  0  0  0  0  0  0  0  0  0  0  0
   15.9522   -2.6550   -3.0208 C   0  0  0  0  0  0  0  0  0  0  0  0
   16.4340   -1.6937   -3.9273 C   0  0  0  0  0  0  0  0  0  0  0  0
   16.3364   -0.3224   -3.6308 C   0  0  0  0  0  0  0  0  0  0  0  0
   15.7943    0.1250   -2.4073 C   0  0  0  0  0  0  0  0  0  0  0  0
   15.6711    1.5693   -2.0915 C   0  0  0  0  0  0  0  0  0  0  0  0
   15.3832    2.0354   -0.7903 C   0  0  0  0  0  0  0  0  0  0  0  0
   15.3534    3.4188   -0.5357 C   0  0  0  0  0  0  0  0  0  0  0  0
   15.5968    4.3049   -1.5946 C   0  0  0  0  0  0  0  0  0  0  0  0
   15.8275    3.8920   -2.8511 N   0  0  0  0  0  0  0  0  0  0  0  0
   15.8598    2.5642   -3.0762 C   0  0  0  0  0  0  0  0  0  0  0  0
   15.3327   -0.8573   -1.5012 C   0  0  0  0  0  0  0  0  0  0  0  0
   13.2767   -3.0094   -0.6368 C   0  0  0  0  0  0  0  0  0  0  0  0
   12.3981   -3.0674   -1.5055 O   0  0  0  0  0  0  0  0  0  0  0  0
    0.0000    0.0000    0.0000 H   0  0  0  0  0  0  0  0  0  0  0  0
    0.0000    0.0000    0.0000 H   0  0  0  0  0  0  0  0  0  0  0  0
    0.0000    0.0000    0.0000 H   0  0  0  0  0  0  0  0  0  0  0  0
    0.0000    0.0000    0.0000 H   0  0  0  0  0  0  0  0  0  0  0  0
    0.0000    0.0000    0.0000 H   0  0  0  0  0  0  0  0  0  0  0  0
    0.0000    0.0000    0.0000 H   0  0  0  0  0  0  0  0  0  0  0  0
    0.0000    0.0000    0.0000 H   0  0  0  0  0  0  0  0  0  0  0  0
    0.0000    0.0000    0.0000 H   0  0  0  0  0  0  0  0  0  0  0  0
    0.0000    0.0000    0.0000 H   0  0  0  0  0  0  0  0  0  0  0  0
    0.0000    0.0000    0.0000 H   0  0  0  0  0  0  0  0  0  0  0  0
    0.0000    0.0000    0.0000 H   0  0  0  0  0  0  0  0  0  0  0  0
    0.0000    0.0000    0.0000 H   0  0  0  0  0  0  0  0  0  0  0  0
    0.0000    0.0000    0.0000 H   0  0  0  0  0  0  0  0  0  0  0  0
    0.0000    0.0000    0.0000 H   0  0  0  0  0  0  0  0  0  0  0  0
    6.9612   -1.5299   -0.3705 S   0  0  0  0  0  6  0  0  0  0  0  0
    6.5407   -1.5880    1.0716 O   0  0  0  0  0  0  0  0  0  0  0  0
    6.2385   -2.5639   -1.1605 O   0  0  0  0  0  0  0  0  0  0  0  0
    6.7382    0.0831   -1.0060 C   0  0  0  0  0  0  0  0  0  0  0  0
    6.8006    1.1984   -0.1960 C   0  0  0  0  0  0  0  0  0  0  0  0
    6.6233    2.4769   -0.7027 C   0  0  0  0  0  0  0  0  0  0  0  0
    6.3774    2.6628   -2.0469 C   0  0  0  0  0  0  0  0  0  0  0  0
    6.3093    1.5637   -2.8832 C   0  0  0  0  0  0  0  0  0  0  0  0
    6.4885    0.3017   -2.3582 C   0  0  0  0  0  0  0  0  0  0  0  0
    6.9937    1.0622    0.8635 H   0  0  0  0  0  0  0  0  0  0  0  0
    6.6830    3.3181   -0.0190 H   0  0  0  0  0  0  0  0  0  0  0  0
    6.2352    3.6552   -2.4664 H   0  0  0  0  0  0  0  0  0  0  0  0
    6.1178    1.6676   -3.9461 H   0  0  0  0  0  0  0  0  0  0  0  0
    6.4322   -0.5524   -3.0279 H   0  0  0  0  0  0  0  0  0  0  0  0
  1  2  1  0
  2  3  1  0
  2 19  1  0
  3  4  1  0
  3  5  2  0
  5  6  1  0
  6  7  1  1
  6 19  1  0
  7  8  2  0
  7 18  1  0
  8  9  1  0
  9 10  2  0
 10 11  1  0
 11 12  1  0
 11 18  2  0
 12 13  2  0
 12 17  1  0
 13 14  1  0
 14 15  2  0
 15 16  1  0
 16 17  2  0
 19 20  2  0
  1 21  1  0
  1 22  1  0
  1 23  1  0
  4 24  1  0
  4 25  1  0
  5 26  1  0
  8 27  1  0
  9 28  1  0
 10 29  1  0
 13 30  1  0
 14 31  1  0
 15 32  1  0
 17 33  1  0
 18 34  1  0
 35 36  2  0
 35 37  2  0
 35 38  1  0
 38 39  2  0
 39 40  1  0
 40 41  2  0
 41 42  1  0
 42 43  2  0
 43 38  1  0
 39 44  1  0
 40 45  1  0
 41 46  1  0
 42 47  1  0
 43 48  1  0
  6 35  1  0
M  CHG  1   5   1
M  END
>  <attachment_point>  (161) 
26

>  <score>  (161) 
<NA>

$$$$
CAT-4j
     RDKit          3D

 45 47  0  0  1  0  0  0  0  0999 V2000
   11.7106   -2.3098    1.2658 C   0  0  0  0  0  0  0  0  0  0  0  0
   13.0313   -2.6523    0.7225 N   0  0  0  0  0  0  0  0  0  0  0  0
   14.2010   -2.6281    1.3773 C   0  0  0  0  0  0  0  0  0  0  0  0
   14.3777   -2.3568    2.6732 N   0  0  0  0  0  0  0  0  0  0  0  0
   15.2217   -2.9197    0.5738 N   0  0  0  0  0  0  0  0  0  0  0  0
   14.7965   -3.2519   -0.7875 C   0  0  1  0  0  0  0  0  0  0  0  0
   15.3794   -2.2443   -1.7949 C   0  0  0  0  0  0  0  0  0  0  0  0
   15.9522   -2.6550   -3.0208 C   0  0  0  0  0  0  0  0  0  0  0  0
   16.4340   -1.6937   -3.9273 C   0  0  0  0  0  0  0  0  0  0  0  0
   16.3364   -0.3224   -3.6308 C   0  0  0  0  0  0  0  0  0  0  0  0
   15.7943    0.1250   -2.4073 C   0  0  0  0  0  0  0  0  0  0  0  0
   15.6711    1.5693   -2.0915 C   0  0  0  0  0  0  0  0  0  0  0  0
   15.3832    2.0354   -0.7903 C   0  0  0  0  0  0  0  0  0  0  0  0
   15.3534    3.4188   -0.5357 C   0  0  0  0  0  0  0  0  0  0  0  0
   15.5968    4.3049   -1.5946 C   0  0  0  0  0  0  0  0  0  0  0  0
   15.8275    3.8920   -2.8511 N   0  0  0  0  0  0  0  0  0  0  0  0
   15.8598    2.5642   -3.0762 C   0  0  0  0  0  0  0  0  0  0  0  0
   15.3327   -0.8573   -1.5012 C   0  0  0  0  0  0  0  0  0  0  0  0
   13.2767   -3.0094   -0.6368 C   0  0  0  0  0  0  0  0  0  0  0  0
   12.3981   -3.0674   -1.5055 O   0  0  0  0  0  0  0  0  0  0  0  0
    0.0000    0.0000    0.0000 H   0  0  0  0  0  0  0  0  0  0  0  0
    0.0000    0.0000    0.0000 H   0  0  0  0  0  0  0  0  0  0  0  0
    0.0000    0.0000    0.0000 H   0  0  0  0  0  0  0  0  0  0  0  0
    0.0000    0.0000    0.0000 H   0  0  0  0  0  0  0  0  0  0  0  0
    0.0000    0.0000    0.0000 H   0  0  0  0  0  0  0  0  0  0  0  0
    0.0000    0.0000    0.0000 H   0  0  0  0  0  0  0  0  0  0  0  0
    0.0000    0.0000    0.0000 H   0  0  0  0  0  0  0  0  0  0  0  0
    0.0000    0.0000    0.0000 H   0  0  0  0  0  0  0  0  0  0  0  0
    0.0000    0.0000    0.0000 H   0  0  0  0  0  0  0  0  0  0  0  0
    0.0000    0.0000    0.0000 H   0  0  0  0  0  0  0  0  0  0  0  0
    0.0000    0.0000    0.0000 H   0  0  0  0  0  0  0  0  0  0  0  0
    0.0000    0.0000    0.0000 H   0  0  0  0  0  0  0  0  0  0  0  0
    0.0000    0.0000    0.0000 H   0  0  0  0  0  0  0  0  0  0  0  0
    0.0000    0.0000    0.0000 H   0  0  0  0  0  0  0  0  0  0  0  0
    6.9933   -1.5370   -0.3722 C   0  0  0  0  0  0  0  0  0  0  0  0
    6.8605   -0.1616    0.0960 N   0  0  0  0  0  0  0  0  0  0  0  0
    5.5849    0.4229    0.2680 C   0  0  0  0  0  0  0  0  0  0  0  0
    5.4817    1.8175    0.7434 C   0  0  0  0  0  0  0  0  0  0  0  0
    4.5522   -0.2333    0.0206 O   0  0  0  0  0  0  0  0  0  0  0  0
    6.5614   -2.2287    0.3924 H   0  0  0  0  0  0  0  0  0  0  0  0
    6.4960   -1.6338   -1.3575 H   0  0  0  0  0  0  0  0  0  0  0  0
    7.7199    0.4239    0.3154 H   0  0  0  0  0  0  0  0  0  0  0  0
    6.4595    2.2901    0.9105 H   0  0  0  0  0  0  0  0  0  0  0  0
    4.9494    1.8175    1.7194 H   0  0  0  0  0  0  0  0  0  0  0  0
    4.9054    2.4468    0.0289 H   0  0  0  0  0  0  0  0  0  0  0  0
  1  2  1  0
  2  3  1  0
  2 19  1  0
  3  4  1  0
  3  5  2  0
  5  6  1  0
  6  7  1  0
  6 19  1  0
  7  8  2  0
  7 18  1  0
  8  9  1  0
  9 10  2  0
 10 11  1  0
 11 12  1  0
 11 18  2  0
 12 13  2  0
 12 17  1  0
 13 14  1  0
 14 15  2  0
 15 16  1  0
 16 17  2  0
 19 20  2  0
  1 21  1  0
  1 22  1  0
  1 23  1  0
  4 24  1  0
  4 25  1  0
  5 26  1  0
  8 27  1  0
  9 28  1  0
 10 29  1  0
 13 30  1  0
 14 31  1  0
 15 32  1  0
 17 33  1  0
 18 34  1  0
 35 36  1  0
 36 37  1  0
 37 38  1  0
 37 39  2  0
 35 40  1  0
 35 41  1  0
 36 42  1  0
 38 43  1  0
 38 44  1  0
 38 45  1  0
  6 35  1  6
M  CHG  1   5   1
M  END
>  <attachment_point>  (162) 
26

>  <score>  (162) 
<NA>

$$$$
CAT-4j
     RDKit          3D

 36 38  0  0  1  0  0  0  0  0999 V2000
   11.7106   -2.3098    1.2658 C   0  0  0  0  0  0  0  0  0  0  0  0
   13.0313   -2.6523    0.7225 N   0  0  0  0  0  0  0  0  0  0  0  0
   14.2010   -2.6281    1.3773 C   0  0  0  0  0  0  0  0  0  0  0  0
   14.3777   -2.3568    2.6732 N   0  0  0  0  0  0  0  0  0  0  0  0
   15.2217   -2.9197    0.5738 N   0  0  0  0  0  0  0  0  0  0  0  0
   14.7965   -3.2519   -0.7875 C   0  0  1  0  0  0  0  0  0  0  0  0
   15.3794   -2.2443   -1.7949 C   0  0  0  0  0  0  0  0  0  0  0  0
   15.9522   -2.6550   -3.0208 C   0  0  0  0  0  0  0  0  0  0  0  0
   16.4340   -1.6937   -3.9273 C   0  0  0  0  0  0  0  0  0  0  0  0
   16.3364   -0.3224   -3.6308 C   0  0  0  0  0  0  0  0  0  0  0  0
   15.7943    0.1250   -2.4073 C   0  0  0  0  0  0  0  0  0  0  0  0
   15.6711    1.5693   -2.0915 C   0  0  0  0  0  0  0  0  0  0  0  0
   15.3832    2.0354   -0.7903 C   0  0  0  0  0  0  0  0  0  0  0  0
   15.3534    3.4188   -0.5357 C   0  0  0  0  0  0  0  0  0  0  0  0
   15.5968    4.3049   -1.5946 C   0  0  0  0  0  0  0  0  0  0  0  0
   15.8275    3.8920   -2.8511 N   0  0  0  0  0  0  0  0  0  0  0  0
   15.8598    2.5642   -3.0762 C   0  0  0  0  0  0  0  0  0  0  0  0
   15.3327   -0.8573   -1.5012 C   0  0  0  0  0  0  0  0  0  0  0  0
   13.2767   -3.0094   -0.6368 C   0  0  0  0  0  0  0  0  0  0  0  0
   12.3981   -3.0674   -1.5055 O   0  0  0  0  0  0  0  0  0  0  0  0
    0.0000    0.0000    0.0000 H   0  0  0  0  0  0  0  0  0  0  0  0
    0.0000    0.0000    0.0000 H   0  0  0  0  0  0  0  0  0  0  0  0
    0.0000    0.0000    0.0000 H   0  0  0  0  0  0  0  0  0  0  0  0
    0.0000    0.0000    0.0000 H   0  0  0  0  0  0  0  0  0  0  0  0
    0.0000    0.0000    0.0000 H   0  0  0  0  0  0  0  0  0  0  0  0
    0.0000    0.0000    0.0000 H   0  0  0  0  0  0  0  0  0  0  0  0
    0.0000    0.0000    0.0000 H   0  0  0  0  0  0  0  0  0  0  0  0
    0.0000    0.0000    0.0000 H   0  0  0  0  0  0  0  0  0  0  0  0
    0.0000    0.0000    0.0000 H   0  0  0  0  0  0  0  0  0  0  0  0
    0.0000    0.0000    0.0000 H   0  0  0  0  0  0  0  0  0  0  0  0
    0.0000    0.0000    0.0000 H   0  0  0  0  0  0  0  0  0  0  0  0
    0.0000    0.0000    0.0000 H   0  0  0  0  0  0  0  0  0  0  0  0
    0.0000    0.0000    0.0000 H   0  0  0  0  0  0  0  0  0  0  0  0
    0.0000    0.0000    0.0000 H   0  0  0  0  0  0  0  0  0  0  0  0
    7.0960   -1.5595   -0.3777 S   0  0  0  0  0  0  0  0  0  0  0  0
    5.9224   -2.3345   -0.2923 H   0  0  0  0  0  0  0  0  0  0  0  0
  1  2  1  0
  2  3  1  0
  2 19  1  0
  3  4  1  0
  3  5  2  0
  5  6  1  0
  6  7  1  0
  6 19  1  0
  7  8  2  0
  7 18  1  0
  8  9  1  0
  9 10  2  0
 10 11  1  0
 11 12  1  0
 11 18  2  0
 12 13  2  0
 12 17  1  0
 13 14  1  0
 14 15  2  0
 15 16  1  0
 16 17  2  0
 19 20  2  0
  1 21  1  0
  1 22  1  0
  1 23  1  0
  4 24  1  0
  4 25  1  0
  5 26  1  0
  8 27  1  0
  9 28  1  0
 10 29  1  0
 13 30  1  0
 14 31  1  0
 15 32  1  0
 17 33  1  0
 18 34  1  0
 35 36  1  0
  6 35  1  6
M  CHG  1   5   1
M  END
>  <attachment_point>  (163) 
26

>  <score>  (163) 
<NA>

$$$$
CAT-4j
     RDKit          3D

 53 56  0  0  1  0  0  0  0  0999 V2000
   11.7106   -2.3098    1.2658 C   0  0  0  0  0  0  0  0  0  0  0  0
   13.0313   -2.6523    0.7225 N   0  0  0  0  0  0  0  0  0  0  0  0
   14.2010   -2.6281    1.3773 C   0  0  0  0  0  0  0  0  0  0  0  0
   14.3777   -2.3568    2.6732 N   0  0  0  0  0  0  0  0  0  0  0  0
   15.2217   -2.9197    0.5738 N   0  0  0  0  0  0  0  0  0  0  0  0
   14.7965   -3.2519   -0.7875 C   0  0  1  0  0  0  0  0  0  0  0  0
   15.3794   -2.2443   -1.7949 C   0  0  0  0  0  0  0  0  0  0  0  0
   15.9522   -2.6550   -3.0208 C   0  0  0  0  0  0  0  0  0  0  0  0
   16.4340   -1.6937   -3.9273 C   0  0  0  0  0  0  0  0  0  0  0  0
   16.3364   -0.3224   -3.6308 C   0  0  0  0  0  0  0  0  0  0  0  0
   15.7943    0.1250   -2.4073 C   0  0  0  0  0  0  0  0  0  0  0  0
   15.6711    1.5693   -2.0915 C   0  0  0  0  0  0  0  0  0  0  0  0
   15.3832    2.0354   -0.7903 C   0  0  0  0  0  0  0  0  0  0  0  0
   15.3534    3.4188   -0.5357 C   0  0  0  0  0  0  0  0  0  0  0  0
   15.5968    4.3049   -1.5946 C   0  0  0  0  0  0  0  0  0  0  0  0
   15.8275    3.8920   -2.8511 N   0  0  0  0  0  0  0  0  0  0  0  0
   15.8598    2.5642   -3.0762 C   0  0  0  0  0  0  0  0  0  0  0  0
   15.3327   -0.8573   -1.5012 C   0  0  0  0  0  0  0  0  0  0  0  0
   13.2767   -3.0094   -0.6368 C   0  0  0  0  0  0  0  0  0  0  0  0
   12.3981   -3.0674   -1.5055 O   0  0  0  0  0  0  0  0  0  0  0  0
    0.0000    0.0000    0.0000 H   0  0  0  0  0  0  0  0  0  0  0  0
    0.0000    0.0000    0.0000 H   0  0  0  0  0  0  0  0  0  0  0  0
    0.0000    0.0000    0.0000 H   0  0  0  0  0  0  0  0  0  0  0  0
    0.0000    0.0000    0.0000 H   0  0  0  0  0  0  0  0  0  0  0  0
    0.0000    0.0000    0.0000 H   0  0  0  0  0  0  0  0  0  0  0  0
    0.0000    0.0000    0.0000 H   0  0  0  0  0  0  0  0  0  0  0  0
    0.0000    0.0000    0.0000 H   0  0  0  0  0  0  0  0  0  0  0  0
    0.0000    0.0000    0.0000 H   0  0  0  0  0  0  0  0  0  0  0  0
    0.0000    0.0000    0.0000 H   0  0  0  0  0  0  0  0  0  0  0  0
    0.0000    0.0000    0.0000 H   0  0  0  0  0  0  0  0  0  0  0  0
    0.0000    0.0000    0.0000 H   0  0  0  0  0  0  0  0  0  0  0  0
    0.0000    0.0000    0.0000 H   0  0  0  0  0  0  0  0  0  0  0  0
    0.0000    0.0000    0.0000 H   0  0  0  0  0  0  0  0  0  0  0  0
    0.0000    0.0000    0.0000 H   0  0  0  0  0  0  0  0  0  0  0  0
    7.0879   -1.5577   -0.3772 N   0  0  0  0  0  0  0  0  0  0  0  0
    6.0754   -1.7717   -1.3889 C   0  0  0  0  0  0  0  0  0  0  0  0
    5.9430   -3.2296   -1.7619 C   0  0  0  0  0  0  0  0  0  0  0  0
    7.1812   -3.8012   -2.2974 C   0  0  0  0  0  0  0  0  0  0  0  0
    7.4600   -3.7719   -3.6581 C   0  0  0  0  0  0  0  0  0  0  0  0
    8.6422   -4.3246   -4.1148 C   0  0  0  0  0  0  0  0  0  0  0  0
    9.5646   -4.9090   -3.2682 C   0  0  0  0  0  0  0  0  0  0  0  0
    9.2496   -4.9176   -1.9230 C   0  0  0  0  0  0  0  0  0  0  0  0
    8.0942   -4.3838   -1.4266 C   0  0  0  0  0  0  0  0  0  0  0  0
    6.8057   -0.6632    0.1263 H   0  0  0  0  0  0  0  0  0  0  0  0
    6.3444   -1.1691   -2.2740 H   0  0  0  0  0  0  0  0  0  0  0  0
    5.1059   -1.3881   -1.0125 H   0  0  0  0  0  0  0  0  0  0  0  0
    5.1122   -3.3162   -2.4857 H   0  0  0  0  0  0  0  0  0  0  0  0
    5.6719   -3.7965   -0.8442 H   0  0  0  0  0  0  0  0  0  0  0  0
    6.7345   -3.3122   -4.3241 H   0  0  0  0  0  0  0  0  0  0  0  0
    8.8429   -4.2915   -5.1895 H   0  0  0  0  0  0  0  0  0  0  0  0
   10.4974   -5.3424   -3.6501 H   0  0  0  0  0  0  0  0  0  0  0  0
    9.9770   -5.3796   -1.2467 H   0  0  0  0  0  0  0  0  0  0  0  0
    7.8727   -4.4065   -0.3487 H   0  0  0  0  0  0  0  0  0  0  0  0
  1  2  1  0
  2  3  1  0
  2 19  1  0
  3  4  1  0
  3  5  2  0
  5  6  1  0
  6  7  1  0
  6 19  1  0
  7  8  2  0
  7 18  1  0
  8  9  1  0
  9 10  2  0
 10 11  1  0
 11 12  1  0
 11 18  2  0
 12 13  2  0
 12 17  1  0
 13 14  1  0
 14 15  2  0
 15 16  1  0
 16 17  2  0
 19 20  2  0
  1 21  1  0
  1 22  1  0
  1 23  1  0
  4 24  1  0
  4 25  1  0
  5 26  1  0
  8 27  1  0
  9 28  1  0
 10 29  1  0
 13 30  1  0
 14 31  1  0
 15 32  1  0
 17 33  1  0
 18 34  1  0
 35 36  1  0
 36 37  1  0
 37 38  1  0
 38 39  2  0
 39 40  1  0
 40 41  2  0
 41 42  1  0
 42 43  2  0
 43 38  1  0
 35 44  1  0
 36 45  1  0
 36 46  1  0
 37 47  1  0
 37 48  1  0
 39 49  1  0
 40 50  1  0
 41 51  1  0
 42 52  1  0
 43 53  1  0
  6 35  1  6
M  CHG  1   5   1
M  END
>  <attachment_point>  (164) 
26

>  <score>  (164) 
<NA>

$$$$
CAT-4j
     RDKit          3D

 54 57  0  0  1  0  0  0  0  0999 V2000
   11.7106   -2.3098    1.2658 C   0  0  0  0  0  0  0  0  0  0  0  0
   13.0313   -2.6523    0.7225 N   0  0  0  0  0  0  0  0  0  0  0  0
   14.2010   -2.6281    1.3773 C   0  0  0  0  0  0  0  0  0  0  0  0
   14.3777   -2.3568    2.6732 N   0  0  0  0  0  0  0  0  0  0  0  0
   15.2217   -2.9197    0.5738 N   0  0  0  0  0  0  0  0  0  0  0  0
   14.7965   -3.2519   -0.7875 C   0  0  1  0  0  0  0  0  0  0  0  0
   15.3794   -2.2443   -1.7949 C   0  0  0  0  0  0  0  0  0  0  0  0
   15.9522   -2.6550   -3.0208 C   0  0  0  0  0  0  0  0  0  0  0  0
   16.4340   -1.6937   -3.9273 C   0  0  0  0  0  0  0  0  0  0  0  0
   16.3364   -0.3224   -3.6308 C   0  0  0  0  0  0  0  0  0  0  0  0
   15.7943    0.1250   -2.4073 C   0  0  0  0  0  0  0  0  0  0  0  0
   15.6711    1.5693   -2.0915 C   0  0  0  0  0  0  0  0  0  0  0  0
   15.3832    2.0354   -0.7903 C   0  0  0  0  0  0  0  0  0  0  0  0
   15.3534    3.4188   -0.5357 C   0  0  0  0  0  0  0  0  0  0  0  0
   15.5968    4.3049   -1.5946 C   0  0  0  0  0  0  0  0  0  0  0  0
   15.8275    3.8920   -2.8511 N   0  0  0  0  0  0  0  0  0  0  0  0
   15.8598    2.5642   -3.0762 C   0  0  0  0  0  0  0  0  0  0  0  0
   15.3327   -0.8573   -1.5012 C   0  0  0  0  0  0  0  0  0  0  0  0
   13.2767   -3.0094   -0.6368 C   0  0  0  0  0  0  0  0  0  0  0  0
   12.3981   -3.0674   -1.5055 O   0  0  0  0  0  0  0  0  0  0  0  0
    0.0000    0.0000    0.0000 H   0  0  0  0  0  0  0  0  0  0  0  0
    0.0000    0.0000    0.0000 H   0  0  0  0  0  0  0  0  0  0  0  0
    0.0000    0.0000    0.0000 H   0  0  0  0  0  0  0  0  0  0  0  0
    0.0000    0.0000    0.0000 H   0  0  0  0  0  0  0  0  0  0  0  0
    0.0000    0.0000    0.0000 H   0  0  0  0  0  0  0  0  0  0  0  0
    0.0000    0.0000    0.0000 H   0  0  0  0  0  0  0  0  0  0  0  0
    0.0000    0.0000    0.0000 H   0  0  0  0  0  0  0  0  0  0  0  0
    0.0000    0.0000    0.0000 H   0  0  0  0  0  0  0  0  0  0  0  0
    0.0000    0.0000    0.0000 H   0  0  0  0  0  0  0  0  0  0  0  0
    0.0000    0.0000    0.0000 H   0  0  0  0  0  0  0  0  0  0  0  0
    0.0000    0.0000    0.0000 H   0  0  0  0  0  0  0  0  0  0  0  0
    0.0000    0.0000    0.0000 H   0  0  0  0  0  0  0  0  0  0  0  0
    0.0000    0.0000    0.0000 H   0  0  0  0  0  0  0  0  0  0  0  0
    0.0000    0.0000    0.0000 H   0  0  0  0  0  0  0  0  0  0  0  0
    6.9642   -1.5306   -0.3707 O   0  0  0  0  0  0  0  0  0  0  0  0
    7.1072   -0.1277   -0.4866 C   0  0  0  0  0  0  0  0  0  0  0  0
    5.7283    0.5176   -0.4390 C   0  0  0  0  0  0  0  0  0  0  0  0
    5.9125    1.9314   -0.5589 N   0  0  0  0  0  0  0  0  0  0  0  0
    4.7108    2.6989   -0.5330 C   0  0  0  0  0  0  0  0  0  0  0  0
    4.7874    3.6004    0.6767 C   0  0  0  0  0  0  0  0  0  0  0  0
    6.2879    3.8124    0.7708 C   0  0  0  0  0  0  0  0  0  0  0  0
    6.7647    2.3808    0.5085 C   0  0  0  0  0  0  0  0  0  0  0  0
    7.6076    0.0414   -1.4620 H   0  0  0  0  0  0  0  0  0  0  0  0
    7.7566    0.2374    0.3028 H   0  0  0  0  0  0  0  0  0  0  0  0
    5.3492    0.3105    0.6045 H   0  0  0  0  0  0  0  0  0  0  0  0
    5.0383    0.0712   -1.1586 H   0  0  0  0  0  0  0  0  0  0  0  0
    3.7861    2.0980   -0.5631 H   0  0  0  0  0  0  0  0  0  0  0  0
    4.7331    3.3787   -1.4303 H   0  0  0  0  0  0  0  0  0  0  0  0
    4.2679    4.5638    0.5197 H   0  0  0  0  0  0  0  0  0  0  0  0
    4.4731    3.0807    1.6007 H   0  0  0  0  0  0  0  0  0  0  0  0
    6.6061    4.1556    1.7625 H   0  0  0  0  0  0  0  0  0  0  0  0
    6.6721    4.4207   -0.0637 H   0  0  0  0  0  0  0  0  0  0  0  0
    7.8240    2.3295    0.2620 H   0  0  0  0  0  0  0  0  0  0  0  0
    6.5498    1.7754    1.4298 H   0  0  0  0  0  0  0  0  0  0  0  0
  1  2  1  0
  2  3  1  0
  2 19  1  0
  3  4  1  0
  3  5  2  0
  5  6  1  0
  6  7  1  0
  6 19  1  0
  7  8  2  0
  7 18  1  0
  8  9  1  0
  9 10  2  0
 10 11  1  0
 11 12  1  0
 11 18  2  0
 12 13  2  0
 12 17  1  0
 13 14  1  0
 14 15  2  0
 15 16  1  0
 16 17  2  0
 19 20  2  0
  1 21  1  0
  1 22  1  0
  1 23  1  0
  4 24  1  0
  4 25  1  0
  5 26  1  0
  8 27  1  0
  9 28  1  0
 10 29  1  0
 13 30  1  0
 14 31  1  0
 15 32  1  0
 17 33  1  0
 18 34  1  0
 35 36  1  0
 36 37  1  0
 37 38  1  0
 38 39  1  0
 39 40  1  0
 40 41  1  0
 41 42  1  0
 42 38  1  0
 36 43  1  0
 36 44  1  0
 37 45  1  0
 37 46  1  0
 39 47  1  0
 39 48  1  0
 40 49  1  0
 40 50  1  0
 41 51  1  0
 41 52  1  0
 42 53  1  0
 42 54  1  0
  6 35  1  6
M  CHG  1   5   1
M  END
>  <attachment_point>  (165) 
26

>  <score>  (165) 
<NA>

$$$$
CAT-4j
     RDKit          3D

 45 47  0  0  1  0  0  0  0  0999 V2000
   11.7106   -2.3098    1.2658 C   0  0  0  0  0  0  0  0  0  0  0  0
   13.0313   -2.6523    0.7225 N   0  0  0  0  0  0  0  0  0  0  0  0
   14.2010   -2.6281    1.3773 C   0  0  0  0  0  0  0  0  0  0  0  0
   14.3777   -2.3568    2.6732 N   0  0  0  0  0  0  0  0  0  0  0  0
   15.2217   -2.9197    0.5738 N   0  0  0  0  0  0  0  0  0  0  0  0
   14.7965   -3.2519   -0.7875 C   0  0  1  0  0  0  0  0  0  0  0  0
   15.3794   -2.2443   -1.7949 C   0  0  0  0  0  0  0  0  0  0  0  0
   15.9522   -2.6550   -3.0208 C   0  0  0  0  0  0  0  0  0  0  0  0
   16.4340   -1.6937   -3.9273 C   0  0  0  0  0  0  0  0  0  0  0  0
   16.3364   -0.3224   -3.6308 C   0  0  0  0  0  0  0  0  0  0  0  0
   15.7943    0.1250   -2.4073 C   0  0  0  0  0  0  0  0  0  0  0  0
   15.6711    1.5693   -2.0915 C   0  0  0  0  0  0  0  0  0  0  0  0
   15.3832    2.0354   -0.7903 C   0  0  0  0  0  0  0  0  0  0  0  0
   15.3534    3.4188   -0.5357 C   0  0  0  0  0  0  0  0  0  0  0  0
   15.5968    4.3049   -1.5946 C   0  0  0  0  0  0  0  0  0  0  0  0
   15.8275    3.8920   -2.8511 N   0  0  0  0  0  0  0  0  0  0  0  0
   15.8598    2.5642   -3.0762 C   0  0  0  0  0  0  0  0  0  0  0  0
   15.3327   -0.8573   -1.5012 C   0  0  0  0  0  0  0  0  0  0  0  0
   13.2767   -3.0094   -0.6368 C   0  0  0  0  0  0  0  0  0  0  0  0
   12.3981   -3.0674   -1.5055 O   0  0  0  0  0  0  0  0  0  0  0  0
    0.0000    0.0000    0.0000 H   0  0  0  0  0  0  0  0  0  0  0  0
    0.0000    0.0000    0.0000 H   0  0  0  0  0  0  0  0  0  0  0  0
    0.0000    0.0000    0.0000 H   0  0  0  0  0  0  0  0  0  0  0  0
    0.0000    0.0000    0.0000 H   0  0  0  0  0  0  0  0  0  0  0  0
    0.0000    0.0000    0.0000 H   0  0  0  0  0  0  0  0  0  0  0  0
    0.0000    0.0000    0.0000 H   0  0  0  0  0  0  0  0  0  0  0  0
    0.0000    0.0000    0.0000 H   0  0  0  0  0  0  0  0  0  0  0  0
    0.0000    0.0000    0.0000 H   0  0  0  0  0  0  0  0  0  0  0  0
    0.0000    0.0000    0.0000 H   0  0  0  0  0  0  0  0  0  0  0  0
    0.0000    0.0000    0.0000 H   0  0  0  0  0  0  0  0  0  0  0  0
    0.0000    0.0000    0.0000 H   0  0  0  0  0  0  0  0  0  0  0  0
    0.0000    0.0000    0.0000 H   0  0  0  0  0  0  0  0  0  0  0  0
    0.0000    0.0000    0.0000 H   0  0  0  0  0  0  0  0  0  0  0  0
    0.0000    0.0000    0.0000 H   0  0  0  0  0  0  0  0  0  0  0  0
    6.9375   -1.5247   -0.3692 C   0  0  0  0  0  0  0  0  0  0  0  0
    6.3653   -2.6842    0.4076 C   0  0  0  0  0  0  0  0  0  0  0  0
    5.0154   -2.6014    0.6029 O   0  0  0  0  0  0  0  0  0  0  0  0
    4.3055   -2.5652   -0.5918 C   0  0  0  0  0  0  0  0  0  0  0  0
    6.6463   -1.4978   -1.4165 H   0  0  0  0  0  0  0  0  0  0  0  0
    6.8605   -0.5802    0.1752 H   0  0  0  0  0  0  0  0  0  0  0  0
    6.6410   -3.6618   -0.0117 H   0  0  0  0  0  0  0  0  0  0  0  0
    6.8508   -2.6426    1.4221 H   0  0  0  0  0  0  0  0  0  0  0  0
    4.6296   -1.6788   -1.1679 H   0  0  0  0  0  0  0  0  0  0  0  0
    4.4757   -3.4869   -1.1881 H   0  0  0  0  0  0  0  0  0  0  0  0
    3.2249   -2.3996   -0.3630 H   0  0  0  0  0  0  0  0  0  0  0  0
  1  2  1  0
  2  3  1  0
  2 19  1  0
  3  4  1  0
  3  5  2  0
  5  6  1  0
  6  7  1  0
  6 19  1  0
  7  8  2  0
  7 18  1  0
  8  9  1  0
  9 10  2  0
 10 11  1  0
 11 12  1  0
 11 18  2  0
 12 13  2  0
 12 17  1  0
 13 14  1  0
 14 15  2  0
 15 16  1  0
 16 17  2  0
 19 20  2  0
  1 21  1  0
  1 22  1  0
  1 23  1  0
  4 24  1  0
  4 25  1  0
  5 26  1  0
  8 27  1  0
  9 28  1  0
 10 29  1  0
 13 30  1  0
 14 31  1  0
 15 32  1  0
 17 33  1  0
 18 34  1  0
 35 36  1  0
 36 37  1  0
 37 38  1  0
 35 39  1  0
 35 40  1  0
 36 41  1  0
 36 42  1  0
 38 43  1  0
 38 44  1  0
 38 45  1  0
  6 35  1  6
M  CHG  1   5   1
M  END
>  <attachment_point>  (166) 
26

>  <score>  (166) 
<NA>

$$$$
CAT-4j
     RDKit          3D

 53 56  0  0  1  0  0  0  0  0999 V2000
   11.7106   -2.3098    1.2658 C   0  0  0  0  0  0  0  0  0  0  0  0
   13.0313   -2.6523    0.7225 N   0  0  0  0  0  0  0  0  0  0  0  0
   14.2010   -2.6281    1.3773 C   0  0  0  0  0  0  0  0  0  0  0  0
   14.3777   -2.3568    2.6732 N   0  0  0  0  0  0  0  0  0  0  0  0
   15.2217   -2.9197    0.5738 N   0  0  0  0  0  0  0  0  0  0  0  0
   14.7965   -3.2519   -0.7875 C   0  0  1  0  0  0  0  0  0  0  0  0
   15.3794   -2.2443   -1.7949 C   0  0  0  0  0  0  0  0  0  0  0  0
   15.9522   -2.6550   -3.0208 C   0  0  0  0  0  0  0  0  0  0  0  0
   16.4340   -1.6937   -3.9273 C   0  0  0  0  0  0  0  0  0  0  0  0
   16.3364   -0.3224   -3.6308 C   0  0  0  0  0  0  0  0  0  0  0  0
   15.7943    0.1250   -2.4073 C   0  0  0  0  0  0  0  0  0  0  0  0
   15.6711    1.5693   -2.0915 C   0  0  0  0  0  0  0  0  0  0  0  0
   15.3832    2.0354   -0.7903 C   0  0  0  0  0  0  0  0  0  0  0  0
   15.3534    3.4188   -0.5357 C   0  0  0  0  0  0  0  0  0  0  0  0
   15.5968    4.3049   -1.5946 C   0  0  0  0  0  0  0  0  0  0  0  0
   15.8275    3.8920   -2.8511 N   0  0  0  0  0  0  0  0  0  0  0  0
   15.8598    2.5642   -3.0762 C   0  0  0  0  0  0  0  0  0  0  0  0
   15.3327   -0.8573   -1.5012 C   0  0  0  0  0  0  0  0  0  0  0  0
   13.2767   -3.0094   -0.6368 C   0  0  0  0  0  0  0  0  0  0  0  0
   12.3981   -3.0674   -1.5055 O   0  0  0  0  0  0  0  0  0  0  0  0
    0.0000    0.0000    0.0000 H   0  0  0  0  0  0  0  0  0  0  0  0
    0.0000    0.0000    0.0000 H   0  0  0  0  0  0  0  0  0  0  0  0
    0.0000    0.0000    0.0000 H   0  0  0  0  0  0  0  0  0  0  0  0
    0.0000    0.0000    0.0000 H   0  0  0  0  0  0  0  0  0  0  0  0
    0.0000    0.0000    0.0000 H   0  0  0  0  0  0  0  0  0  0  0  0
    0.0000    0.0000    0.0000 H   0  0  0  0  0  0  0  0  0  0  0  0
    0.0000    0.0000    0.0000 H   0  0  0  0  0  0  0  0  0  0  0  0
    0.0000    0.0000    0.0000 H   0  0  0  0  0  0  0  0  0  0  0  0
    0.0000    0.0000    0.0000 H   0  0  0  0  0  0  0  0  0  0  0  0
    0.0000    0.0000    0.0000 H   0  0  0  0  0  0  0  0  0  0  0  0
    0.0000    0.0000    0.0000 H   0  0  0  0  0  0  0  0  0  0  0  0
    0.0000    0.0000    0.0000 H   0  0  0  0  0  0  0  0  0  0  0  0
    0.0000    0.0000    0.0000 H   0  0  0  0  0  0  0  0  0  0  0  0
    0.0000    0.0000    0.0000 H   0  0  0  0  0  0  0  0  0  0  0  0
    6.9932   -1.5369   -0.3722 C   0  0  0  0  0  0  0  0  0  0  0  0
    6.2709   -2.0415    0.6885 C   0  0  0  0  0  0  0  0  0  0  0  0
    4.9365   -1.7865    0.8194 C   0  0  0  0  0  0  0  0  0  0  0  0
    4.2631   -0.9885   -0.1467 C   0  0  0  0  0  0  0  0  0  0  0  0
    3.0350   -0.7177   -0.0817 O   0  0  0  0  0  0  0  0  0  0  0  0
    1.7805   -0.4411   -0.0153 C   0  0  0  0  0  0  0  0  0  0  0  0
    5.0471   -0.4881   -1.2252 C   0  0  0  0  0  0  0  0  0  0  0  0
    4.3630    0.2814   -2.1446 O   0  0  0  0  0  0  0  0  0  0  0  0
    5.0421    0.8226   -3.2513 C   0  0  0  0  0  0  0  0  0  0  0  0
    6.3865   -0.7590   -1.3328 C   0  0  0  0  0  0  0  0  0  0  0  0
    6.7746   -2.6435    1.4192 H   0  0  0  0  0  0  0  0  0  0  0  0
    4.3168   -2.1595    1.6365 H   0  0  0  0  0  0  0  0  0  0  0  0
    1.1702   -0.8493    0.8489 H   0  0  0  0  0  0  0  0  0  0  0  0
    1.4858    0.6666    0.0253 H   0  0  0  0  0  0  0  0  0  0  0  0
    1.1549   -0.7770   -0.9163 H   0  0  0  0  0  0  0  0  0  0  0  0
    5.6136    1.7465   -2.9892 H   0  0  0  0  0  0  0  0  0  0  0  0
    4.3417    1.1336   -4.0577 H   0  0  0  0  0  0  0  0  0  0  0  0
    5.7571    0.1271   -3.7273 H   0  0  0  0  0  0  0  0  0  0  0  0
    6.9522   -0.3497   -2.1822 H   0  0  0  0  0  0  0  0  0  0  0  0
  1  2  1  0
  2  3  1  0
  2 19  1  0
  3  4  1  0
  3  5  2  0
  5  6  1  0
  6  7  1  1
  6 19  1  0
  7  8  2  0
  7 18  1  0
  8  9  1  0
  9 10  2  0
 10 11  1  0
 11 12  1  0
 11 18  2  0
 12 13  2  0
 12 17  1  0
 13 14  1  0
 14 15  2  0
 15 16  1  0
 16 17  2  0
 19 20  2  0
  1 21  1  0
  1 22  1  0
  1 23  1  0
  4 24  1  0
  4 25  1  0
  5 26  1  0
  8 27  1  0
  9 28  1  0
 10 29  1  0
 13 30  1  0
 14 31  1  0
 15 32  1  0
 17 33  1  0
 18 34  1  0
 35 36  2  0
 36 37  1  0
 37 38  2  0
 38 39  1  0
 39 40  1  0
 38 41  1  0
 41 42  1  0
 42 43  1  0
 41 44  2  0
 44 35  1  0
 36 45  1  0
 37 46  1  0
 40 47  1  0
 40 48  1  0
 40 49  1  0
 43 50  1  0
 43 51  1  0
 43 52  1  0
 44 53  1  0
  6 35  1  0
M  CHG  1   5   1
M  END
>  <attachment_point>  (167) 
26

>  <score>  (167) 
<NA>

$$$$
CAT-4j
     RDKit          3D

 42 44  0  0  1  0  0  0  0  0999 V2000
   11.7106   -2.3098    1.2658 C   0  0  0  0  0  0  0  0  0  0  0  0
   13.0313   -2.6523    0.7225 N   0  0  0  0  0  0  0  0  0  0  0  0
   14.2010   -2.6281    1.3773 C   0  0  0  0  0  0  0  0  0  0  0  0
   14.3777   -2.3568    2.6732 N   0  0  0  0  0  0  0  0  0  0  0  0
   15.2217   -2.9197    0.5738 N   0  0  0  0  0  0  0  0  0  0  0  0
   14.7965   -3.2519   -0.7875 C   0  0  1  0  0  0  0  0  0  0  0  0
   15.3794   -2.2443   -1.7949 C   0  0  0  0  0  0  0  0  0  0  0  0
   15.9522   -2.6550   -3.0208 C   0  0  0  0  0  0  0  0  0  0  0  0
   16.4340   -1.6937   -3.9273 C   0  0  0  0  0  0  0  0  0  0  0  0
   16.3364   -0.3224   -3.6308 C   0  0  0  0  0  0  0  0  0  0  0  0
   15.7943    0.1250   -2.4073 C   0  0  0  0  0  0  0  0  0  0  0  0
   15.6711    1.5693   -2.0915 C   0  0  0  0  0  0  0  0  0  0  0  0
   15.3832    2.0354   -0.7903 C   0  0  0  0  0  0  0  0  0  0  0  0
   15.3534    3.4188   -0.5357 C   0  0  0  0  0  0  0  0  0  0  0  0
   15.5968    4.3049   -1.5946 C   0  0  0  0  0  0  0  0  0  0  0  0
   15.8275    3.8920   -2.8511 N   0  0  0  0  0  0  0  0  0  0  0  0
   15.8598    2.5642   -3.0762 C   0  0  0  0  0  0  0  0  0  0  0  0
   15.3327   -0.8573   -1.5012 C   0  0  0  0  0  0  0  0  0  0  0  0
   13.2767   -3.0094   -0.6368 C   0  0  0  0  0  0  0  0  0  0  0  0
   12.3981   -3.0674   -1.5055 O   0  0  0  0  0  0  0  0  0  0  0  0
    0.0000    0.0000    0.0000 H   0  0  0  0  0  0  0  0  0  0  0  0
    0.0000    0.0000    0.0000 H   0  0  0  0  0  0  0  0  0  0  0  0
    0.0000    0.0000    0.0000 H   0  0  0  0  0  0  0  0  0  0  0  0
    0.0000    0.0000    0.0000 H   0  0  0  0  0  0  0  0  0  0  0  0
    0.0000    0.0000    0.0000 H   0  0  0  0  0  0  0  0  0  0  0  0
    0.0000    0.0000    0.0000 H   0  0  0  0  0  0  0  0  0  0  0  0
    0.0000    0.0000    0.0000 H   0  0  0  0  0  0  0  0  0  0  0  0
    0.0000    0.0000    0.0000 H   0  0  0  0  0  0  0  0  0  0  0  0
    0.0000    0.0000    0.0000 H   0  0  0  0  0  0  0  0  0  0  0  0
    0.0000    0.0000    0.0000 H   0  0  0  0  0  0  0  0  0  0  0  0
    0.0000    0.0000    0.0000 H   0  0  0  0  0  0  0  0  0  0  0  0
    0.0000    0.0000    0.0000 H   0  0  0  0  0  0  0  0  0  0  0  0
    0.0000    0.0000    0.0000 H   0  0  0  0  0  0  0  0  0  0  0  0
    0.0000    0.0000    0.0000 H   0  0  0  0  0  0  0  0  0  0  0  0
    6.9792   -1.5338   -0.3714 C   0  0  2  0  0  0  0  0  0  0  0  0
    6.1551   -2.4241   -1.2897 C   0  0  0  0  0  0  0  0  0  0  0  0
    6.7348   -0.2097   -0.6351 O   0  0  0  0  0  0  0  0  0  0  0  0
    6.5986   -1.7481    0.6649 H   0  0  0  0  0  0  0  0  0  0  0  0
    6.2496   -2.0346   -2.3275 H   0  0  0  0  0  0  0  0  0  0  0  0
    6.4572   -3.4682   -1.2175 H   0  0  0  0  0  0  0  0  0  0  0  0
    5.0870   -2.2607   -0.9779 H   0  0  0  0  0  0  0  0  0  0  0  0
    6.1670   -0.0312   -1.4088 H   0  0  0  0  0  0  0  0  0  0  0  0
  1  2  1  0
  2  3  1  0
  2 19  1  0
  3  4  1  0
  3  5  2  0
  5  6  1  0
  6  7  1  1
  6 19  1  0
  7  8  2  0
  7 18  1  0
  8  9  1  0
  9 10  2  0
 10 11  1  0
 11 12  1  0
 11 18  2  0
 12 13  2  0
 12 17  1  0
 13 14  1  0
 14 15  2  0
 15 16  1  0
 16 17  2  0
 19 20  2  0
  1 21  1  0
  1 22  1  0
  1 23  1  0
  4 24  1  0
  4 25  1  0
  5 26  1  0
  8 27  1  0
  9 28  1  0
 10 29  1  0
 13 30  1  0
 14 31  1  0
 15 32  1  0
 17 33  1  0
 18 34  1  0
 35 36  1  0
 35 37  1  0
 35 38  1  6
 36 39  1  0
 36 40  1  0
 36 41  1  0
 37 42  1  0
  6 35  1  0
M  CHG  1   5   1
M  END
>  <attachment_point>  (168) 
26

>  <score>  (168) 
<NA>

$$$$
CAT-4j
     RDKit          3D

 47 50  0  0  1  0  0  0  0  0999 V2000
   11.7106   -2.3098    1.2658 C   0  0  0  0  0  0  0  0  0  0  0  0
   13.0313   -2.6523    0.7225 N   0  0  0  0  0  0  0  0  0  0  0  0
   14.2010   -2.6281    1.3773 C   0  0  0  0  0  0  0  0  0  0  0  0
   14.3777   -2.3568    2.6732 N   0  0  0  0  0  0  0  0  0  0  0  0
   15.2217   -2.9197    0.5738 N   0  0  0  0  0  0  0  0  0  0  0  0
   14.7965   -3.2519   -0.7875 C   0  0  1  0  0  0  0  0  0  0  0  0
   15.3794   -2.2443   -1.7949 C   0  0  0  0  0  0  0  0  0  0  0  0
   15.9522   -2.6550   -3.0208 C   0  0  0  0  0  0  0  0  0  0  0  0
   16.4340   -1.6937   -3.9273 C   0  0  0  0  0  0  0  0  0  0  0  0
   16.3364   -0.3224   -3.6308 C   0  0  0  0  0  0  0  0  0  0  0  0
   15.7943    0.1250   -2.4073 C   0  0  0  0  0  0  0  0  0  0  0  0
   15.6711    1.5693   -2.0915 C   0  0  0  0  0  0  0  0  0  0  0  0
   15.3832    2.0354   -0.7903 C   0  0  0  0  0  0  0  0  0  0  0  0
   15.3534    3.4188   -0.5357 C   0  0  0  0  0  0  0  0  0  0  0  0
   15.5968    4.3049   -1.5946 C   0  0  0  0  0  0  0  0  0  0  0  0
   15.8275    3.8920   -2.8511 N   0  0  0  0  0  0  0  0  0  0  0  0
   15.8598    2.5642   -3.0762 C   0  0  0  0  0  0  0  0  0  0  0  0
   15.3327   -0.8573   -1.5012 C   0  0  0  0  0  0  0  0  0  0  0  0
   13.2767   -3.0094   -0.6368 C   0  0  0  0  0  0  0  0  0  0  0  0
   12.3981   -3.0674   -1.5055 O   0  0  0  0  0  0  0  0  0  0  0  0
    0.0000    0.0000    0.0000 H   0  0  0  0  0  0  0  0  0  0  0  0
    0.0000    0.0000    0.0000 H   0  0  0  0  0  0  0  0  0  0  0  0
    0.0000    0.0000    0.0000 H   0  0  0  0  0  0  0  0  0  0  0  0
    0.0000    0.0000    0.0000 H   0  0  0  0  0  0  0  0  0  0  0  0
    0.0000    0.0000    0.0000 H   0  0  0  0  0  0  0  0  0  0  0  0
    0.0000    0.0000    0.0000 H   0  0  0  0  0  0  0  0  0  0  0  0
    0.0000    0.0000    0.0000 H   0  0  0  0  0  0  0  0  0  0  0  0
    0.0000    0.0000    0.0000 H   0  0  0  0  0  0  0  0  0  0  0  0
    0.0000    0.0000    0.0000 H   0  0  0  0  0  0  0  0  0  0  0  0
    0.0000    0.0000    0.0000 H   0  0  0  0  0  0  0  0  0  0  0  0
    0.0000    0.0000    0.0000 H   0  0  0  0  0  0  0  0  0  0  0  0
    0.0000    0.0000    0.0000 H   0  0  0  0  0  0  0  0  0  0  0  0
    0.0000    0.0000    0.0000 H   0  0  0  0  0  0  0  0  0  0  0  0
    0.0000    0.0000    0.0000 H   0  0  0  0  0  0  0  0  0  0  0  0
    6.9872   -1.5356   -0.3719 C   0  0  0  0  0  0  0  0  0  0  0  0
    6.4754   -0.8925   -1.5053 C   0  0  0  0  0  0  0  0  0  0  0  0
    5.1490   -0.5463   -1.5543 C   0  0  0  0  0  0  0  0  0  0  0  0
    4.2958   -0.8169   -0.5069 C   0  0  0  0  0  0  0  0  0  0  0  0
    2.9212   -0.4683   -0.5356 N   0  0  0  0  0  4  0  0  0  0  0  0
    2.4400    0.0936   -1.5078 O   0  0  0  0  0  0  0  0  0  0  0  0
    2.1483   -0.7689    0.5349 O   0  0  0  0  0  1  0  0  0  0  0  0
    4.8396   -1.4619    0.6136 C   0  0  0  0  0  0  0  0  0  0  0  0
    6.1596   -1.8163    0.6840 C   0  0  0  0  0  0  0  0  0  0  0  0
    7.0968   -0.6540   -2.3589 H   0  0  0  0  0  0  0  0  0  0  0  0
    4.7045   -0.0430   -2.4181 H   0  0  0  0  0  0  0  0  0  0  0  0
    4.1471   -1.6658    1.4295 H   0  0  0  0  0  0  0  0  0  0  0  0
    6.5637   -2.3068    1.5413 H   0  0  0  0  0  0  0  0  0  0  0  0
  1  2  1  0
  2  3  1  0
  2 19  1  0
  3  4  1  0
  3  5  2  0
  5  6  1  0
  6  7  1  1
  6 19  1  0
  7  8  2  0
  7 18  1  0
  8  9  1  0
  9 10  2  0
 10 11  1  0
 11 12  1  0
 11 18  2  0
 12 13  2  0
 12 17  1  0
 13 14  1  0
 14 15  2  0
 15 16  1  0
 16 17  2  0
 19 20  2  0
  1 21  1  0
  1 22  1  0
  1 23  1  0
  4 24  1  0
  4 25  1  0
  5 26  1  0
  8 27  1  0
  9 28  1  0
 10 29  1  0
 13 30  1  0
 14 31  1  0
 15 32  1  0
 17 33  1  0
 18 34  1  0
 35 36  2  0
 36 37  1  0
 37 38  2  0
 38 39  1  0
 39 40  2  0
 39 41  1  0
 38 42  1  0
 42 43  2  0
 43 35  1  0
 36 44  1  0
 37 45  1  0
 42 46  1  0
 43 47  1  0
  6 35  1  0
M  CHG  3   5   1  39   1  41  -1
M  END
>  <attachment_point>  (169) 
26

>  <score>  (169) 
<NA>

$$$$
CAT-4j
     RDKit          3D

 47 50  0  0  1  0  0  0  0  0999 V2000
   11.7106   -2.3098    1.2658 C   0  0  0  0  0  0  0  0  0  0  0  0
   13.0313   -2.6523    0.7225 N   0  0  0  0  0  0  0  0  0  0  0  0
   14.2010   -2.6281    1.3773 C   0  0  0  0  0  0  0  0  0  0  0  0
   14.3777   -2.3568    2.6732 N   0  0  0  0  0  0  0  0  0  0  0  0
   15.2217   -2.9197    0.5738 N   0  0  0  0  0  0  0  0  0  0  0  0
   14.7965   -3.2519   -0.7875 C   0  0  1  0  0  0  0  0  0  0  0  0
   15.3794   -2.2443   -1.7949 C   0  0  0  0  0  0  0  0  0  0  0  0
   15.9522   -2.6550   -3.0208 C   0  0  0  0  0  0  0  0  0  0  0  0
   16.4340   -1.6937   -3.9273 C   0  0  0  0  0  0  0  0  0  0  0  0
   16.3364   -0.3224   -3.6308 C   0  0  0  0  0  0  0  0  0  0  0  0
   15.7943    0.1250   -2.4073 C   0  0  0  0  0  0  0  0  0  0  0  0
   15.6711    1.5693   -2.0915 C   0  0  0  0  0  0  0  0  0  0  0  0
   15.3832    2.0354   -0.7903 C   0  0  0  0  0  0  0  0  0  0  0  0
   15.3534    3.4188   -0.5357 C   0  0  0  0  0  0  0  0  0  0  0  0
   15.5968    4.3049   -1.5946 C   0  0  0  0  0  0  0  0  0  0  0  0
   15.8275    3.8920   -2.8511 N   0  0  0  0  0  0  0  0  0  0  0  0
   15.8598    2.5642   -3.0762 C   0  0  0  0  0  0  0  0  0  0  0  0
   15.3327   -0.8573   -1.5012 C   0  0  0  0  0  0  0  0  0  0  0  0
   13.2767   -3.0094   -0.6368 C   0  0  0  0  0  0  0  0  0  0  0  0
   12.3981   -3.0674   -1.5055 O   0  0  0  0  0  0  0  0  0  0  0  0
    0.0000    0.0000    0.0000 H   0  0  0  0  0  0  0  0  0  0  0  0
    0.0000    0.0000    0.0000 H   0  0  0  0  0  0  0  0  0  0  0  0
    0.0000    0.0000    0.0000 H   0  0  0  0  0  0  0  0  0  0  0  0
    0.0000    0.0000    0.0000 H   0  0  0  0  0  0  0  0  0  0  0  0
    0.0000    0.0000    0.0000 H   0  0  0  0  0  0  0  0  0  0  0  0
    0.0000    0.0000    0.0000 H   0  0  0  0  0  0  0  0  0  0  0  0
    0.0000    0.0000    0.0000 H   0  0  0  0  0  0  0  0  0  0  0  0
    0.0000    0.0000    0.0000 H   0  0  0  0  0  0  0  0  0  0  0  0
    0.0000    0.0000    0.0000 H   0  0  0  0  0  0  0  0  0  0  0  0
    0.0000    0.0000    0.0000 H   0  0  0  0  0  0  0  0  0  0  0  0
    0.0000    0.0000    0.0000 H   0  0  0  0  0  0  0  0  0  0  0  0
    0.0000    0.0000    0.0000 H   0  0  0  0  0  0  0  0  0  0  0  0
    0.0000    0.0000    0.0000 H   0  0  0  0  0  0  0  0  0  0  0  0
    0.0000    0.0000    0.0000 H   0  0  0  0  0  0  0  0  0  0  0  0
    6.9568   -1.5289   -0.3703 C   0  0  0  0  0  0  0  0  0  0  0  0
    6.4389   -0.4776   -1.0912 C   0  0  0  0  0  0  0  0  0  0  0  0
    5.0870   -0.2332   -0.9770 C   0  0  0  0  0  0  0  0  0  0  0  0
    4.2803   -1.0137   -0.1694 C   0  0  0  0  0  0  0  0  0  0  0  0
    4.8064   -2.0668    0.5511 C   0  0  0  0  0  0  0  0  0  0  0  0
    3.9938   -2.8876    1.3923 N   0  0  0  0  0  4  0  0  0  0  0  0
    4.5097   -3.8155    2.0151 O   0  0  0  0  0  0  0  0  0  0  0  0
    2.6443   -2.5890    1.4625 O   0  0  0  0  0  1  0  0  0  0  0  0
    6.1683   -2.3167    0.4391 C   0  0  0  0  0  0  0  0  0  0  0  0
    7.0672    0.1511   -1.7369 H   0  0  0  0  0  0  0  0  0  0  0  0
    4.6634    0.5976   -1.5436 H   0  0  0  0  0  0  0  0  0  0  0  0
    3.2055   -0.7887   -0.1032 H   0  0  0  0  0  0  0  0  0  0  0  0
    6.5618   -3.1367    1.0037 H   0  0  0  0  0  0  0  0  0  0  0  0
  1  2  1  0
  2  3  1  0
  2 19  1  0
  3  4  1  0
  3  5  2  0
  5  6  1  0
  6  7  1  1
  6 19  1  0
  7  8  2  0
  7 18  1  0
  8  9  1  0
  9 10  2  0
 10 11  1  0
 11 12  1  0
 11 18  2  0
 12 13  2  0
 12 17  1  0
 13 14  1  0
 14 15  2  0
 15 16  1  0
 16 17  2  0
 19 20  2  0
  1 21  1  0
  1 22  1  0
  1 23  1  0
  4 24  1  0
  4 25  1  0
  5 26  1  0
  8 27  1  0
  9 28  1  0
 10 29  1  0
 13 30  1  0
 14 31  1  0
 15 32  1  0
 17 33  1  0
 18 34  1  0
 35 36  2  0
 36 37  1  0
 37 38  2  0
 38 39  1  0
 39 40  1  0
 40 41  2  0
 40 42  1  0
 39 43  2  0
 43 35  1  0
 36 44  1  0
 37 45  1  0
 38 46  1  0
 43 47  1  0
  6 35  1  0
M  CHG  3   5   1  40   1  42  -1
M  END
>  <attachment_point>  (170) 
26

>  <score>  (170) 
<NA>

$$$$
CAT-4j
     RDKit          3D

 47 50  0  0  1  0  0  0  0  0999 V2000
   11.7106   -2.3098    1.2658 C   0  0  0  0  0  0  0  0  0  0  0  0
   13.0313   -2.6523    0.7225 N   0  0  0  0  0  0  0  0  0  0  0  0
   14.2010   -2.6281    1.3773 C   0  0  0  0  0  0  0  0  0  0  0  0
   14.3777   -2.3568    2.6732 N   0  0  0  0  0  0  0  0  0  0  0  0
   15.2217   -2.9197    0.5738 N   0  0  0  0  0  0  0  0  0  0  0  0
   14.7965   -3.2519   -0.7875 C   0  0  1  0  0  0  0  0  0  0  0  0
   15.3794   -2.2443   -1.7949 C   0  0  0  0  0  0  0  0  0  0  0  0
   15.9522   -2.6550   -3.0208 C   0  0  0  0  0  0  0  0  0  0  0  0
   16.4340   -1.6937   -3.9273 C   0  0  0  0  0  0  0  0  0  0  0  0
   16.3364   -0.3224   -3.6308 C   0  0  0  0  0  0  0  0  0  0  0  0
   15.7943    0.1250   -2.4073 C   0  0  0  0  0  0  0  0  0  0  0  0
   15.6711    1.5693   -2.0915 C   0  0  0  0  0  0  0  0  0  0  0  0
   15.3832    2.0354   -0.7903 C   0  0  0  0  0  0  0  0  0  0  0  0
   15.3534    3.4188   -0.5357 C   0  0  0  0  0  0  0  0  0  0  0  0
   15.5968    4.3049   -1.5946 C   0  0  0  0  0  0  0  0  0  0  0  0
   15.8275    3.8920   -2.8511 N   0  0  0  0  0  0  0  0  0  0  0  0
   15.8598    2.5642   -3.0762 C   0  0  0  0  0  0  0  0  0  0  0  0
   15.3327   -0.8573   -1.5012 C   0  0  0  0  0  0  0  0  0  0  0  0
   13.2767   -3.0094   -0.6368 C   0  0  0  0  0  0  0  0  0  0  0  0
   12.3981   -3.0674   -1.5055 O   0  0  0  0  0  0  0  0  0  0  0  0
    0.0000    0.0000    0.0000 H   0  0  0  0  0  0  0  0  0  0  0  0
    0.0000    0.0000    0.0000 H   0  0  0  0  0  0  0  0  0  0  0  0
    0.0000    0.0000    0.0000 H   0  0  0  0  0  0  0  0  0  0  0  0
    0.0000    0.0000    0.0000 H   0  0  0  0  0  0  0  0  0  0  0  0
    0.0000    0.0000    0.0000 H   0  0  0  0  0  0  0  0  0  0  0  0
    0.0000    0.0000    0.0000 H   0  0  0  0  0  0  0  0  0  0  0  0
    0.0000    0.0000    0.0000 H   0  0  0  0  0  0  0  0  0  0  0  0
    0.0000    0.0000    0.0000 H   0  0  0  0  0  0  0  0  0  0  0  0
    0.0000    0.0000    0.0000 H   0  0  0  0  0  0  0  0  0  0  0  0
    0.0000    0.0000    0.0000 H   0  0  0  0  0  0  0  0  0  0  0  0
    0.0000    0.0000    0.0000 H   0  0  0  0  0  0  0  0  0  0  0  0
    0.0000    0.0000    0.0000 H   0  0  0  0  0  0  0  0  0  0  0  0
    0.0000    0.0000    0.0000 H   0  0  0  0  0  0  0  0  0  0  0  0
    0.0000    0.0000    0.0000 H   0  0  0  0  0  0  0  0  0  0  0  0
    6.8040   -1.4954   -0.3621 C   0  0  0  0  0  0  0  0  0  0  0  0
    5.3899   -1.1596   -0.2904 C   0  0  0  0  0  0  0  0  0  0  0  0
    4.3319   -0.8896   -0.2426 C   0  0  0  0  0  0  0  0  0  0  0  0
    3.8686    0.3959    0.3877 C   0  0  0  0  0  0  0  0  0  0  0  0
    2.5760    0.5667    0.2653 C   0  0  0  0  0  0  0  0  0  0  0  0
    1.5241   -0.0492   -0.2514 C   0  0  0  0  0  0  0  0  0  0  0  0
    1.9137   -1.2941   -0.8583 C   0  0  0  0  0  0  0  0  0  0  0  0
    3.2387   -1.6834   -0.8432 C   0  0  0  0  0  0  0  0  0  0  0  0
    4.6473    0.9302    0.8850 H   0  0  0  0  0  0  0  0  0  0  0  0
    2.2271    1.6134    0.7774 H   0  0  0  0  0  0  0  0  0  0  0  0
    0.5337    0.1827   -0.3170 H   0  0  0  0  0  0  0  0  0  0  0  0
    1.2329   -1.9135   -1.4034 H   0  0  0  0  0  0  0  0  0  0  0  0
    3.5807   -2.6373   -1.1707 H   0  0  0  0  0  0  0  0  0  0  0  0
  1  2  1  0
  2  3  1  0
  2 19  1  0
  3  4  1  0
  3  5  2  0
  5  6  1  0
  6  7  1  0
  6 19  1  0
  7  8  2  0
  7 18  1  0
  8  9  1  0
  9 10  2  0
 10 11  1  0
 11 12  1  0
 11 18  2  0
 12 13  2  0
 12 17  1  0
 13 14  1  0
 14 15  2  0
 15 16  1  0
 16 17  2  0
 19 20  2  0
  1 21  1  0
  1 22  1  0
  1 23  1  0
  4 24  1  0
  4 25  1  0
  5 26  1  0
  8 27  1  0
  9 28  1  0
 10 29  1  0
 13 30  1  0
 14 31  1  0
 15 32  1  0
 17 33  1  0
 18 34  1  0
 35 36  3  0
 36 37  1  0
 37 38  2  0
 38 39  1  0
 39 40  2  0
 40 41  1  0
 41 42  2  0
 42 37  1  0
 38 43  1  0
 39 44  1  0
 40 45  1  0
 41 46  1  0
 42 47  1  0
  6 35  1  6
M  CHG  1   5   1
M  END
>  <attachment_point>  (171) 
26

>  <score>  (171) 
<NA>

$$$$
CAT-4j
     RDKit          3D

 48 51  0  0  1  0  0  0  0  0999 V2000
   11.7106   -2.3098    1.2658 C   0  0  0  0  0  0  0  0  0  0  0  0
   13.0313   -2.6523    0.7225 N   0  0  0  0  0  0  0  0  0  0  0  0
   14.2010   -2.6281    1.3773 C   0  0  0  0  0  0  0  0  0  0  0  0
   14.3777   -2.3568    2.6732 N   0  0  0  0  0  0  0  0  0  0  0  0
   15.2217   -2.9197    0.5738 N   0  0  0  0  0  0  0  0  0  0  0  0
   14.7965   -3.2519   -0.7875 C   0  0  1  0  0  0  0  0  0  0  0  0
   15.3794   -2.2443   -1.7949 C   0  0  0  0  0  0  0  0  0  0  0  0
   15.9522   -2.6550   -3.0208 C   0  0  0  0  0  0  0  0  0  0  0  0
   16.4340   -1.6937   -3.9273 C   0  0  0  0  0  0  0  0  0  0  0  0
   16.3364   -0.3224   -3.6308 C   0  0  0  0  0  0  0  0  0  0  0  0
   15.7943    0.1250   -2.4073 C   0  0  0  0  0  0  0  0  0  0  0  0
   15.6711    1.5693   -2.0915 C   0  0  0  0  0  0  0  0  0  0  0  0
   15.3832    2.0354   -0.7903 C   0  0  0  0  0  0  0  0  0  0  0  0
   15.3534    3.4188   -0.5357 C   0  0  0  0  0  0  0  0  0  0  0  0
   15.5968    4.3049   -1.5946 C   0  0  0  0  0  0  0  0  0  0  0  0
   15.8275    3.8920   -2.8511 N   0  0  0  0  0  0  0  0  0  0  0  0
   15.8598    2.5642   -3.0762 C   0  0  0  0  0  0  0  0  0  0  0  0
   15.3327   -0.8573   -1.5012 C   0  0  0  0  0  0  0  0  0  0  0  0
   13.2767   -3.0094   -0.6368 C   0  0  0  0  0  0  0  0  0  0  0  0
   12.3981   -3.0674   -1.5055 O   0  0  0  0  0  0  0  0  0  0  0  0
    0.0000    0.0000    0.0000 H   0  0  0  0  0  0  0  0  0  0  0  0
    0.0000    0.0000    0.0000 H   0  0  0  0  0  0  0  0  0  0  0  0
    0.0000    0.0000    0.0000 H   0  0  0  0  0  0  0  0  0  0  0  0
    0.0000    0.0000    0.0000 H   0  0  0  0  0  0  0  0  0  0  0  0
    0.0000    0.0000    0.0000 H   0  0  0  0  0  0  0  0  0  0  0  0
    0.0000    0.0000    0.0000 H   0  0  0  0  0  0  0  0  0  0  0  0
    0.0000    0.0000    0.0000 H   0  0  0  0  0  0  0  0  0  0  0  0
    0.0000    0.0000    0.0000 H   0  0  0  0  0  0  0  0  0  0  0  0
    0.0000    0.0000    0.0000 H   0  0  0  0  0  0  0  0  0  0  0  0
    0.0000    0.0000    0.0000 H   0  0  0  0  0  0  0  0  0  0  0  0
    0.0000    0.0000    0.0000 H   0  0  0  0  0  0  0  0  0  0  0  0
    0.0000    0.0000    0.0000 H   0  0  0  0  0  0  0  0  0  0  0  0
    0.0000    0.0000    0.0000 H   0  0  0  0  0  0  0  0  0  0  0  0
    0.0000    0.0000    0.0000 H   0  0  0  0  0  0  0  0  0  0  0  0
    6.8716   -1.5102   -0.3657 C   0  0  0  0  0  0  0  0  0  0  0  0
    6.4713   -1.2124    0.7101 O   0  0  0  0  0  0  0  0  0  0  0  0
    6.2838   -1.6361   -1.6158 N   0  0  0  0  0  0  0  0  0  0  0  0
    4.8667   -1.3675   -1.7557 C   0  0  0  0  0  0  0  0  0  0  0  0
    4.4410   -0.0889   -2.0509 C   0  0  0  0  0  0  0  0  0  0  0  0
    3.0764    0.1743   -2.1865 C   0  0  0  0  0  0  0  0  0  0  0  0
    2.1832   -0.8616   -2.0200 C   0  0  0  0  0  0  0  0  0  0  0  0
    2.6054   -2.1145   -1.7305 N   0  0  0  0  0  0  0  0  0  0  0  0
    3.9377   -2.3578   -1.6009 C   0  0  0  0  0  0  0  0  0  0  0  0
    6.8459   -1.9171   -2.4371 H   0  0  0  0  0  0  0  0  0  0  0  0
    5.1896    0.6720   -2.1679 H   0  0  0  0  0  0  0  0  0  0  0  0
    2.7538    1.1909   -2.4204 H   0  0  0  0  0  0  0  0  0  0  0  0
    1.1203   -0.6219   -2.1331 H   0  0  0  0  0  0  0  0  0  0  0  0
    4.3116   -3.3609   -1.3670 H   0  0  0  0  0  0  0  0  0  0  0  0
  1  2  1  0
  2  3  1  0
  2 19  1  0
  3  4  1  0
  3  5  2  0
  5  6  1  0
  6  7  1  0
  6 19  1  0
  7  8  2  0
  7 18  1  0
  8  9  1  0
  9 10  2  0
 10 11  1  0
 11 12  1  0
 11 18  2  0
 12 13  2  0
 12 17  1  0
 13 14  1  0
 14 15  2  0
 15 16  1  0
 16 17  2  0
 19 20  2  0
  1 21  1  0
  1 22  1  0
  1 23  1  0
  4 24  1  0
  4 25  1  0
  5 26  1  0
  8 27  1  0
  9 28  1  0
 10 29  1  0
 13 30  1  0
 14 31  1  0
 15 32  1  0
 17 33  1  0
 18 34  1  0
 35 36  2  0
 35 37  1  0
 37 38  1  0
 38 39  2  0
 39 40  1  0
 40 41  2  0
 41 42  1  0
 42 43  2  0
 43 38  1  0
 37 44  1  0
 39 45  1  0
 40 46  1  0
 41 47  1  0
 43 48  1  0
  6 35  1  6
M  CHG  1   5   1
M  END
>  <attachment_point>  (172) 
26

>  <score>  (172) 
<NA>

$$$$
CAT-4j
     RDKit          3D

 57 60  0  0  1  0  0  0  0  0999 V2000
   11.7106   -2.3098    1.2658 C   0  0  0  0  0  0  0  0  0  0  0  0
   13.0313   -2.6523    0.7225 N   0  0  0  0  0  0  0  0  0  0  0  0
   14.2010   -2.6281    1.3773 C   0  0  0  0  0  0  0  0  0  0  0  0
   14.3777   -2.3568    2.6732 N   0  0  0  0  0  0  0  0  0  0  0  0
   15.2217   -2.9197    0.5738 N   0  0  0  0  0  0  0  0  0  0  0  0
   14.7965   -3.2519   -0.7875 C   0  0  1  0  0  0  0  0  0  0  0  0
   15.3794   -2.2443   -1.7949 C   0  0  0  0  0  0  0  0  0  0  0  0
   15.9522   -2.6550   -3.0208 C   0  0  0  0  0  0  0  0  0  0  0  0
   16.4340   -1.6937   -3.9273 C   0  0  0  0  0  0  0  0  0  0  0  0
   16.3364   -0.3224   -3.6308 C   0  0  0  0  0  0  0  0  0  0  0  0
   15.7943    0.1250   -2.4073 C   0  0  0  0  0  0  0  0  0  0  0  0
   15.6711    1.5693   -2.0915 C   0  0  0  0  0  0  0  0  0  0  0  0
   15.3832    2.0354   -0.7903 C   0  0  0  0  0  0  0  0  0  0  0  0
   15.3534    3.4188   -0.5357 C   0  0  0  0  0  0  0  0  0  0  0  0
   15.5968    4.3049   -1.5946 C   0  0  0  0  0  0  0  0  0  0  0  0
   15.8275    3.8920   -2.8511 N   0  0  0  0  0  0  0  0  0  0  0  0
   15.8598    2.5642   -3.0762 C   0  0  0  0  0  0  0  0  0  0  0  0
   15.3327   -0.8573   -1.5012 C   0  0  0  0  0  0  0  0  0  0  0  0
   13.2767   -3.0094   -0.6368 C   0  0  0  0  0  0  0  0  0  0  0  0
   12.3981   -3.0674   -1.5055 O   0  0  0  0  0  0  0  0  0  0  0  0
    0.0000    0.0000    0.0000 H   0  0  0  0  0  0  0  0  0  0  0  0
    0.0000    0.0000    0.0000 H   0  0  0  0  0  0  0  0  0  0  0  0
    0.0000    0.0000    0.0000 H   0  0  0  0  0  0  0  0  0  0  0  0
    0.0000    0.0000    0.0000 H   0  0  0  0  0  0  0  0  0  0  0  0
    0.0000    0.0000    0.0000 H   0  0  0  0  0  0  0  0  0  0  0  0
    0.0000    0.0000    0.0000 H   0  0  0  0  0  0  0  0  0  0  0  0
    0.0000    0.0000    0.0000 H   0  0  0  0  0  0  0  0  0  0  0  0
    0.0000    0.0000    0.0000 H   0  0  0  0  0  0  0  0  0  0  0  0
    0.0000    0.0000    0.0000 H   0  0  0  0  0  0  0  0  0  0  0  0
    0.0000    0.0000    0.0000 H   0  0  0  0  0  0  0  0  0  0  0  0
    0.0000    0.0000    0.0000 H   0  0  0  0  0  0  0  0  0  0  0  0
    0.0000    0.0000    0.0000 H   0  0  0  0  0  0  0  0  0  0  0  0
    0.0000    0.0000    0.0000 H   0  0  0  0  0  0  0  0  0  0  0  0
    0.0000    0.0000    0.0000 H   0  0  0  0  0  0  0  0  0  0  0  0
    6.9813   -1.5343   -0.3716 O   0  0  0  0  0  0  0  0  0  0  0  0
    6.4388   -2.8359   -0.4238 C   0  0  0  0  0  0  0  0  0  0  0  0
    4.9396   -2.7514   -0.3483 C   0  0  0  0  0  0  0  0  0  0  0  0
    4.2232   -3.9161   -0.3853 N   0  0  0  0  0  0  0  0  0  0  0  0
    4.2439   -4.8508    0.6397 C   0  0  0  0  0  0  0  0  0  0  0  0
    2.9370   -5.5082    0.9562 C   0  0  0  0  0  0  0  0  0  0  0  0
    1.9049   -5.4546   -0.0954 C   0  0  0  0  0  0  0  0  0  0  0  0
    2.0381   -4.3355   -1.0897 C   0  0  0  0  0  0  0  0  0  0  0  0
    3.5057   -4.3035   -1.5422 C   0  0  0  0  0  0  0  0  0  0  0  0
    6.8280   -3.3245   -1.3148 H   0  0  0  0  0  0  0  0  0  0  0  0
    6.8237   -3.3867    0.4718 H   0  0  0  0  0  0  0  0  0  0  0  0
    4.6170   -2.0593   -1.1638 H   0  0  0  0  0  0  0  0  0  0  0  0
    4.7005   -2.1769    0.5950 H   0  0  0  0  0  0  0  0  0  0  0  0
    4.9545   -5.6862    0.3637 H   0  0  0  0  0  0  0  0  0  0  0  0
    4.6911   -4.4139    1.5728 H   0  0  0  0  0  0  0  0  0  0  0  0
    3.0860   -6.5855    1.2453 H   0  0  0  0  0  0  0  0  0  0  0  0
    2.5330   -5.0342    1.8935 H   0  0  0  0  0  0  0  0  0  0  0  0
    0.8793   -5.3501    0.3644 H   0  0  0  0  0  0  0  0  0  0  0  0
    1.8246   -6.4036   -0.7026 H   0  0  0  0  0  0  0  0  0  0  0  0
    1.8844   -3.3834   -0.5319 H   0  0  0  0  0  0  0  0  0  0  0  0
    1.3490   -4.4799   -1.9167 H   0  0  0  0  0  0  0  0  0  0  0  0
    3.6610   -3.7291   -2.4447 H   0  0  0  0  0  0  0  0  0  0  0  0
    3.7604   -5.3882   -1.7380 H   0  0  0  0  0  0  0  0  0  0  0  0
  1  2  1  0
  2  3  1  0
  2 19  1  0
  3  4  1  0
  3  5  2  0
  5  6  1  0
  6  7  1  0
  6 19  1  0
  7  8  2  0
  7 18  1  0
  8  9  1  0
  9 10  2  0
 10 11  1  0
 11 12  1  0
 11 18  2  0
 12 13  2  0
 12 17  1  0
 13 14  1  0
 14 15  2  0
 15 16  1  0
 16 17  2  0
 19 20  2  0
  1 21  1  0
  1 22  1  0
  1 23  1  0
  4 24  1  0
  4 25  1  0
  5 26  1  0
  8 27  1  0
  9 28  1  0
 10 29  1  0
 13 30  1  0
 14 31  1  0
 15 32  1  0
 17 33  1  0
 18 34  1  0
 35 36  1  0
 36 37  1  0
 37 38  1  0
 38 39  1  0
 39 40  1  0
 40 41  1  0
 41 42  1  0
 42 43  1  0
 43 38  1  0
 36 44  1  0
 36 45  1  0
 37 46  1  0
 37 47  1  0
 39 48  1  0
 39 49  1  0
 40 50  1  0
 40 51  1  0
 41 52  1  0
 41 53  1  0
 42 54  1  0
 42 55  1  0
 43 56  1  0
 43 57  1  0
  6 35  1  6
M  CHG  1   5   1
M  END
>  <attachment_point>  (173) 
26

>  <score>  (173) 
<NA>

$$$$
CAT-4j
     RDKit          3D

 43 45  0  0  1  0  0  0  0  0999 V2000
   11.7106   -2.3098    1.2658 C   0  0  0  0  0  0  0  0  0  0  0  0
   13.0313   -2.6523    0.7225 N   0  0  0  0  0  0  0  0  0  0  0  0
   14.2010   -2.6281    1.3773 C   0  0  0  0  0  0  0  0  0  0  0  0
   14.3777   -2.3568    2.6732 N   0  0  0  0  0  0  0  0  0  0  0  0
   15.2217   -2.9197    0.5738 N   0  0  0  0  0  0  0  0  0  0  0  0
   14.7965   -3.2519   -0.7875 C   0  0  1  0  0  0  0  0  0  0  0  0
   15.3794   -2.2443   -1.7949 C   0  0  0  0  0  0  0  0  0  0  0  0
   15.9522   -2.6550   -3.0208 C   0  0  0  0  0  0  0  0  0  0  0  0
   16.4340   -1.6937   -3.9273 C   0  0  0  0  0  0  0  0  0  0  0  0
   16.3364   -0.3224   -3.6308 C   0  0  0  0  0  0  0  0  0  0  0  0
   15.7943    0.1250   -2.4073 C   0  0  0  0  0  0  0  0  0  0  0  0
   15.6711    1.5693   -2.0915 C   0  0  0  0  0  0  0  0  0  0  0  0
   15.3832    2.0354   -0.7903 C   0  0  0  0  0  0  0  0  0  0  0  0
   15.3534    3.4188   -0.5357 C   0  0  0  0  0  0  0  0  0  0  0  0
   15.5968    4.3049   -1.5946 C   0  0  0  0  0  0  0  0  0  0  0  0
   15.8275    3.8920   -2.8511 N   0  0  0  0  0  0  0  0  0  0  0  0
   15.8598    2.5642   -3.0762 C   0  0  0  0  0  0  0  0  0  0  0  0
   15.3327   -0.8573   -1.5012 C   0  0  0  0  0  0  0  0  0  0  0  0
   13.2767   -3.0094   -0.6368 C   0  0  0  0  0  0  0  0  0  0  0  0
   12.3981   -3.0674   -1.5055 O   0  0  0  0  0  0  0  0  0  0  0  0
    0.0000    0.0000    0.0000 H   0  0  0  0  0  0  0  0  0  0  0  0
    0.0000    0.0000    0.0000 H   0  0  0  0  0  0  0  0  0  0  0  0
    0.0000    0.0000    0.0000 H   0  0  0  0  0  0  0  0  0  0  0  0
    0.0000    0.0000    0.0000 H   0  0  0  0  0  0  0  0  0  0  0  0
    0.0000    0.0000    0.0000 H   0  0  0  0  0  0  0  0  0  0  0  0
    0.0000    0.0000    0.0000 H   0  0  0  0  0  0  0  0  0  0  0  0
    0.0000    0.0000    0.0000 H   0  0  0  0  0  0  0  0  0  0  0  0
    0.0000    0.0000    0.0000 H   0  0  0  0  0  0  0  0  0  0  0  0
    0.0000    0.0000    0.0000 H   0  0  0  0  0  0  0  0  0  0  0  0
    0.0000    0.0000    0.0000 H   0  0  0  0  0  0  0  0  0  0  0  0
    0.0000    0.0000    0.0000 H   0  0  0  0  0  0  0  0  0  0  0  0
    0.0000    0.0000    0.0000 H   0  0  0  0  0  0  0  0  0  0  0  0
    0.0000    0.0000    0.0000 H   0  0  0  0  0  0  0  0  0  0  0  0
    0.0000    0.0000    0.0000 H   0  0  0  0  0  0  0  0  0  0  0  0
    7.0122   -1.5411   -0.3732 C   0  0  0  0  0  0  0  0  0  0  0  0
    6.5228   -0.5661   -1.3599 N   0  0  0  0  0  0  0  0  0  0  0  0
    6.7639   -1.0831   -2.6959 C   0  0  0  0  0  0  0  0  0  0  0  0
    6.5896   -1.1998    0.5986 H   0  0  0  0  0  0  0  0  0  0  0  0
    6.4341   -2.4747   -0.6349 H   0  0  0  0  0  0  0  0  0  0  0  0
    6.9592    0.3607   -1.1958 H   0  0  0  0  0  0  0  0  0  0  0  0
    7.4793   -0.4184   -3.2039 H   0  0  0  0  0  0  0  0  0  0  0  0
    5.8429   -1.1406   -3.3041 H   0  0  0  0  0  0  0  0  0  0  0  0
    7.1832   -2.1169   -2.6245 H   0  0  0  0  0  0  0  0  0  0  0  0
  1  2  1  0
  2  3  1  0
  2 19  1  0
  3  4  1  0
  3  5  2  0
  5  6  1  0
  6  7  1  0
  6 19  1  0
  7  8  2  0
  7 18  1  0
  8  9  1  0
  9 10  2  0
 10 11  1  0
 11 12  1  0
 11 18  2  0
 12 13  2  0
 12 17  1  0
 13 14  1  0
 14 15  2  0
 15 16  1  0
 16 17  2  0
 19 20  2  0
  1 21  1  0
  1 22  1  0
  1 23  1  0
  4 24  1  0
  4 25  1  0
  5 26  1  0
  8 27  1  0
  9 28  1  0
 10 29  1  0
 13 30  1  0
 14 31  1  0
 15 32  1  0
 17 33  1  0
 18 34  1  0
 35 36  1  0
 36 37  1  0
 35 38  1  0
 35 39  1  0
 36 40  1  0
 37 41  1  0
 37 42  1  0
 37 43  1  0
  6 35  1  6
M  CHG  1   5   1
M  END
>  <attachment_point>  (174) 
26

>  <score>  (174) 
<NA>

$$$$
CAT-4j
     RDKit          3D

 50 53  0  0  1  0  0  0  0  0999 V2000
   11.7106   -2.3098    1.2658 C   0  0  0  0  0  0  0  0  0  0  0  0
   13.0313   -2.6523    0.7225 N   0  0  0  0  0  0  0  0  0  0  0  0
   14.2010   -2.6281    1.3773 C   0  0  0  0  0  0  0  0  0  0  0  0
   14.3777   -2.3568    2.6732 N   0  0  0  0  0  0  0  0  0  0  0  0
   15.2217   -2.9197    0.5738 N   0  0  0  0  0  0  0  0  0  0  0  0
   14.7965   -3.2519   -0.7875 C   0  0  1  0  0  0  0  0  0  0  0  0
   15.3794   -2.2443   -1.7949 C   0  0  0  0  0  0  0  0  0  0  0  0
   15.9522   -2.6550   -3.0208 C   0  0  0  0  0  0  0  0  0  0  0  0
   16.4340   -1.6937   -3.9273 C   0  0  0  0  0  0  0  0  0  0  0  0
   16.3364   -0.3224   -3.6308 C   0  0  0  0  0  0  0  0  0  0  0  0
   15.7943    0.1250   -2.4073 C   0  0  0  0  0  0  0  0  0  0  0  0
   15.6711    1.5693   -2.0915 C   0  0  0  0  0  0  0  0  0  0  0  0
   15.3832    2.0354   -0.7903 C   0  0  0  0  0  0  0  0  0  0  0  0
   15.3534    3.4188   -0.5357 C   0  0  0  0  0  0  0  0  0  0  0  0
   15.5968    4.3049   -1.5946 C   0  0  0  0  0  0  0  0  0  0  0  0
   15.8275    3.8920   -2.8511 N   0  0  0  0  0  0  0  0  0  0  0  0
   15.8598    2.5642   -3.0762 C   0  0  0  0  0  0  0  0  0  0  0  0
   15.3327   -0.8573   -1.5012 C   0  0  0  0  0  0  0  0  0  0  0  0
   13.2767   -3.0094   -0.6368 C   0  0  0  0  0  0  0  0  0  0  0  0
   12.3981   -3.0674   -1.5055 O   0  0  0  0  0  0  0  0  0  0  0  0
    0.0000    0.0000    0.0000 H   0  0  0  0  0  0  0  0  0  0  0  0
    0.0000    0.0000    0.0000 H   0  0  0  0  0  0  0  0  0  0  0  0
    0.0000    0.0000    0.0000 H   0  0  0  0  0  0  0  0  0  0  0  0
    0.0000    0.0000    0.0000 H   0  0  0  0  0  0  0  0  0  0  0  0
    0.0000    0.0000    0.0000 H   0  0  0  0  0  0  0  0  0  0  0  0
    0.0000    0.0000    0.0000 H   0  0  0  0  0  0  0  0  0  0  0  0
    0.0000    0.0000    0.0000 H   0  0  0  0  0  0  0  0  0  0  0  0
    0.0000    0.0000    0.0000 H   0  0  0  0  0  0  0  0  0  0  0  0
    0.0000    0.0000    0.0000 H   0  0  0  0  0  0  0  0  0  0  0  0
    0.0000    0.0000    0.0000 H   0  0  0  0  0  0  0  0  0  0  0  0
    0.0000    0.0000    0.0000 H   0  0  0  0  0  0  0  0  0  0  0  0
    0.0000    0.0000    0.0000 H   0  0  0  0  0  0  0  0  0  0  0  0
    0.0000    0.0000    0.0000 H   0  0  0  0  0  0  0  0  0  0  0  0
    0.0000    0.0000    0.0000 H   0  0  0  0  0  0  0  0  0  0  0  0
    6.9612   -1.5299   -0.3705 C   0  0  0  0  0  0  0  0  0  0  0  0
    6.0612   -2.2380   -1.1046 C   0  0  0  0  0  0  0  0  0  0  0  0
    4.6960   -1.9932   -1.0795 C   0  0  0  0  0  0  0  0  0  0  0  0
    4.2709   -0.9598   -0.2453 C   0  0  0  0  0  0  0  0  0  0  0  0
    2.5675   -0.5467   -0.1210 S   0  0  0  0  0  6  0  0  0  0  0  0
    1.8550   -1.4741    1.1477 N   0  0  0  0  0  0  0  0  0  0  0  0
    2.4687    0.8927    0.2254 O   0  0  0  0  0  0  0  0  0  0  0  0
    1.8589   -0.7966   -1.4418 O   0  0  0  0  0  0  0  0  0  0  0  0
    5.1767   -0.2371    0.5021 C   0  0  0  0  0  0  0  0  0  0  0  0
    6.5381   -0.5165    0.4467 C   0  0  0  0  0  0  0  0  0  0  0  0
    6.4032   -3.0436   -1.7534 H   0  0  0  0  0  0  0  0  0  0  0  0
    3.9766   -2.5368   -1.6470 H   0  0  0  0  0  0  0  0  0  0  0  0
    0.9423   -1.0539    1.4108 H   0  0  0  0  0  0  0  0  0  0  0  0
    1.7784   -2.4841    0.8628 H   0  0  0  0  0  0  0  0  0  0  0  0
    4.8454    0.5742    1.1573 H   0  0  0  0  0  0  0  0  0  0  0  0
    7.1994    0.0832    1.0546 H   0  0  0  0  0  0  0  0  0  0  0  0
  1  2  1  0
  2  3  1  0
  2 19  1  0
  3  4  1  0
  3  5  2  0
  5  6  1  0
  6  7  1  1
  6 19  1  0
  7  8  2  0
  7 18  1  0
  8  9  1  0
  9 10  2  0
 10 11  1  0
 11 12  1  0
 11 18  2  0
 12 13  2  0
 12 17  1  0
 13 14  1  0
 14 15  2  0
 15 16  1  0
 16 17  2  0
 19 20  2  0
  1 21  1  0
  1 22  1  0
  1 23  1  0
  4 24  1  0
  4 25  1  0
  5 26  1  0
  8 27  1  0
  9 28  1  0
 10 29  1  0
 13 30  1  0
 14 31  1  0
 15 32  1  0
 17 33  1  0
 18 34  1  0
 35 36  2  0
 36 37  1  0
 37 38  2  0
 38 39  1  0
 39 40  1  0
 39 41  2  0
 39 42  2  0
 38 43  1  0
 43 44  2  0
 44 35  1  0
 36 45  1  0
 37 46  1  0
 40 47  1  0
 40 48  1  0
 43 49  1  0
 44 50  1  0
  6 35  1  0
M  CHG  1   5   1
M  END
>  <attachment_point>  (175) 
26

>  <score>  (175) 
<NA>

$$$$
CAT-4j
     RDKit          3D

 53 56  0  0  1  0  0  0  0  0999 V2000
   11.7106   -2.3098    1.2658 C   0  0  0  0  0  0  0  0  0  0  0  0
   13.0313   -2.6523    0.7225 N   0  0  0  0  0  0  0  0  0  0  0  0
   14.2010   -2.6281    1.3773 C   0  0  0  0  0  0  0  0  0  0  0  0
   14.3777   -2.3568    2.6732 N   0  0  0  0  0  0  0  0  0  0  0  0
   15.2217   -2.9197    0.5738 N   0  0  0  0  0  0  0  0  0  0  0  0
   14.7965   -3.2519   -0.7875 C   0  0  1  0  0  0  0  0  0  0  0  0
   15.3794   -2.2443   -1.7949 C   0  0  0  0  0  0  0  0  0  0  0  0
   15.9522   -2.6550   -3.0208 C   0  0  0  0  0  0  0  0  0  0  0  0
   16.4340   -1.6937   -3.9273 C   0  0  0  0  0  0  0  0  0  0  0  0
   16.3364   -0.3224   -3.6308 C   0  0  0  0  0  0  0  0  0  0  0  0
   15.7943    0.1250   -2.4073 C   0  0  0  0  0  0  0  0  0  0  0  0
   15.6711    1.5693   -2.0915 C   0  0  0  0  0  0  0  0  0  0  0  0
   15.3832    2.0354   -0.7903 C   0  0  0  0  0  0  0  0  0  0  0  0
   15.3534    3.4188   -0.5357 C   0  0  0  0  0  0  0  0  0  0  0  0
   15.5968    4.3049   -1.5946 C   0  0  0  0  0  0  0  0  0  0  0  0
   15.8275    3.8920   -2.8511 N   0  0  0  0  0  0  0  0  0  0  0  0
   15.8598    2.5642   -3.0762 C   0  0  0  0  0  0  0  0  0  0  0  0
   15.3327   -0.8573   -1.5012 C   0  0  0  0  0  0  0  0  0  0  0  0
   13.2767   -3.0094   -0.6368 C   0  0  0  0  0  0  0  0  0  0  0  0
   12.3981   -3.0674   -1.5055 O   0  0  0  0  0  0  0  0  0  0  0  0
    0.0000    0.0000    0.0000 H   0  0  0  0  0  0  0  0  0  0  0  0
    0.0000    0.0000    0.0000 H   0  0  0  0  0  0  0  0  0  0  0  0
    0.0000    0.0000    0.0000 H   0  0  0  0  0  0  0  0  0  0  0  0
    0.0000    0.0000    0.0000 H   0  0  0  0  0  0  0  0  0  0  0  0
    0.0000    0.0000    0.0000 H   0  0  0  0  0  0  0  0  0  0  0  0
    0.0000    0.0000    0.0000 H   0  0  0  0  0  0  0  0  0  0  0  0
    0.0000    0.0000    0.0000 H   0  0  0  0  0  0  0  0  0  0  0  0
    0.0000    0.0000    0.0000 H   0  0  0  0  0  0  0  0  0  0  0  0
    0.0000    0.0000    0.0000 H   0  0  0  0  0  0  0  0  0  0  0  0
    0.0000    0.0000    0.0000 H   0  0  0  0  0  0  0  0  0  0  0  0
    0.0000    0.0000    0.0000 H   0  0  0  0  0  0  0  0  0  0  0  0
    0.0000    0.0000    0.0000 H   0  0  0  0  0  0  0  0  0  0  0  0
    0.0000    0.0000    0.0000 H   0  0  0  0  0  0  0  0  0  0  0  0
    0.0000    0.0000    0.0000 H   0  0  0  0  0  0  0  0  0  0  0  0
    6.9726   -1.5324   -0.3711 C   0  0  0  0  0  0  0  0  0  0  0  0
    6.7359   -1.1725    1.0746 C   0  0  0  0  0  0  0  0  0  0  0  0
    7.5798   -0.0052    1.3638 N   0  0  0  0  0  0  0  0  0  0  0  0
    7.6917    0.1722    2.7987 C   0  0  0  0  0  0  0  0  0  0  0  0
    7.7243    1.6424    3.0131 C   0  0  0  0  0  0  0  0  0  0  0  0
    6.7979    2.1889    1.9462 C   0  0  0  0  0  0  0  0  0  0  0  0
    6.9103    1.1865    0.8683 C   0  0  0  0  0  0  0  0  0  0  0  0
    6.3614   -2.3991   -0.6954 H   0  0  0  0  0  0  0  0  0  0  0  0
    6.8328   -0.6411   -0.9905 H   0  0  0  0  0  0  0  0  0  0  0  0
    5.6531   -0.8299    1.1406 H   0  0  0  0  0  0  0  0  0  0  0  0
    6.8263   -1.9645    1.8073 H   0  0  0  0  0  0  0  0  0  0  0  0
    6.9546   -0.3886    3.3851 H   0  0  0  0  0  0  0  0  0  0  0  0
    8.6980   -0.2614    3.0852 H   0  0  0  0  0  0  0  0  0  0  0  0
    8.7326    2.0061    2.7522 H   0  0  0  0  0  0  0  0  0  0  0  0
    7.3791    1.9486    3.9956 H   0  0  0  0  0  0  0  0  0  0  0  0
    7.1886    3.1803    1.6046 H   0  0  0  0  0  0  0  0  0  0  0  0
    5.7487    2.2699    2.2941 H   0  0  0  0  0  0  0  0  0  0  0  0
    5.8949    0.8942    0.4656 H   0  0  0  0  0  0  0  0  0  0  0  0
    7.4792    1.5420    0.0009 H   0  0  0  0  0  0  0  0  0  0  0  0
  1  2  1  0
  2  3  1  0
  2 19  1  0
  3  4  1  0
  3  5  2  0
  5  6  1  0
  6  7  1  0
  6 19  1  0
  7  8  2  0
  7 18  1  0
  8  9  1  0
  9 10  2  0
 10 11  1  0
 11 12  1  0
 11 18  2  0
 12 13  2  0
 12 17  1  0
 13 14  1  0
 14 15  2  0
 15 16  1  0
 16 17  2  0
 19 20  2  0
  1 21  1  0
  1 22  1  0
  1 23  1  0
  4 24  1  0
  4 25  1  0
  5 26  1  0
  8 27  1  0
  9 28  1  0
 10 29  1  0
 13 30  1  0
 14 31  1  0
 15 32  1  0
 17 33  1  0
 18 34  1  0
 35 36  1  0
 36 37  1  0
 37 38  1  0
 38 39  1  0
 39 40  1  0
 40 41  1  0
 41 37  1  0
 35 42  1  0
 35 43  1  0
 36 44  1  0
 36 45  1  0
 38 46  1  0
 38 47  1  0
 39 48  1  0
 39 49  1  0
 40 50  1  0
 40 51  1  0
 41 52  1  0
 41 53  1  0
  6 35  1  6
M  CHG  1   5   1
M  END
>  <attachment_point>  (176) 
26

>  <score>  (176) 
<NA>

$$$$
CAT-4j
     RDKit          3D

 42 45  0  0  1  0  0  0  0  0999 V2000
   11.7106   -2.3098    1.2658 C   0  0  0  0  0  0  0  0  0  0  0  0
   13.0313   -2.6523    0.7225 N   0  0  0  0  0  0  0  0  0  0  0  0
   14.2010   -2.6281    1.3773 C   0  0  0  0  0  0  0  0  0  0  0  0
   14.3777   -2.3568    2.6732 N   0  0  0  0  0  0  0  0  0  0  0  0
   15.2217   -2.9197    0.5738 N   0  0  0  0  0  0  0  0  0  0  0  0
   14.7965   -3.2519   -0.7875 C   0  0  1  0  0  0  0  0  0  0  0  0
   15.3794   -2.2443   -1.7949 C   0  0  0  0  0  0  0  0  0  0  0  0
   15.9522   -2.6550   -3.0208 C   0  0  0  0  0  0  0  0  0  0  0  0
   16.4340   -1.6937   -3.9273 C   0  0  0  0  0  0  0  0  0  0  0  0
   16.3364   -0.3224   -3.6308 C   0  0  0  0  0  0  0  0  0  0  0  0
   15.7943    0.1250   -2.4073 C   0  0  0  0  0  0  0  0  0  0  0  0
   15.6711    1.5693   -2.0915 C   0  0  0  0  0  0  0  0  0  0  0  0
   15.3832    2.0354   -0.7903 C   0  0  0  0  0  0  0  0  0  0  0  0
   15.3534    3.4188   -0.5357 C   0  0  0  0  0  0  0  0  0  0  0  0
   15.5968    4.3049   -1.5946 C   0  0  0  0  0  0  0  0  0  0  0  0
   15.8275    3.8920   -2.8511 N   0  0  0  0  0  0  0  0  0  0  0  0
   15.8598    2.5642   -3.0762 C   0  0  0  0  0  0  0  0  0  0  0  0
   15.3327   -0.8573   -1.5012 C   0  0  0  0  0  0  0  0  0  0  0  0
   13.2767   -3.0094   -0.6368 C   0  0  0  0  0  0  0  0  0  0  0  0
   12.3981   -3.0674   -1.5055 O   0  0  0  0  0  0  0  0  0  0  0  0
    0.0000    0.0000    0.0000 H   0  0  0  0  0  0  0  0  0  0  0  0
    0.0000    0.0000    0.0000 H   0  0  0  0  0  0  0  0  0  0  0  0
    0.0000    0.0000    0.0000 H   0  0  0  0  0  0  0  0  0  0  0  0
    0.0000    0.0000    0.0000 H   0  0  0  0  0  0  0  0  0  0  0  0
    0.0000    0.0000    0.0000 H   0  0  0  0  0  0  0  0  0  0  0  0
    0.0000    0.0000    0.0000 H   0  0  0  0  0  0  0  0  0  0  0  0
    0.0000    0.0000    0.0000 H   0  0  0  0  0  0  0  0  0  0  0  0
    0.0000    0.0000    0.0000 H   0  0  0  0  0  0  0  0  0  0  0  0
    0.0000    0.0000    0.0000 H   0  0  0  0  0  0  0  0  0  0  0  0
    0.0000    0.0000    0.0000 H   0  0  0  0  0  0  0  0  0  0  0  0
    0.0000    0.0000    0.0000 H   0  0  0  0  0  0  0  0  0  0  0  0
    0.0000    0.0000    0.0000 H   0  0  0  0  0  0  0  0  0  0  0  0
    0.0000    0.0000    0.0000 H   0  0  0  0  0  0  0  0  0  0  0  0
    0.0000    0.0000    0.0000 H   0  0  0  0  0  0  0  0  0  0  0  0
    6.8813   -1.5123   -0.3662 C   0  0  0  0  0  0  0  0  0  0  0  0
    5.9641   -2.4711   -0.2746 C   0  0  0  0  0  0  0  0  0  0  0  0
    4.7329   -1.7741   -0.2249 C   0  0  0  0  0  0  0  0  0  0  0  0
    5.0410   -0.4590   -0.2925 N   0  0  0  0  0  0  0  0  0  0  0  0
    6.3773   -0.3455   -0.3786 N   0  0  0  0  0  0  0  0  0  0  0  0
    6.0577   -3.5478   -0.2405 H   0  0  0  0  0  0  0  0  0  0  0  0
    3.7731   -2.2569   -0.1482 H   0  0  0  0  0  0  0  0  0  0  0  0
    4.3873    0.3249   -0.2814 H   0  0  0  0  0  0  0  0  0  0  0  0
  1  2  1  0
  2  3  1  0
  2 19  1  0
  3  4  1  0
  3  5  2  0
  5  6  1  0
  6  7  1  1
  6 19  1  0
  7  8  2  0
  7 18  1  0
  8  9  1  0
  9 10  2  0
 10 11  1  0
 11 12  1  0
 11 18  2  0
 12 13  2  0
 12 17  1  0
 13 14  1  0
 14 15  2  0
 15 16  1  0
 16 17  2  0
 19 20  2  0
  1 21  1  0
  1 22  1  0
  1 23  1  0
  4 24  1  0
  4 25  1  0
  5 26  1  0
  8 27  1  0
  9 28  1  0
 10 29  1  0
 13 30  1  0
 14 31  1  0
 15 32  1  0
 17 33  1  0
 18 34  1  0
 35 36  1  0
 36 37  2  0
 37 38  1  0
 38 39  1  0
 39 35  2  0
 36 40  1  0
 37 41  1  0
 38 42  1  0
  6 35  1  0
M  CHG  1   5   1
M  END
>  <attachment_point>  (177) 
26

>  <score>  (177) 
<NA>

$$$$
CAT-4j
     RDKit          3D

 60 63  0  0  1  0  0  0  0  0999 V2000
   11.7106   -2.3098    1.2658 C   0  0  0  0  0  0  0  0  0  0  0  0
   13.0313   -2.6523    0.7225 N   0  0  0  0  0  0  0  0  0  0  0  0
   14.2010   -2.6281    1.3773 C   0  0  0  0  0  0  0  0  0  0  0  0
   14.3777   -2.3568    2.6732 N   0  0  0  0  0  0  0  0  0  0  0  0
   15.2217   -2.9197    0.5738 N   0  0  0  0  0  0  0  0  0  0  0  0
   14.7965   -3.2519   -0.7875 C   0  0  1  0  0  0  0  0  0  0  0  0
   15.3794   -2.2443   -1.7949 C   0  0  0  0  0  0  0  0  0  0  0  0
   15.9522   -2.6550   -3.0208 C   0  0  0  0  0  0  0  0  0  0  0  0
   16.4340   -1.6937   -3.9273 C   0  0  0  0  0  0  0  0  0  0  0  0
   16.3364   -0.3224   -3.6308 C   0  0  0  0  0  0  0  0  0  0  0  0
   15.7943    0.1250   -2.4073 C   0  0  0  0  0  0  0  0  0  0  0  0
   15.6711    1.5693   -2.0915 C   0  0  0  0  0  0  0  0  0  0  0  0
   15.3832    2.0354   -0.7903 C   0  0  0  0  0  0  0  0  0  0  0  0
   15.3534    3.4188   -0.5357 C   0  0  0  0  0  0  0  0  0  0  0  0
   15.5968    4.3049   -1.5946 C   0  0  0  0  0  0  0  0  0  0  0  0
   15.8275    3.8920   -2.8511 N   0  0  0  0  0  0  0  0  0  0  0  0
   15.8598    2.5642   -3.0762 C   0  0  0  0  0  0  0  0  0  0  0  0
   15.3327   -0.8573   -1.5012 C   0  0  0  0  0  0  0  0  0  0  0  0
   13.2767   -3.0094   -0.6368 C   0  0  0  0  0  0  0  0  0  0  0  0
   12.3981   -3.0674   -1.5055 O   0  0  0  0  0  0  0  0  0  0  0  0
    0.0000    0.0000    0.0000 H   0  0  0  0  0  0  0  0  0  0  0  0
    0.0000    0.0000    0.0000 H   0  0  0  0  0  0  0  0  0  0  0  0
    0.0000    0.0000    0.0000 H   0  0  0  0  0  0  0  0  0  0  0  0
    0.0000    0.0000    0.0000 H   0  0  0  0  0  0  0  0  0  0  0  0
    0.0000    0.0000    0.0000 H   0  0  0  0  0  0  0  0  0  0  0  0
    0.0000    0.0000    0.0000 H   0  0  0  0  0  0  0  0  0  0  0  0
    0.0000    0.0000    0.0000 H   0  0  0  0  0  0  0  0  0  0  0  0
    0.0000    0.0000    0.0000 H   0  0  0  0  0  0  0  0  0  0  0  0
    0.0000    0.0000    0.0000 H   0  0  0  0  0  0  0  0  0  0  0  0
    0.0000    0.0000    0.0000 H   0  0  0  0  0  0  0  0  0  0  0  0
    0.0000    0.0000    0.0000 H   0  0  0  0  0  0  0  0  0  0  0  0
    0.0000    0.0000    0.0000 H   0  0  0  0  0  0  0  0  0  0  0  0
    0.0000    0.0000    0.0000 H   0  0  0  0  0  0  0  0  0  0  0  0
    0.0000    0.0000    0.0000 H   0  0  0  0  0  0  0  0  0  0  0  0
    6.9786   -1.5337   -0.3714 O   0  0  0  0  0  0  0  0  0  0  0  0
    7.0205   -0.1531   -0.1422 C   0  0  0  0  0  0  0  0  0  0  0  0
    5.6208    0.4480   -0.1820 C   0  0  0  0  0  0  0  0  0  0  0  0
    5.7935    1.9328    0.0776 C   0  0  0  0  0  0  0  0  0  0  0  0
    4.5421    2.6369    0.0672 N   0  0  0  0  0  0  0  0  0  0  0  0
    3.7525    2.3026    1.1709 C   0  0  0  0  0  0  0  0  0  0  0  0
    3.6819    3.4403    2.1834 C   0  0  0  0  0  0  0  0  0  0  0  0
    2.9727    4.5581    1.4639 C   0  0  0  0  0  0  0  0  0  0  0  0
    3.7750    4.9834    0.2905 C   0  0  0  0  0  0  0  0  0  0  0  0
    4.7255    3.9879   -0.2709 C   0  0  0  0  0  0  0  0  0  0  0  0
    7.6113    0.3502   -0.9100 H   0  0  0  0  0  0  0  0  0  0  0  0
    7.3988    0.0259    0.8885 H   0  0  0  0  0  0  0  0  0  0  0  0
    4.9180   -0.0294    0.5070 H   0  0  0  0  0  0  0  0  0  0  0  0
    5.2554    0.2903   -1.2429 H   0  0  0  0  0  0  0  0  0  0  0  0
    6.5266    2.3206   -0.6719 H   0  0  0  0  0  0  0  0  0  0  0  0
    6.2540    2.0639    1.1050 H   0  0  0  0  0  0  0  0  0  0  0  0
    4.0484    1.3962    1.7100 H   0  0  0  0  0  0  0  0  0  0  0  0
    2.6776    2.1678    0.8432 H   0  0  0  0  0  0  0  0  0  0  0  0
    3.0552    3.1254    3.0193 H   0  0  0  0  0  0  0  0  0  0  0  0
    4.6989    3.7874    2.4589 H   0  0  0  0  0  0  0  0  0  0  0  0
    2.8248    5.4028    2.1644 H   0  0  0  0  0  0  0  0  0  0  0  0
    1.9631    4.2091    1.1401 H   0  0  0  0  0  0  0  0  0  0  0  0
    3.0487    5.3369   -0.4754 H   0  0  0  0  0  0  0  0  0  0  0  0
    4.3368    5.9092    0.5928 H   0  0  0  0  0  0  0  0  0  0  0  0
    4.6360    4.0523   -1.3981 H   0  0  0  0  0  0  0  0  0  0  0  0
    5.7749    4.3192   -0.0887 H   0  0  0  0  0  0  0  0  0  0  0  0
  1  2  1  0
  2  3  1  0
  2 19  1  0
  3  4  1  0
  3  5  2  0
  5  6  1  0
  6  7  1  0
  6 19  1  0
  7  8  2  0
  7 18  1  0
  8  9  1  0
  9 10  2  0
 10 11  1  0
 11 12  1  0
 11 18  2  0
 12 13  2  0
 12 17  1  0
 13 14  1  0
 14 15  2  0
 15 16  1  0
 16 17  2  0
 19 20  2  0
  1 21  1  0
  1 22  1  0
  1 23  1  0
  4 24  1  0
  4 25  1  0
  5 26  1  0
  8 27  1  0
  9 28  1  0
 10 29  1  0
 13 30  1  0
 14 31  1  0
 15 32  1  0
 17 33  1  0
 18 34  1  0
 35 36  1  0
 36 37  1  0
 37 38  1  0
 38 39  1  0
 39 40  1  0
 40 41  1  0
 41 42  1  0
 42 43  1  0
 43 44  1  0
 44 39  1  0
 36 45  1  0
 36 46  1  0
 37 47  1  0
 37 48  1  0
 38 49  1  0
 38 50  1  0
 40 51  1  0
 40 52  1  0
 41 53  1  0
 41 54  1  0
 42 55  1  0
 42 56  1  0
 43 57  1  0
 43 58  1  0
 44 59  1  0
 44 60  1  0
  6 35  1  6
M  CHG  1   5   1
M  END
>  <attachment_point>  (178) 
26

>  <score>  (178) 
<NA>

$$$$
CAT-4j
     RDKit          3D

 51 53  0  0  1  0  0  0  0  0999 V2000
   11.7106   -2.3098    1.2658 C   0  0  0  0  0  0  0  0  0  0  0  0
   13.0313   -2.6523    0.7225 N   0  0  0  0  0  0  0  0  0  0  0  0
   14.2010   -2.6281    1.3773 C   0  0  0  0  0  0  0  0  0  0  0  0
   14.3777   -2.3568    2.6732 N   0  0  0  0  0  0  0  0  0  0  0  0
   15.2217   -2.9197    0.5738 N   0  0  0  0  0  0  0  0  0  0  0  0
   14.7965   -3.2519   -0.7875 C   0  0  1  0  0  0  0  0  0  0  0  0
   15.3794   -2.2443   -1.7949 C   0  0  0  0  0  0  0  0  0  0  0  0
   15.9522   -2.6550   -3.0208 C   0  0  0  0  0  0  0  0  0  0  0  0
   16.4340   -1.6937   -3.9273 C   0  0  0  0  0  0  0  0  0  0  0  0
   16.3364   -0.3224   -3.6308 C   0  0  0  0  0  0  0  0  0  0  0  0
   15.7943    0.1250   -2.4073 C   0  0  0  0  0  0  0  0  0  0  0  0
   15.6711    1.5693   -2.0915 C   0  0  0  0  0  0  0  0  0  0  0  0
   15.3832    2.0354   -0.7903 C   0  0  0  0  0  0  0  0  0  0  0  0
   15.3534    3.4188   -0.5357 C   0  0  0  0  0  0  0  0  0  0  0  0
   15.5968    4.3049   -1.5946 C   0  0  0  0  0  0  0  0  0  0  0  0
   15.8275    3.8920   -2.8511 N   0  0  0  0  0  0  0  0  0  0  0  0
   15.8598    2.5642   -3.0762 C   0  0  0  0  0  0  0  0  0  0  0  0
   15.3327   -0.8573   -1.5012 C   0  0  0  0  0  0  0  0  0  0  0  0
   13.2767   -3.0094   -0.6368 C   0  0  0  0  0  0  0  0  0  0  0  0
   12.3981   -3.0674   -1.5055 O   0  0  0  0  0  0  0  0  0  0  0  0
    0.0000    0.0000    0.0000 H   0  0  0  0  0  0  0  0  0  0  0  0
    0.0000    0.0000    0.0000 H   0  0  0  0  0  0  0  0  0  0  0  0
    0.0000    0.0000    0.0000 H   0  0  0  0  0  0  0  0  0  0  0  0
    0.0000    0.0000    0.0000 H   0  0  0  0  0  0  0  0  0  0  0  0
    0.0000    0.0000    0.0000 H   0  0  0  0  0  0  0  0  0  0  0  0
    0.0000    0.0000    0.0000 H   0  0  0  0  0  0  0  0  0  0  0  0
    0.0000    0.0000    0.0000 H   0  0  0  0  0  0  0  0  0  0  0  0
    0.0000    0.0000    0.0000 H   0  0  0  0  0  0  0  0  0  0  0  0
    0.0000    0.0000    0.0000 H   0  0  0  0  0  0  0  0  0  0  0  0
    0.0000    0.0000    0.0000 H   0  0  0  0  0  0  0  0  0  0  0  0
    0.0000    0.0000    0.0000 H   0  0  0  0  0  0  0  0  0  0  0  0
    0.0000    0.0000    0.0000 H   0  0  0  0  0  0  0  0  0  0  0  0
    0.0000    0.0000    0.0000 H   0  0  0  0  0  0  0  0  0  0  0  0
    0.0000    0.0000    0.0000 H   0  0  0  0  0  0  0  0  0  0  0  0
    6.9450   -1.5263   -0.3696 C   0  0  0  0  0  0  0  0  0  0  0  0
    6.7054   -0.3149   -0.2529 O   0  0  0  0  0  0  0  0  0  0  0  0
    6.0062   -2.5592   -0.4310 N   0  0  0  0  0  0  0  0  0  0  0  0
    4.6031   -2.2309   -0.3546 C   0  0  0  0  0  0  0  0  0  0  0  0
    4.0780   -2.2198    1.0422 C   0  0  0  0  0  0  0  0  0  0  0  0
    6.4271   -3.9094   -0.5662 C   0  0  0  0  0  0  0  0  0  0  0  0
    6.6536   -4.6118    0.7541 C   0  0  0  0  0  0  0  0  0  0  0  0
    4.0222   -2.9347   -1.0128 H   0  0  0  0  0  0  0  0  0  0  0  0
    4.4173   -1.2197   -0.8066 H   0  0  0  0  0  0  0  0  0  0  0  0
    3.6653   -3.2014    1.3587 H   0  0  0  0  0  0  0  0  0  0  0  0
    4.9230   -1.8938    1.7139 H   0  0  0  0  0  0  0  0  0  0  0  0
    3.2787   -1.4727    1.1222 H   0  0  0  0  0  0  0  0  0  0  0  0
    5.6342   -4.4911   -1.0981 H   0  0  0  0  0  0  0  0  0  0  0  0
    7.3644   -3.9290   -1.1535 H   0  0  0  0  0  0  0  0  0  0  0  0
    7.5096   -4.2177    1.3086 H   0  0  0  0  0  0  0  0  0  0  0  0
    6.8106   -5.6880    0.5222 H   0  0  0  0  0  0  0  0  0  0  0  0
    5.7511   -4.5556    1.3903 H   0  0  0  0  0  0  0  0  0  0  0  0
  1  2  1  0
  2  3  1  0
  2 19  1  0
  3  4  1  0
  3  5  2  0
  5  6  1  0
  6  7  1  0
  6 19  1  0
  7  8  2  0
  7 18  1  0
  8  9  1  0
  9 10  2  0
 10 11  1  0
 11 12  1  0
 11 18  2  0
 12 13  2  0
 12 17  1  0
 13 14  1  0
 14 15  2  0
 15 16  1  0
 16 17  2  0
 19 20  2  0
  1 21  1  0
  1 22  1  0
  1 23  1  0
  4 24  1  0
  4 25  1  0
  5 26  1  0
  8 27  1  0
  9 28  1  0
 10 29  1  0
 13 30  1  0
 14 31  1  0
 15 32  1  0
 17 33  1  0
 18 34  1  0
 35 36  2  0
 35 37  1  0
 37 38  1  0
 38 39  1  0
 37 40  1  0
 40 41  1  0
 38 42  1  0
 38 43  1  0
 39 44  1  0
 39 45  1  0
 39 46  1  0
 40 47  1  0
 40 48  1  0
 41 49  1  0
 41 50  1  0
 41 51  1  0
  6 35  1  6
M  CHG  1   5   1
M  END
>  <attachment_point>  (179) 
26

>  <score>  (179) 
<NA>

$$$$
CAT-4j
     RDKit          3D

 50 53  0  0  1  0  0  0  0  0999 V2000
   11.7106   -2.3098    1.2658 C   0  0  0  0  0  0  0  0  0  0  0  0
   13.0313   -2.6523    0.7225 N   0  0  0  0  0  0  0  0  0  0  0  0
   14.2010   -2.6281    1.3773 C   0  0  0  0  0  0  0  0  0  0  0  0
   14.3777   -2.3568    2.6732 N   0  0  0  0  0  0  0  0  0  0  0  0
   15.2217   -2.9197    0.5738 N   0  0  0  0  0  0  0  0  0  0  0  0
   14.7965   -3.2519   -0.7875 C   0  0  1  0  0  0  0  0  0  0  0  0
   15.3794   -2.2443   -1.7949 C   0  0  0  0  0  0  0  0  0  0  0  0
   15.9522   -2.6550   -3.0208 C   0  0  0  0  0  0  0  0  0  0  0  0
   16.4340   -1.6937   -3.9273 C   0  0  0  0  0  0  0  0  0  0  0  0
   16.3364   -0.3224   -3.6308 C   0  0  0  0  0  0  0  0  0  0  0  0
   15.7943    0.1250   -2.4073 C   0  0  0  0  0  0  0  0  0  0  0  0
   15.6711    1.5693   -2.0915 C   0  0  0  0  0  0  0  0  0  0  0  0
   15.3832    2.0354   -0.7903 C   0  0  0  0  0  0  0  0  0  0  0  0
   15.3534    3.4188   -0.5357 C   0  0  0  0  0  0  0  0  0  0  0  0
   15.5968    4.3049   -1.5946 C   0  0  0  0  0  0  0  0  0  0  0  0
   15.8275    3.8920   -2.8511 N   0  0  0  0  0  0  0  0  0  0  0  0
   15.8598    2.5642   -3.0762 C   0  0  0  0  0  0  0  0  0  0  0  0
   15.3327   -0.8573   -1.5012 C   0  0  0  0  0  0  0  0  0  0  0  0
   13.2767   -3.0094   -0.6368 C   0  0  0  0  0  0  0  0  0  0  0  0
   12.3981   -3.0674   -1.5055 O   0  0  0  0  0  0  0  0  0  0  0  0
    0.0000    0.0000    0.0000 H   0  0  0  0  0  0  0  0  0  0  0  0
    0.0000    0.0000    0.0000 H   0  0  0  0  0  0  0  0  0  0  0  0
    0.0000    0.0000    0.0000 H   0  0  0  0  0  0  0  0  0  0  0  0
    0.0000    0.0000    0.0000 H   0  0  0  0  0  0  0  0  0  0  0  0
    0.0000    0.0000    0.0000 H   0  0  0  0  0  0  0  0  0  0  0  0
    0.0000    0.0000    0.0000 H   0  0  0  0  0  0  0  0  0  0  0  0
    0.0000    0.0000    0.0000 H   0  0  0  0  0  0  0  0  0  0  0  0
    0.0000    0.0000    0.0000 H   0  0  0  0  0  0  0  0  0  0  0  0
    0.0000    0.0000    0.0000 H   0  0  0  0  0  0  0  0  0  0  0  0
    0.0000    0.0000    0.0000 H   0  0  0  0  0  0  0  0  0  0  0  0
    0.0000    0.0000    0.0000 H   0  0  0  0  0  0  0  0  0  0  0  0
    0.0000    0.0000    0.0000 H   0  0  0  0  0  0  0  0  0  0  0  0
    0.0000    0.0000    0.0000 H   0  0  0  0  0  0  0  0  0  0  0  0
    0.0000    0.0000    0.0000 H   0  0  0  0  0  0  0  0  0  0  0  0
    6.9582   -1.5292   -0.3703 C   0  0  0  0  0  0  0  0  0  0  0  0
    6.5081   -0.3515    0.1626 C   0  0  0  0  0  0  0  0  0  0  0  0
    5.1702   -0.1264    0.2011 C   0  0  0  0  0  0  0  0  0  0  0  0
    4.2317   -1.0213   -0.2686 C   0  0  0  0  0  0  0  0  0  0  0  0
    2.7977   -0.7978   -0.2357 C   0  0  0  0  0  0  0  0  0  0  0  0
    2.3499    0.5132    0.3600 C   0  0  0  0  0  0  0  0  0  0  0  0
    1.9601   -1.6062   -0.6593 O   0  0  0  0  0  0  0  0  0  0  0  0
    4.6988   -2.2000   -0.8010 C   0  0  0  0  0  0  0  0  0  0  0  0
    6.0680   -2.4682   -0.8584 C   0  0  0  0  0  0  0  0  0  0  0  0
    7.2159    0.3588    0.5335 H   0  0  0  0  0  0  0  0  0  0  0  0
    4.7831    0.7972    0.6173 H   0  0  0  0  0  0  0  0  0  0  0  0
    2.8755    0.5618    1.3551 H   0  0  0  0  0  0  0  0  0  0  0  0
    2.8189    1.3016   -0.2624 H   0  0  0  0  0  0  0  0  0  0  0  0
    1.2671    0.5796    0.4443 H   0  0  0  0  0  0  0  0  0  0  0  0
    4.0014   -2.9185   -1.1753 H   0  0  0  0  0  0  0  0  0  0  0  0
    6.4041   -3.4031   -1.2826 H   0  0  0  0  0  0  0  0  0  0  0  0
  1  2  1  0
  2  3  1  0
  2 19  1  0
  3  4  1  0
  3  5  2  0
  5  6  1  0
  6  7  1  1
  6 19  1  0
  7  8  2  0
  7 18  1  0
  8  9  1  0
  9 10  2  0
 10 11  1  0
 11 12  1  0
 11 18  2  0
 12 13  2  0
 12 17  1  0
 13 14  1  0
 14 15  2  0
 15 16  1  0
 16 17  2  0
 19 20  2  0
  1 21  1  0
  1 22  1  0
  1 23  1  0
  4 24  1  0
  4 25  1  0
  5 26  1  0
  8 27  1  0
  9 28  1  0
 10 29  1  0
 13 30  1  0
 14 31  1  0
 15 32  1  0
 17 33  1  0
 18 34  1  0
 35 36  2  0
 36 37  1  0
 37 38  2  0
 38 39  1  0
 39 40  1  0
 39 41  2  0
 38 42  1  0
 42 43  2  0
 43 35  1  0
 36 44  1  0
 37 45  1  0
 40 46  1  0
 40 47  1  0
 40 48  1  0
 42 49  1  0
 43 50  1  0
  6 35  1  0
M  CHG  1   5   1
M  END
>  <attachment_point>  (180) 
26

>  <score>  (180) 
<NA>

$$$$
CAT-4j
     RDKit          3D

 47 51  0  0  1  0  0  0  0  0999 V2000
   11.7106   -2.3098    1.2658 C   0  0  0  0  0  0  0  0  0  0  0  0
   13.0313   -2.6523    0.7225 N   0  0  0  0  0  0  0  0  0  0  0  0
   14.2010   -2.6281    1.3773 C   0  0  0  0  0  0  0  0  0  0  0  0
   14.3777   -2.3568    2.6732 N   0  0  0  0  0  0  0  0  0  0  0  0
   15.2217   -2.9197    0.5738 N   0  0  0  0  0  0  0  0  0  0  0  0
   14.7965   -3.2519   -0.7875 C   0  0  1  0  0  0  0  0  0  0  0  0
   15.3794   -2.2443   -1.7949 C   0  0  0  0  0  0  0  0  0  0  0  0
   15.9522   -2.6550   -3.0208 C   0  0  0  0  0  0  0  0  0  0  0  0
   16.4340   -1.6937   -3.9273 C   0  0  0  0  0  0  0  0  0  0  0  0
   16.3364   -0.3224   -3.6308 C   0  0  0  0  0  0  0  0  0  0  0  0
   15.7943    0.1250   -2.4073 C   0  0  0  0  0  0  0  0  0  0  0  0
   15.6711    1.5693   -2.0915 C   0  0  0  0  0  0  0  0  0  0  0  0
   15.3832    2.0354   -0.7903 C   0  0  0  0  0  0  0  0  0  0  0  0
   15.3534    3.4188   -0.5357 C   0  0  0  0  0  0  0  0  0  0  0  0
   15.5968    4.3049   -1.5946 C   0  0  0  0  0  0  0  0  0  0  0  0
   15.8275    3.8920   -2.8511 N   0  0  0  0  0  0  0  0  0  0  0  0
   15.8598    2.5642   -3.0762 C   0  0  0  0  0  0  0  0  0  0  0  0
   15.3327   -0.8573   -1.5012 C   0  0  0  0  0  0  0  0  0  0  0  0
   13.2767   -3.0094   -0.6368 C   0  0  0  0  0  0  0  0  0  0  0  0
   12.3981   -3.0674   -1.5055 O   0  0  0  0  0  0  0  0  0  0  0  0
    0.0000    0.0000    0.0000 H   0  0  0  0  0  0  0  0  0  0  0  0
    0.0000    0.0000    0.0000 H   0  0  0  0  0  0  0  0  0  0  0  0
    0.0000    0.0000    0.0000 H   0  0  0  0  0  0  0  0  0  0  0  0
    0.0000    0.0000    0.0000 H   0  0  0  0  0  0  0  0  0  0  0  0
    0.0000    0.0000    0.0000 H   0  0  0  0  0  0  0  0  0  0  0  0
    0.0000    0.0000    0.0000 H   0  0  0  0  0  0  0  0  0  0  0  0
    0.0000    0.0000    0.0000 H   0  0  0  0  0  0  0  0  0  0  0  0
    0.0000    0.0000    0.0000 H   0  0  0  0  0  0  0  0  0  0  0  0
    0.0000    0.0000    0.0000 H   0  0  0  0  0  0  0  0  0  0  0  0
    0.0000    0.0000    0.0000 H   0  0  0  0  0  0  0  0  0  0  0  0
    0.0000    0.0000    0.0000 H   0  0  0  0  0  0  0  0  0  0  0  0
    0.0000    0.0000    0.0000 H   0  0  0  0  0  0  0  0  0  0  0  0
    0.0000    0.0000    0.0000 H   0  0  0  0  0  0  0  0  0  0  0  0
    0.0000    0.0000    0.0000 H   0  0  0  0  0  0  0  0  0  0  0  0
    6.9639   -1.5305   -0.3706 C   0  0  0  0  0  0  0  0  0  0  0  0
    5.9864   -1.9657   -1.1850 N   0  0  0  0  0  0  0  0  0  0  0  0
    4.8375   -1.4296   -0.7457 C   0  0  0  0  0  0  0  0  0  0  0  0
    3.5110   -1.4885   -1.1419 C   0  0  0  0  0  0  0  0  0  0  0  0
    2.5028   -0.8130   -0.4831 C   0  0  0  0  0  0  0  0  0  0  0  0
    2.8593   -0.0555    0.6122 C   0  0  0  0  0  0  0  0  0  0  0  0
    4.1851    0.0102    1.0175 C   0  0  0  0  0  0  0  0  0  0  0  0
    5.1837   -0.6687    0.3516 C   0  0  0  0  0  0  0  0  0  0  0  0
    6.4977   -0.7484    0.5604 O   0  0  0  0  0  0  0  0  0  0  0  0
    3.2527   -2.0853   -1.9994 H   0  0  0  0  0  0  0  0  0  0  0  0
    1.4744   -0.8901   -0.8323 H   0  0  0  0  0  0  0  0  0  0  0  0
    2.0722    0.4763    1.1324 H   0  0  0  0  0  0  0  0  0  0  0  0
    4.4386    0.6127    1.8812 H   0  0  0  0  0  0  0  0  0  0  0  0
  1  2  1  0
  2  3  1  0
  2 19  1  0
  3  4  1  0
  3  5  2  0
  5  6  1  0
  6  7  1  1
  6 19  1  0
  7  8  2  0
  7 18  1  0
  8  9  1  0
  9 10  2  0
 10 11  1  0
 11 12  1  0
 11 18  2  0
 12 13  2  0
 12 17  1  0
 13 14  1  0
 14 15  2  0
 15 16  1  0
 16 17  2  0
 19 20  2  0
  1 21  1  0
  1 22  1  0
  1 23  1  0
  4 24  1  0
  4 25  1  0
  5 26  1  0
  8 27  1  0
  9 28  1  0
 10 29  1  0
 13 30  1  0
 14 31  1  0
 15 32  1  0
 17 33  1  0
 18 34  1  0
 35 36  2  0
 36 37  1  0
 37 38  2  0
 38 39  1  0
 39 40  2  0
 40 41  1  0
 41 42  2  0
 42 43  1  0
 43 35  1  0
 42 37  1  0
 38 44  1  0
 39 45  1  0
 40 46  1  0
 41 47  1  0
  6 35  1  0
M  CHG  1   5   1
M  END
>  <attachment_point>  (181) 
26

>  <score>  (181) 
<NA>

$$$$
CAT-4j
     RDKit          3D

 54 57  0  0  1  0  0  0  0  0999 V2000
   11.7106   -2.3098    1.2658 C   0  0  0  0  0  0  0  0  0  0  0  0
   13.0313   -2.6523    0.7225 N   0  0  0  0  0  0  0  0  0  0  0  0
   14.2010   -2.6281    1.3773 C   0  0  0  0  0  0  0  0  0  0  0  0
   14.3777   -2.3568    2.6732 N   0  0  0  0  0  0  0  0  0  0  0  0
   15.2217   -2.9197    0.5738 N   0  0  0  0  0  0  0  0  0  0  0  0
   14.7965   -3.2519   -0.7875 C   0  0  1  0  0  0  0  0  0  0  0  0
   15.3794   -2.2443   -1.7949 C   0  0  0  0  0  0  0  0  0  0  0  0
   15.9522   -2.6550   -3.0208 C   0  0  0  0  0  0  0  0  0  0  0  0
   16.4340   -1.6937   -3.9273 C   0  0  0  0  0  0  0  0  0  0  0  0
   16.3364   -0.3224   -3.6308 C   0  0  0  0  0  0  0  0  0  0  0  0
   15.7943    0.1250   -2.4073 C   0  0  0  0  0  0  0  0  0  0  0  0
   15.6711    1.5693   -2.0915 C   0  0  0  0  0  0  0  0  0  0  0  0
   15.3832    2.0354   -0.7903 C   0  0  0  0  0  0  0  0  0  0  0  0
   15.3534    3.4188   -0.5357 C   0  0  0  0  0  0  0  0  0  0  0  0
   15.5968    4.3049   -1.5946 C   0  0  0  0  0  0  0  0  0  0  0  0
   15.8275    3.8920   -2.8511 N   0  0  0  0  0  0  0  0  0  0  0  0
   15.8598    2.5642   -3.0762 C   0  0  0  0  0  0  0  0  0  0  0  0
   15.3327   -0.8573   -1.5012 C   0  0  0  0  0  0  0  0  0  0  0  0
   13.2767   -3.0094   -0.6368 C   0  0  0  0  0  0  0  0  0  0  0  0
   12.3981   -3.0674   -1.5055 O   0  0  0  0  0  0  0  0  0  0  0  0
    0.0000    0.0000    0.0000 H   0  0  0  0  0  0  0  0  0  0  0  0
    0.0000    0.0000    0.0000 H   0  0  0  0  0  0  0  0  0  0  0  0
    0.0000    0.0000    0.0000 H   0  0  0  0  0  0  0  0  0  0  0  0
    0.0000    0.0000    0.0000 H   0  0  0  0  0  0  0  0  0  0  0  0
    0.0000    0.0000    0.0000 H   0  0  0  0  0  0  0  0  0  0  0  0
    0.0000    0.0000    0.0000 H   0  0  0  0  0  0  0  0  0  0  0  0
    0.0000    0.0000    0.0000 H   0  0  0  0  0  0  0  0  0  0  0  0
    0.0000    0.0000    0.0000 H   0  0  0  0  0  0  0  0  0  0  0  0
    0.0000    0.0000    0.0000 H   0  0  0  0  0  0  0  0  0  0  0  0
    0.0000    0.0000    0.0000 H   0  0  0  0  0  0  0  0  0  0  0  0
    0.0000    0.0000    0.0000 H   0  0  0  0  0  0  0  0  0  0  0  0
    0.0000    0.0000    0.0000 H   0  0  0  0  0  0  0  0  0  0  0  0
    0.0000    0.0000    0.0000 H   0  0  0  0  0  0  0  0  0  0  0  0
    0.0000    0.0000    0.0000 H   0  0  0  0  0  0  0  0  0  0  0  0
    6.9764   -1.5332   -0.3713 C   0  0  0  0  0  0  0  0  0  0  0  0
    6.6709   -0.3252   -0.5028 O   0  0  0  0  0  0  0  0  0  0  0  0
    5.9758   -2.4938   -0.1652 N   0  0  0  0  0  0  0  0  0  0  0  0
    6.2371   -3.9102   -0.0031 C   0  0  0  0  0  0  0  0  0  0  0  0
    5.4795   -4.5941   -1.1160 C   0  0  0  0  0  0  0  0  0  0  0  0
    4.1316   -4.2501   -1.2356 N   0  0  0  0  0  0  0  0  0  0  0  0
    3.2967   -5.3742   -0.8520 C   0  0  0  0  0  0  0  0  0  0  0  0
    3.6444   -3.0504   -0.7266 C   0  0  0  0  0  0  0  0  0  0  0  0
    4.5947   -2.0966   -0.1037 C   0  0  0  0  0  0  0  0  0  0  0  0
    7.3116   -4.1471   -0.1111 H   0  0  0  0  0  0  0  0  0  0  0  0
    5.8146   -4.2868    0.9580 H   0  0  0  0  0  0  0  0  0  0  0  0
    6.0941   -4.4245   -2.0488 H   0  0  0  0  0  0  0  0  0  0  0  0
    5.6001   -5.7022   -0.9257 H   0  0  0  0  0  0  0  0  0  0  0  0
    2.2403   -4.9948   -0.8494 H   0  0  0  0  0  0  0  0  0  0  0  0
    3.6218   -5.7215    0.1289 H   0  0  0  0  0  0  0  0  0  0  0  0
    3.4280   -6.1425   -1.6511 H   0  0  0  0  0  0  0  0  0  0  0  0
    2.8331   -3.2582    0.0352 H   0  0  0  0  0  0  0  0  0  0  0  0
    3.0826   -2.5095   -1.5471 H   0  0  0  0  0  0  0  0  0  0  0  0
    4.3763   -1.9293    0.9952 H   0  0  0  0  0  0  0  0  0  0  0  0
    4.4721   -1.0567   -0.5336 H   0  0  0  0  0  0  0  0  0  0  0  0
  1  2  1  0
  2  3  1  0
  2 19  1  0
  3  4  1  0
  3  5  2  0
  5  6  1  0
  6  7  1  0
  6 19  1  0
  7  8  2  0
  7 18  1  0
  8  9  1  0
  9 10  2  0
 10 11  1  0
 11 12  1  0
 11 18  2  0
 12 13  2  0
 12 17  1  0
 13 14  1  0
 14 15  2  0
 15 16  1  0
 16 17  2  0
 19 20  2  0
  1 21  1  0
  1 22  1  0
  1 23  1  0
  4 24  1  0
  4 25  1  0
  5 26  1  0
  8 27  1  0
  9 28  1  0
 10 29  1  0
 13 30  1  0
 14 31  1  0
 15 32  1  0
 17 33  1  0
 18 34  1  0
 35 36  2  0
 35 37  1  0
 37 38  1  0
 38 39  1  0
 39 40  1  0
 40 41  1  0
 40 42  1  0
 42 43  1  0
 43 37  1  0
 38 44  1  0
 38 45  1  0
 39 46  1  0
 39 47  1  0
 41 48  1  0
 41 49  1  0
 41 50  1  0
 42 51  1  0
 42 52  1  0
 43 53  1  0
 43 54  1  0
  6 35  1  6
M  CHG  1   5   1
M  END
>  <attachment_point>  (182) 
26

>  <score>  (182) 
<NA>

$$$$
CAT-4j
     RDKit          3D

 42 45  0  0  1  0  0  0  0  0999 V2000
   11.7106   -2.3098    1.2658 C   0  0  0  0  0  0  0  0  0  0  0  0
   13.0313   -2.6523    0.7225 N   0  0  0  0  0  0  0  0  0  0  0  0
   14.2010   -2.6281    1.3773 C   0  0  0  0  0  0  0  0  0  0  0  0
   14.3777   -2.3568    2.6732 N   0  0  0  0  0  0  0  0  0  0  0  0
   15.2217   -2.9197    0.5738 N   0  0  0  0  0  0  0  0  0  0  0  0
   14.7965   -3.2519   -0.7875 C   0  0  1  0  0  0  0  0  0  0  0  0
   15.3794   -2.2443   -1.7949 C   0  0  0  0  0  0  0  0  0  0  0  0
   15.9522   -2.6550   -3.0208 C   0  0  0  0  0  0  0  0  0  0  0  0
   16.4340   -1.6937   -3.9273 C   0  0  0  0  0  0  0  0  0  0  0  0
   16.3364   -0.3224   -3.6308 C   0  0  0  0  0  0  0  0  0  0  0  0
   15.7943    0.1250   -2.4073 C   0  0  0  0  0  0  0  0  0  0  0  0
   15.6711    1.5693   -2.0915 C   0  0  0  0  0  0  0  0  0  0  0  0
   15.3832    2.0354   -0.7903 C   0  0  0  0  0  0  0  0  0  0  0  0
   15.3534    3.4188   -0.5357 C   0  0  0  0  0  0  0  0  0  0  0  0
   15.5968    4.3049   -1.5946 C   0  0  0  0  0  0  0  0  0  0  0  0
   15.8275    3.8920   -2.8511 N   0  0  0  0  0  0  0  0  0  0  0  0
   15.8598    2.5642   -3.0762 C   0  0  0  0  0  0  0  0  0  0  0  0
   15.3327   -0.8573   -1.5012 C   0  0  0  0  0  0  0  0  0  0  0  0
   13.2767   -3.0094   -0.6368 C   0  0  0  0  0  0  0  0  0  0  0  0
   12.3981   -3.0674   -1.5055 O   0  0  0  0  0  0  0  0  0  0  0  0
    0.0000    0.0000    0.0000 H   0  0  0  0  0  0  0  0  0  0  0  0
    0.0000    0.0000    0.0000 H   0  0  0  0  0  0  0  0  0  0  0  0
    0.0000    0.0000    0.0000 H   0  0  0  0  0  0  0  0  0  0  0  0
    0.0000    0.0000    0.0000 H   0  0  0  0  0  0  0  0  0  0  0  0
    0.0000    0.0000    0.0000 H   0  0  0  0  0  0  0  0  0  0  0  0
    0.0000    0.0000    0.0000 H   0  0  0  0  0  0  0  0  0  0  0  0
    0.0000    0.0000    0.0000 H   0  0  0  0  0  0  0  0  0  0  0  0
    0.0000    0.0000    0.0000 H   0  0  0  0  0  0  0  0  0  0  0  0
    0.0000    0.0000    0.0000 H   0  0  0  0  0  0  0  0  0  0  0  0
    0.0000    0.0000    0.0000 H   0  0  0  0  0  0  0  0  0  0  0  0
    0.0000    0.0000    0.0000 H   0  0  0  0  0  0  0  0  0  0  0  0
    0.0000    0.0000    0.0000 H   0  0  0  0  0  0  0  0  0  0  0  0
    0.0000    0.0000    0.0000 H   0  0  0  0  0  0  0  0  0  0  0  0
    0.0000    0.0000    0.0000 H   0  0  0  0  0  0  0  0  0  0  0  0
    6.9928   -1.5368   -0.3722 N   0  0  0  0  0  0  0  0  0  0  0  0
    6.0829   -1.6333   -1.3487 C   0  0  0  0  0  0  0  0  0  0  0  0
    4.8445   -1.2485   -0.8932 C   0  0  0  0  0  0  0  0  0  0  0  0
    5.0456   -0.9079    0.4271 C   0  0  0  0  0  0  0  0  0  0  0  0
    6.3475   -1.0979    0.6899 N   0  0  0  0  0  0  0  0  0  0  0  0
    6.2953   -1.9690   -2.3594 H   0  0  0  0  0  0  0  0  0  0  0  0
    3.8978   -1.2016   -1.3997 H   0  0  0  0  0  0  0  0  0  0  0  0
    4.2957   -0.5461    1.1482 H   0  0  0  0  0  0  0  0  0  0  0  0
  1  2  1  0
  2  3  1  0
  2 19  1  0
  3  4  1  0
  3  5  2  0
  5  6  1  0
  6  7  1  0
  6 19  1  0
  7  8  2  0
  7 18  1  0
  8  9  1  0
  9 10  2  0
 10 11  1  0
 11 12  1  0
 11 18  2  0
 12 13  2  0
 12 17  1  0
 13 14  1  0
 14 15  2  0
 15 16  1  0
 16 17  2  0
 19 20  2  0
  1 21  1  0
  1 22  1  0
  1 23  1  0
  4 24  1  0
  4 25  1  0
  5 26  1  0
  8 27  1  0
  9 28  1  0
 10 29  1  0
 13 30  1  0
 14 31  1  0
 15 32  1  0
 17 33  1  0
 18 34  1  0
 35 36  1  0
 36 37  2  0
 37 38  1  0
 38 39  2  0
 39 35  1  0
 36 40  1  0
 37 41  1  0
 38 42  1  0
  6 35  1  6
M  CHG  1   5   1
M  END
>  <attachment_point>  (183) 
26

>  <score>  (183) 
<NA>

$$$$
CAT-4j
     RDKit          3D

 46 49  0  0  1  0  0  0  0  0999 V2000
   11.7106   -2.3098    1.2658 C   0  0  0  0  0  0  0  0  0  0  0  0
   13.0313   -2.6523    0.7225 N   0  0  0  0  0  0  0  0  0  0  0  0
   14.2010   -2.6281    1.3773 C   0  0  0  0  0  0  0  0  0  0  0  0
   14.3777   -2.3568    2.6732 N   0  0  0  0  0  0  0  0  0  0  0  0
   15.2217   -2.9197    0.5738 N   0  0  0  0  0  0  0  0  0  0  0  0
   14.7965   -3.2519   -0.7875 C   0  0  1  0  0  0  0  0  0  0  0  0
   15.3794   -2.2443   -1.7949 C   0  0  0  0  0  0  0  0  0  0  0  0
   15.9522   -2.6550   -3.0208 C   0  0  0  0  0  0  0  0  0  0  0  0
   16.4340   -1.6937   -3.9273 C   0  0  0  0  0  0  0  0  0  0  0  0
   16.3364   -0.3224   -3.6308 C   0  0  0  0  0  0  0  0  0  0  0  0
   15.7943    0.1250   -2.4073 C   0  0  0  0  0  0  0  0  0  0  0  0
   15.6711    1.5693   -2.0915 C   0  0  0  0  0  0  0  0  0  0  0  0
   15.3832    2.0354   -0.7903 C   0  0  0  0  0  0  0  0  0  0  0  0
   15.3534    3.4188   -0.5357 C   0  0  0  0  0  0  0  0  0  0  0  0
   15.5968    4.3049   -1.5946 C   0  0  0  0  0  0  0  0  0  0  0  0
   15.8275    3.8920   -2.8511 N   0  0  0  0  0  0  0  0  0  0  0  0
   15.8598    2.5642   -3.0762 C   0  0  0  0  0  0  0  0  0  0  0  0
   15.3327   -0.8573   -1.5012 C   0  0  0  0  0  0  0  0  0  0  0  0
   13.2767   -3.0094   -0.6368 C   0  0  0  0  0  0  0  0  0  0  0  0
   12.3981   -3.0674   -1.5055 O   0  0  0  0  0  0  0  0  0  0  0  0
    0.0000    0.0000    0.0000 H   0  0  0  0  0  0  0  0  0  0  0  0
    0.0000    0.0000    0.0000 H   0  0  0  0  0  0  0  0  0  0  0  0
    0.0000    0.0000    0.0000 H   0  0  0  0  0  0  0  0  0  0  0  0
    0.0000    0.0000    0.0000 H   0  0  0  0  0  0  0  0  0  0  0  0
    0.0000    0.0000    0.0000 H   0  0  0  0  0  0  0  0  0  0  0  0
    0.0000    0.0000    0.0000 H   0  0  0  0  0  0  0  0  0  0  0  0
    0.0000    0.0000    0.0000 H   0  0  0  0  0  0  0  0  0  0  0  0
    0.0000    0.0000    0.0000 H   0  0  0  0  0  0  0  0  0  0  0  0
    0.0000    0.0000    0.0000 H   0  0  0  0  0  0  0  0  0  0  0  0
    0.0000    0.0000    0.0000 H   0  0  0  0  0  0  0  0  0  0  0  0
    0.0000    0.0000    0.0000 H   0  0  0  0  0  0  0  0  0  0  0  0
    0.0000    0.0000    0.0000 H   0  0  0  0  0  0  0  0  0  0  0  0
    0.0000    0.0000    0.0000 H   0  0  0  0  0  0  0  0  0  0  0  0
    0.0000    0.0000    0.0000 H   0  0  0  0  0  0  0  0  0  0  0  0
    7.0700   -1.5538   -0.3763 S   0  0  0  0  0  0  0  0  0  0  0  0
    5.6018   -2.5129   -0.6129 C   0  0  0  0  0  0  0  0  0  0  0  0
    4.3483   -1.9398   -0.4731 C   0  0  0  0  0  0  0  0  0  0  0  0
    3.2020   -2.6802   -0.6557 C   0  0  0  0  0  0  0  0  0  0  0  0
    3.3164   -4.0313   -0.9873 C   0  0  0  0  0  0  0  0  0  0  0  0
    4.5713   -4.5849   -1.1223 C   0  0  0  0  0  0  0  0  0  0  0  0
    5.7386   -3.8598   -0.9435 C   0  0  0  0  0  0  0  0  0  0  0  0
    4.2230   -0.8961   -0.2170 H   0  0  0  0  0  0  0  0  0  0  0  0
    2.2011   -2.2822   -0.5588 H   0  0  0  0  0  0  0  0  0  0  0  0
    2.4196   -4.6498   -1.1399 H   0  0  0  0  0  0  0  0  0  0  0  0
    4.6771   -5.6149   -1.3751 H   0  0  0  0  0  0  0  0  0  0  0  0
    6.7139   -4.3222   -1.0563 H   0  0  0  0  0  0  0  0  0  0  0  0
  1  2  1  0
  2  3  1  0
  2 19  1  0
  3  4  1  0
  3  5  2  0
  5  6  1  0
  6  7  1  0
  6 19  1  0
  7  8  2  0
  7 18  1  0
  8  9  1  0
  9 10  2  0
 10 11  1  0
 11 12  1  0
 11 18  2  0
 12 13  2  0
 12 17  1  0
 13 14  1  0
 14 15  2  0
 15 16  1  0
 16 17  2  0
 19 20  2  0
  1 21  1  0
  1 22  1  0
  1 23  1  0
  4 24  1  0
  4 25  1  0
  5 26  1  0
  8 27  1  0
  9 28  1  0
 10 29  1  0
 13 30  1  0
 14 31  1  0
 15 32  1  0
 17 33  1  0
 18 34  1  0
 35 36  1  0
 36 37  2  0
 37 38  1  0
 38 39  2  0
 39 40  1  0
 40 41  2  0
 41 36  1  0
 37 42  1  0
 38 43  1  0
 39 44  1  0
 40 45  1  0
 41 46  1  0
  6 35  1  6
M  CHG  1   5   1
M  END
>  <attachment_point>  (184) 
26

>  <score>  (184) 
<NA>

$$$$
CAT-4j
     RDKit          3D

 42 44  0  0  1  0  0  0  0  0999 V2000
   11.7106   -2.3098    1.2658 C   0  0  0  0  0  0  0  0  0  0  0  0
   13.0313   -2.6523    0.7225 N   0  0  0  0  0  0  0  0  0  0  0  0
   14.2010   -2.6281    1.3773 C   0  0  0  0  0  0  0  0  0  0  0  0
   14.3777   -2.3568    2.6732 N   0  0  0  0  0  0  0  0  0  0  0  0
   15.2217   -2.9197    0.5738 N   0  0  0  0  0  0  0  0  0  0  0  0
   14.7965   -3.2519   -0.7875 C   0  0  1  0  0  0  0  0  0  0  0  0
   15.3794   -2.2443   -1.7949 C   0  0  0  0  0  0  0  0  0  0  0  0
   15.9522   -2.6550   -3.0208 C   0  0  0  0  0  0  0  0  0  0  0  0
   16.4340   -1.6937   -3.9273 C   0  0  0  0  0  0  0  0  0  0  0  0
   16.3364   -0.3224   -3.6308 C   0  0  0  0  0  0  0  0  0  0  0  0
   15.7943    0.1250   -2.4073 C   0  0  0  0  0  0  0  0  0  0  0  0
   15.6711    1.5693   -2.0915 C   0  0  0  0  0  0  0  0  0  0  0  0
   15.3832    2.0354   -0.7903 C   0  0  0  0  0  0  0  0  0  0  0  0
   15.3534    3.4188   -0.5357 C   0  0  0  0  0  0  0  0  0  0  0  0
   15.5968    4.3049   -1.5946 C   0  0  0  0  0  0  0  0  0  0  0  0
   15.8275    3.8920   -2.8511 N   0  0  0  0  0  0  0  0  0  0  0  0
   15.8598    2.5642   -3.0762 C   0  0  0  0  0  0  0  0  0  0  0  0
   15.3327   -0.8573   -1.5012 C   0  0  0  0  0  0  0  0  0  0  0  0
   13.2767   -3.0094   -0.6368 C   0  0  0  0  0  0  0  0  0  0  0  0
   12.3981   -3.0674   -1.5055 O   0  0  0  0  0  0  0  0  0  0  0  0
    0.0000    0.0000    0.0000 H   0  0  0  0  0  0  0  0  0  0  0  0
    0.0000    0.0000    0.0000 H   0  0  0  0  0  0  0  0  0  0  0  0
    0.0000    0.0000    0.0000 H   0  0  0  0  0  0  0  0  0  0  0  0
    0.0000    0.0000    0.0000 H   0  0  0  0  0  0  0  0  0  0  0  0
    0.0000    0.0000    0.0000 H   0  0  0  0  0  0  0  0  0  0  0  0
    0.0000    0.0000    0.0000 H   0  0  0  0  0  0  0  0  0  0  0  0
    0.0000    0.0000    0.0000 H   0  0  0  0  0  0  0  0  0  0  0  0
    0.0000    0.0000    0.0000 H   0  0  0  0  0  0  0  0  0  0  0  0
    0.0000    0.0000    0.0000 H   0  0  0  0  0  0  0  0  0  0  0  0
    0.0000    0.0000    0.0000 H   0  0  0  0  0  0  0  0  0  0  0  0
    0.0000    0.0000    0.0000 H   0  0  0  0  0  0  0  0  0  0  0  0
    0.0000    0.0000    0.0000 H   0  0  0  0  0  0  0  0  0  0  0  0
    0.0000    0.0000    0.0000 H   0  0  0  0  0  0  0  0  0  0  0  0
    0.0000    0.0000    0.0000 H   0  0  0  0  0  0  0  0  0  0  0  0
    7.0710   -1.5540   -0.3763 N   0  0  0  0  0  0  0  0  0  0  0  0
    6.6644    0.0478    0.1152 S   0  0  0  0  0  6  0  0  0  0  0  0
    7.3402    1.1230   -1.0765 N   0  0  0  0  0  0  0  0  0  0  0  0
    5.1768    0.2541    0.1962 O   0  0  0  0  0  0  0  0  0  0  0  0
    7.3303    0.2989    1.4301 O   0  0  0  0  0  0  0  0  0  0  0  0
    6.2790   -1.9699   -0.8813 H   0  0  0  0  0  0  0  0  0  0  0  0
    7.1372    2.1101   -0.8417 H   0  0  0  0  0  0  0  0  0  0  0  0
    8.3406    0.8833   -1.1443 H   0  0  0  0  0  0  0  0  0  0  0  0
  1  2  1  0
  2  3  1  0
  2 19  1  0
  3  4  1  0
  3  5  2  0
  5  6  1  0
  6  7  1  0
  6 19  1  0
  7  8  2  0
  7 18  1  0
  8  9  1  0
  9 10  2  0
 10 11  1  0
 11 12  1  0
 11 18  2  0
 12 13  2  0
 12 17  1  0
 13 14  1  0
 14 15  2  0
 15 16  1  0
 16 17  2  0
 19 20  2  0
  1 21  1  0
  1 22  1  0
  1 23  1  0
  4 24  1  0
  4 25  1  0
  5 26  1  0
  8 27  1  0
  9 28  1  0
 10 29  1  0
 13 30  1  0
 14 31  1  0
 15 32  1  0
 17 33  1  0
 18 34  1  0
 35 36  1  0
 36 37  1  0
 36 38  2  0
 36 39  2  0
 35 40  1  0
 37 41  1  0
 37 42  1  0
  6 35  1  6
M  CHG  1   5   1
M  END
>  <attachment_point>  (185) 
26

>  <score>  (185) 
<NA>

$$$$
CAT-4j
     RDKit          3D

 51 54  0  0  1  0  0  0  0  0999 V2000
   11.7106   -2.3098    1.2658 C   0  0  0  0  0  0  0  0  0  0  0  0
   13.0313   -2.6523    0.7225 N   0  0  0  0  0  0  0  0  0  0  0  0
   14.2010   -2.6281    1.3773 C   0  0  0  0  0  0  0  0  0  0  0  0
   14.3777   -2.3568    2.6732 N   0  0  0  0  0  0  0  0  0  0  0  0
   15.2217   -2.9197    0.5738 N   0  0  0  0  0  0  0  0  0  0  0  0
   14.7965   -3.2519   -0.7875 C   0  0  1  0  0  0  0  0  0  0  0  0
   15.3794   -2.2443   -1.7949 C   0  0  0  0  0  0  0  0  0  0  0  0
   15.9522   -2.6550   -3.0208 C   0  0  0  0  0  0  0  0  0  0  0  0
   16.4340   -1.6937   -3.9273 C   0  0  0  0  0  0  0  0  0  0  0  0
   16.3364   -0.3224   -3.6308 C   0  0  0  0  0  0  0  0  0  0  0  0
   15.7943    0.1250   -2.4073 C   0  0  0  0  0  0  0  0  0  0  0  0
   15.6711    1.5693   -2.0915 C   0  0  0  0  0  0  0  0  0  0  0  0
   15.3832    2.0354   -0.7903 C   0  0  0  0  0  0  0  0  0  0  0  0
   15.3534    3.4188   -0.5357 C   0  0  0  0  0  0  0  0  0  0  0  0
   15.5968    4.3049   -1.5946 C   0  0  0  0  0  0  0  0  0  0  0  0
   15.8275    3.8920   -2.8511 N   0  0  0  0  0  0  0  0  0  0  0  0
   15.8598    2.5642   -3.0762 C   0  0  0  0  0  0  0  0  0  0  0  0
   15.3327   -0.8573   -1.5012 C   0  0  0  0  0  0  0  0  0  0  0  0
   13.2767   -3.0094   -0.6368 C   0  0  0  0  0  0  0  0  0  0  0  0
   12.3981   -3.0674   -1.5055 O   0  0  0  0  0  0  0  0  0  0  0  0
    0.0000    0.0000    0.0000 H   0  0  0  0  0  0  0  0  0  0  0  0
    0.0000    0.0000    0.0000 H   0  0  0  0  0  0  0  0  0  0  0  0
    0.0000    0.0000    0.0000 H   0  0  0  0  0  0  0  0  0  0  0  0
    0.0000    0.0000    0.0000 H   0  0  0  0  0  0  0  0  0  0  0  0
    0.0000    0.0000    0.0000 H   0  0  0  0  0  0  0  0  0  0  0  0
    0.0000    0.0000    0.0000 H   0  0  0  0  0  0  0  0  0  0  0  0
    0.0000    0.0000    0.0000 H   0  0  0  0  0  0  0  0  0  0  0  0
    0.0000    0.0000    0.0000 H   0  0  0  0  0  0  0  0  0  0  0  0
    0.0000    0.0000    0.0000 H   0  0  0  0  0  0  0  0  0  0  0  0
    0.0000    0.0000    0.0000 H   0  0  0  0  0  0  0  0  0  0  0  0
    0.0000    0.0000    0.0000 H   0  0  0  0  0  0  0  0  0  0  0  0
    0.0000    0.0000    0.0000 H   0  0  0  0  0  0  0  0  0  0  0  0
    0.0000    0.0000    0.0000 H   0  0  0  0  0  0  0  0  0  0  0  0
    0.0000    0.0000    0.0000 H   0  0  0  0  0  0  0  0  0  0  0  0
    6.8492   -1.5053   -0.3645 N   0  0  0  0  0  0  0  0  0  0  0  0
    6.1189   -2.6184   -0.5997 C   0  0  0  0  0  0  0  0  0  0  0  0
    5.5821   -3.4285    0.4112 C   0  0  0  0  0  0  0  0  0  0  0  0
    4.8657   -4.5562    0.1470 C   0  0  0  0  0  0  0  0  0  0  0  0
    4.6147   -4.9861   -1.1378 C   0  0  0  0  0  0  0  0  0  0  0  0
    3.8781   -6.1479   -1.3736 O   0  0  0  0  0  0  0  0  0  0  0  0
    3.6162   -6.6052   -2.6777 C   0  0  0  0  0  0  0  0  0  0  0  0
    5.1240   -4.2166   -2.1572 C   0  0  0  0  0  0  0  0  0  0  0  0
    5.8407   -3.0875   -1.9024 C   0  0  0  0  0  0  0  0  0  0  0  0
    6.8504   -0.5952   -0.1635 H   0  0  0  0  0  0  0  0  0  0  0  0
    5.7861   -3.0847    1.4317 H   0  0  0  0  0  0  0  0  0  0  0  0
    4.4720   -5.1496    0.9705 H   0  0  0  0  0  0  0  0  0  0  0  0
    4.4898   -7.2067   -3.0753 H   0  0  0  0  0  0  0  0  0  0  0  0
    3.3211   -5.7947   -3.3706 H   0  0  0  0  0  0  0  0  0  0  0  0
    2.7410   -7.3220   -2.6647 H   0  0  0  0  0  0  0  0  0  0  0  0
    4.9189   -4.5577   -3.1647 H   0  0  0  0  0  0  0  0  0  0  0  0
    6.2478   -2.4758   -2.7201 H   0  0  0  0  0  0  0  0  0  0  0  0
  1  2  1  0
  2  3  1  0
  2 19  1  0
  3  4  1  0
  3  5  2  0
  5  6  1  0
  6  7  1  0
  6 19  1  0
  7  8  2  0
  7 18  1  0
  8  9  1  0
  9 10  2  0
 10 11  1  0
 11 12  1  0
 11 18  2  0
 12 13  2  0
 12 17  1  0
 13 14  1  0
 14 15  2  0
 15 16  1  0
 16 17  2  0
 19 20  2  0
  1 21  1  0
  1 22  1  0
  1 23  1  0
  4 24  1  0
  4 25  1  0
  5 26  1  0
  8 27  1  0
  9 28  1  0
 10 29  1  0
 13 30  1  0
 14 31  1  0
 15 32  1  0
 17 33  1  0
 18 34  1  0
 35 36  1  0
 36 37  2  0
 37 38  1  0
 38 39  2  0
 39 40  1  0
 40 41  1  0
 39 42  1  0
 42 43  2  0
 43 36  1  0
 35 44  1  0
 37 45  1  0
 38 46  1  0
 41 47  1  0
 41 48  1  0
 41 49  1  0
 42 50  1  0
 43 51  1  0
  6 35  1  6
M  CHG  1   5   1
M  END
>  <attachment_point>  (186) 
26

>  <score>  (186) 
<NA>

$$$$
CAT-4j
     RDKit          3D

 48 51  0  0  1  0  0  0  0  0999 V2000
   11.7106   -2.3098    1.2658 C   0  0  0  0  0  0  0  0  0  0  0  0
   13.0313   -2.6523    0.7225 N   0  0  0  0  0  0  0  0  0  0  0  0
   14.2010   -2.6281    1.3773 C   0  0  0  0  0  0  0  0  0  0  0  0
   14.3777   -2.3568    2.6732 N   0  0  0  0  0  0  0  0  0  0  0  0
   15.2217   -2.9197    0.5738 N   0  0  0  0  0  0  0  0  0  0  0  0
   14.7965   -3.2519   -0.7875 C   0  0  1  0  0  0  0  0  0  0  0  0
   15.3794   -2.2443   -1.7949 C   0  0  0  0  0  0  0  0  0  0  0  0
   15.9522   -2.6550   -3.0208 C   0  0  0  0  0  0  0  0  0  0  0  0
   16.4340   -1.6937   -3.9273 C   0  0  0  0  0  0  0  0  0  0  0  0
   16.3364   -0.3224   -3.6308 C   0  0  0  0  0  0  0  0  0  0  0  0
   15.7943    0.1250   -2.4073 C   0  0  0  0  0  0  0  0  0  0  0  0
   15.6711    1.5693   -2.0915 C   0  0  0  0  0  0  0  0  0  0  0  0
   15.3832    2.0354   -0.7903 C   0  0  0  0  0  0  0  0  0  0  0  0
   15.3534    3.4188   -0.5357 C   0  0  0  0  0  0  0  0  0  0  0  0
   15.5968    4.3049   -1.5946 C   0  0  0  0  0  0  0  0  0  0  0  0
   15.8275    3.8920   -2.8511 N   0  0  0  0  0  0  0  0  0  0  0  0
   15.8598    2.5642   -3.0762 C   0  0  0  0  0  0  0  0  0  0  0  0
   15.3327   -0.8573   -1.5012 C   0  0  0  0  0  0  0  0  0  0  0  0
   13.2767   -3.0094   -0.6368 C   0  0  0  0  0  0  0  0  0  0  0  0
   12.3981   -3.0674   -1.5055 O   0  0  0  0  0  0  0  0  0  0  0  0
    0.0000    0.0000    0.0000 H   0  0  0  0  0  0  0  0  0  0  0  0
    0.0000    0.0000    0.0000 H   0  0  0  0  0  0  0  0  0  0  0  0
    0.0000    0.0000    0.0000 H   0  0  0  0  0  0  0  0  0  0  0  0
    0.0000    0.0000    0.0000 H   0  0  0  0  0  0  0  0  0  0  0  0
    0.0000    0.0000    0.0000 H   0  0  0  0  0  0  0  0  0  0  0  0
    0.0000    0.0000    0.0000 H   0  0  0  0  0  0  0  0  0  0  0  0
    0.0000    0.0000    0.0000 H   0  0  0  0  0  0  0  0  0  0  0  0
    0.0000    0.0000    0.0000 H   0  0  0  0  0  0  0  0  0  0  0  0
    0.0000    0.0000    0.0000 H   0  0  0  0  0  0  0  0  0  0  0  0
    0.0000    0.0000    0.0000 H   0  0  0  0  0  0  0  0  0  0  0  0
    0.0000    0.0000    0.0000 H   0  0  0  0  0  0  0  0  0  0  0  0
    0.0000    0.0000    0.0000 H   0  0  0  0  0  0  0  0  0  0  0  0
    0.0000    0.0000    0.0000 H   0  0  0  0  0  0  0  0  0  0  0  0
    0.0000    0.0000    0.0000 H   0  0  0  0  0  0  0  0  0  0  0  0
    6.7925   -1.4928   -0.3615 C   0  0  0  0  0  0  0  0  0  0  0  0
    7.0028   -0.0961   -0.0754 C   0  0  0  0  0  0  0  0  0  0  0  0
    7.0960    0.8236   -1.0981 C   0  0  0  0  0  0  0  0  0  0  0  0
    7.2983    2.1768   -0.8627 C   0  0  0  0  0  0  0  0  0  0  0  0
    7.4115    2.6247    0.4530 C   0  0  0  0  0  0  0  0  0  0  0  0
    7.6651    4.3314    0.7123 Cl  0  0  0  0  0  0  0  0  0  0  0  0
    7.3184    1.7054    1.4771 C   0  0  0  0  0  0  0  0  0  0  0  0
    7.1171    0.3661    1.2149 C   0  0  0  0  0  0  0  0  0  0  0  0
    6.7245   -1.8136   -1.3736 H   0  0  0  0  0  0  0  0  0  0  0  0
    6.7554   -2.1927    0.4402 H   0  0  0  0  0  0  0  0  0  0  0  0
    7.0158    0.5378   -2.1513 H   0  0  0  0  0  0  0  0  0  0  0  0
    7.3700    2.8950   -1.6908 H   0  0  0  0  0  0  0  0  0  0  0  0
    7.4107    2.0886    2.4817 H   0  0  0  0  0  0  0  0  0  0  0  0
    7.0443   -0.3518    2.0120 H   0  0  0  0  0  0  0  0  0  0  0  0
  1  2  1  0
  2  3  1  0
  2 19  1  0
  3  4  1  0
  3  5  2  0
  5  6  1  0
  6  7  1  0
  6 19  1  0
  7  8  2  0
  7 18  1  0
  8  9  1  0
  9 10  2  0
 10 11  1  0
 11 12  1  0
 11 18  2  0
 12 13  2  0
 12 17  1  0
 13 14  1  0
 14 15  2  0
 15 16  1  0
 16 17  2  0
 19 20  2  0
  1 21  1  0
  1 22  1  0
  1 23  1  0
  4 24  1  0
  4 25  1  0
  5 26  1  0
  8 27  1  0
  9 28  1  0
 10 29  1  0
 13 30  1  0
 14 31  1  0
 15 32  1  0
 17 33  1  0
 18 34  1  0
 35 36  1  0
 36 37  2  0
 37 38  1  0
 38 39  2  0
 39 40  1  0
 39 41  1  0
 41 42  2  0
 42 36  1  0
 35 43  1  0
 35 44  1  0
 37 45  1  0
 38 46  1  0
 41 47  1  0
 42 48  1  0
  6 35  1  6
M  CHG  1   5   1
M  END
>  <attachment_point>  (187) 
26

>  <score>  (187) 
<NA>

$$$$
CAT-4j
     RDKit          3D

 46 48  0  0  1  0  0  0  0  0999 V2000
   11.7106   -2.3098    1.2658 C   0  0  0  0  0  0  0  0  0  0  0  0
   13.0313   -2.6523    0.7225 N   0  0  0  0  0  0  0  0  0  0  0  0
   14.2010   -2.6281    1.3773 C   0  0  0  0  0  0  0  0  0  0  0  0
   14.3777   -2.3568    2.6732 N   0  0  0  0  0  0  0  0  0  0  0  0
   15.2217   -2.9197    0.5738 N   0  0  0  0  0  0  0  0  0  0  0  0
   14.7965   -3.2519   -0.7875 C   0  0  1  0  0  0  0  0  0  0  0  0
   15.3794   -2.2443   -1.7949 C   0  0  0  0  0  0  0  0  0  0  0  0
   15.9522   -2.6550   -3.0208 C   0  0  0  0  0  0  0  0  0  0  0  0
   16.4340   -1.6937   -3.9273 C   0  0  0  0  0  0  0  0  0  0  0  0
   16.3364   -0.3224   -3.6308 C   0  0  0  0  0  0  0  0  0  0  0  0
   15.7943    0.1250   -2.4073 C   0  0  0  0  0  0  0  0  0  0  0  0
   15.6711    1.5693   -2.0915 C   0  0  0  0  0  0  0  0  0  0  0  0
   15.3832    2.0354   -0.7903 C   0  0  0  0  0  0  0  0  0  0  0  0
   15.3534    3.4188   -0.5357 C   0  0  0  0  0  0  0  0  0  0  0  0
   15.5968    4.3049   -1.5946 C   0  0  0  0  0  0  0  0  0  0  0  0
   15.8275    3.8920   -2.8511 N   0  0  0  0  0  0  0  0  0  0  0  0
   15.8598    2.5642   -3.0762 C   0  0  0  0  0  0  0  0  0  0  0  0
   15.3327   -0.8573   -1.5012 C   0  0  0  0  0  0  0  0  0  0  0  0
   13.2767   -3.0094   -0.6368 C   0  0  0  0  0  0  0  0  0  0  0  0
   12.3981   -3.0674   -1.5055 O   0  0  0  0  0  0  0  0  0  0  0  0
    0.0000    0.0000    0.0000 H   0  0  0  0  0  0  0  0  0  0  0  0
    0.0000    0.0000    0.0000 H   0  0  0  0  0  0  0  0  0  0  0  0
    0.0000    0.0000    0.0000 H   0  0  0  0  0  0  0  0  0  0  0  0
    0.0000    0.0000    0.0000 H   0  0  0  0  0  0  0  0  0  0  0  0
    0.0000    0.0000    0.0000 H   0  0  0  0  0  0  0  0  0  0  0  0
    0.0000    0.0000    0.0000 H   0  0  0  0  0  0  0  0  0  0  0  0
    0.0000    0.0000    0.0000 H   0  0  0  0  0  0  0  0  0  0  0  0
    0.0000    0.0000    0.0000 H   0  0  0  0  0  0  0  0  0  0  0  0
    0.0000    0.0000    0.0000 H   0  0  0  0  0  0  0  0  0  0  0  0
    0.0000    0.0000    0.0000 H   0  0  0  0  0  0  0  0  0  0  0  0
    0.0000    0.0000    0.0000 H   0  0  0  0  0  0  0  0  0  0  0  0
    0.0000    0.0000    0.0000 H   0  0  0  0  0  0  0  0  0  0  0  0
    0.0000    0.0000    0.0000 H   0  0  0  0  0  0  0  0  0  0  0  0
    0.0000    0.0000    0.0000 H   0  0  0  0  0  0  0  0  0  0  0  0
    6.9987   -1.5381   -0.3725 C   0  0  0  0  0  0  0  0  0  0  0  0
    6.7635   -0.3307    0.5158 C   0  0  0  0  0  0  0  0  0  0  0  0
    7.4909    0.8668   -0.0400 C   0  0  0  0  0  0  0  0  0  0  0  0
    8.9009    0.5906   -0.0977 N   0  0  0  0  0  0  0  0  0  0  0  0
    6.3796   -2.3917   -0.0548 H   0  0  0  0  0  0  0  0  0  0  0  0
    6.6213   -1.2506   -1.3940 H   0  0  0  0  0  0  0  0  0  0  0  0
    5.6756   -0.1167    0.4761 H   0  0  0  0  0  0  0  0  0  0  0  0
    7.0398   -0.5370    1.5639 H   0  0  0  0  0  0  0  0  0  0  0  0
    7.0448    1.0815   -1.0367 H   0  0  0  0  0  0  0  0  0  0  0  0
    7.3435    1.7311    0.6256 H   0  0  0  0  0  0  0  0  0  0  0  0
    9.1530   -0.1728   -0.7570 H   0  0  0  0  0  0  0  0  0  0  0  0
    9.4981    1.4339   -0.1905 H   0  0  0  0  0  0  0  0  0  0  0  0
  1  2  1  0
  2  3  1  0
  2 19  1  0
  3  4  1  0
  3  5  2  0
  5  6  1  0
  6  7  1  0
  6 19  1  0
  7  8  2  0
  7 18  1  0
  8  9  1  0
  9 10  2  0
 10 11  1  0
 11 12  1  0
 11 18  2  0
 12 13  2  0
 12 17  1  0
 13 14  1  0
 14 15  2  0
 15 16  1  0
 16 17  2  0
 19 20  2  0
  1 21  1  0
  1 22  1  0
  1 23  1  0
  4 24  1  0
  4 25  1  0
  5 26  1  0
  8 27  1  0
  9 28  1  0
 10 29  1  0
 13 30  1  0
 14 31  1  0
 15 32  1  0
 17 33  1  0
 18 34  1  0
 35 36  1  0
 36 37  1  0
 37 38  1  0
 35 39  1  0
 35 40  1  0
 36 41  1  0
 36 42  1  0
 37 43  1  0
 37 44  1  0
 38 45  1  0
 38 46  1  0
  6 35  1  6
M  CHG  1   5   1
M  END
>  <attachment_point>  (188) 
26

>  <score>  (188) 
<NA>

$$$$
CAT-4j
     RDKit          3D

 50 53  0  0  1  0  0  0  0  0999 V2000
   11.7106   -2.3098    1.2658 C   0  0  0  0  0  0  0  0  0  0  0  0
   13.0313   -2.6523    0.7225 N   0  0  0  0  0  0  0  0  0  0  0  0
   14.2010   -2.6281    1.3773 C   0  0  0  0  0  0  0  0  0  0  0  0
   14.3777   -2.3568    2.6732 N   0  0  0  0  0  0  0  0  0  0  0  0
   15.2217   -2.9197    0.5738 N   0  0  0  0  0  0  0  0  0  0  0  0
   14.7965   -3.2519   -0.7875 C   0  0  1  0  0  0  0  0  0  0  0  0
   15.3794   -2.2443   -1.7949 C   0  0  0  0  0  0  0  0  0  0  0  0
   15.9522   -2.6550   -3.0208 C   0  0  0  0  0  0  0  0  0  0  0  0
   16.4340   -1.6937   -3.9273 C   0  0  0  0  0  0  0  0  0  0  0  0
   16.3364   -0.3224   -3.6308 C   0  0  0  0  0  0  0  0  0  0  0  0
   15.7943    0.1250   -2.4073 C   0  0  0  0  0  0  0  0  0  0  0  0
   15.6711    1.5693   -2.0915 C   0  0  0  0  0  0  0  0  0  0  0  0
   15.3832    2.0354   -0.7903 C   0  0  0  0  0  0  0  0  0  0  0  0
   15.3534    3.4188   -0.5357 C   0  0  0  0  0  0  0  0  0  0  0  0
   15.5968    4.3049   -1.5946 C   0  0  0  0  0  0  0  0  0  0  0  0
   15.8275    3.8920   -2.8511 N   0  0  0  0  0  0  0  0  0  0  0  0
   15.8598    2.5642   -3.0762 C   0  0  0  0  0  0  0  0  0  0  0  0
   15.3327   -0.8573   -1.5012 C   0  0  0  0  0  0  0  0  0  0  0  0
   13.2767   -3.0094   -0.6368 C   0  0  0  0  0  0  0  0  0  0  0  0
   12.3981   -3.0674   -1.5055 O   0  0  0  0  0  0  0  0  0  0  0  0
    0.0000    0.0000    0.0000 H   0  0  0  0  0  0  0  0  0  0  0  0
    0.0000    0.0000    0.0000 H   0  0  0  0  0  0  0  0  0  0  0  0
    0.0000    0.0000    0.0000 H   0  0  0  0  0  0  0  0  0  0  0  0
    0.0000    0.0000    0.0000 H   0  0  0  0  0  0  0  0  0  0  0  0
    0.0000    0.0000    0.0000 H   0  0  0  0  0  0  0  0  0  0  0  0
    0.0000    0.0000    0.0000 H   0  0  0  0  0  0  0  0  0  0  0  0
    0.0000    0.0000    0.0000 H   0  0  0  0  0  0  0  0  0  0  0  0
    0.0000    0.0000    0.0000 H   0  0  0  0  0  0  0  0  0  0  0  0
    0.0000    0.0000    0.0000 H   0  0  0  0  0  0  0  0  0  0  0  0
    0.0000    0.0000    0.0000 H   0  0  0  0  0  0  0  0  0  0  0  0
    0.0000    0.0000    0.0000 H   0  0  0  0  0  0  0  0  0  0  0  0
    0.0000    0.0000    0.0000 H   0  0  0  0  0  0  0  0  0  0  0  0
    0.0000    0.0000    0.0000 H   0  0  0  0  0  0  0  0  0  0  0  0
    0.0000    0.0000    0.0000 H   0  0  0  0  0  0  0  0  0  0  0  0
    6.8914   -1.5146   -0.3668 N   0  0  0  0  0  0  0  0  0  0  0  0
    6.4708   -2.9104    0.5654 S   0  0  0  0  0  6  0  0  0  0  0  0
    5.0213   -2.8188    0.8497 O   0  0  0  0  0  0  0  0  0  0  0  0
    7.2098   -2.9495    1.8726 O   0  0  0  0  0  0  0  0  0  0  0  0
    6.8523   -4.3589   -0.3447 C   0  0  0  0  0  0  0  0  0  0  0  0
    5.9045   -4.9070   -1.1733 C   0  0  0  0  0  0  0  0  0  0  0  0
    6.2264   -6.0459   -1.8791 C   0  0  0  0  0  0  0  0  0  0  0  0
    7.4908   -6.6037   -1.7340 C   0  0  0  0  0  0  0  0  0  0  0  0
    8.4405   -6.0522   -0.9018 C   0  0  0  0  0  0  0  0  0  0  0  0
    8.1107   -4.9144   -0.2004 C   0  0  0  0  0  0  0  0  0  0  0  0
    6.7678   -1.6910   -1.3891 H   0  0  0  0  0  0  0  0  0  0  0  0
    4.9247   -4.4387   -1.2590 H   0  0  0  0  0  0  0  0  0  0  0  0
    5.4689   -6.4656   -2.5278 H   0  0  0  0  0  0  0  0  0  0  0  0
    7.7474   -7.4988   -2.2870 H   0  0  0  0  0  0  0  0  0  0  0  0
    9.4327   -6.4600   -0.7656 H   0  0  0  0  0  0  0  0  0  0  0  0
    8.8497   -4.4770    0.4534 H   0  0  0  0  0  0  0  0  0  0  0  0
  1  2  1  0
  2  3  1  0
  2 19  1  0
  3  4  1  0
  3  5  2  0
  5  6  1  0
  6  7  1  0
  6 19  1  0
  7  8  2  0
  7 18  1  0
  8  9  1  0
  9 10  2  0
 10 11  1  0
 11 12  1  0
 11 18  2  0
 12 13  2  0
 12 17  1  0
 13 14  1  0
 14 15  2  0
 15 16  1  0
 16 17  2  0
 19 20  2  0
  1 21  1  0
  1 22  1  0
  1 23  1  0
  4 24  1  0
  4 25  1  0
  5 26  1  0
  8 27  1  0
  9 28  1  0
 10 29  1  0
 13 30  1  0
 14 31  1  0
 15 32  1  0
 17 33  1  0
 18 34  1  0
 35 36  1  0
 36 37  2  0
 36 38  2  0
 36 39  1  0
 39 40  2  0
 40 41  1  0
 41 42  2  0
 42 43  1  0
 43 44  2  0
 44 39  1  0
 35 45  1  0
 40 46  1  0
 41 47  1  0
 42 48  1  0
 43 49  1  0
 44 50  1  0
  6 35  1  6
M  CHG  1   5   1
M  END
>  <attachment_point>  (189) 
26

>  <score>  (189) 
<NA>

$$$$
CAT-4j
     RDKit          3D

 52 55  0  0  1  0  0  0  0  0999 V2000
   11.7106   -2.3098    1.2658 C   0  0  0  0  0  0  0  0  0  0  0  0
   13.0313   -2.6523    0.7225 N   0  0  0  0  0  0  0  0  0  0  0  0
   14.2010   -2.6281    1.3773 C   0  0  0  0  0  0  0  0  0  0  0  0
   14.3777   -2.3568    2.6732 N   0  0  0  0  0  0  0  0  0  0  0  0
   15.2217   -2.9197    0.5738 N   0  0  0  0  0  0  0  0  0  0  0  0
   14.7965   -3.2519   -0.7875 C   0  0  1  0  0  0  0  0  0  0  0  0
   15.3794   -2.2443   -1.7949 C   0  0  0  0  0  0  0  0  0  0  0  0
   15.9522   -2.6550   -3.0208 C   0  0  0  0  0  0  0  0  0  0  0  0
   16.4340   -1.6937   -3.9273 C   0  0  0  0  0  0  0  0  0  0  0  0
   16.3364   -0.3224   -3.6308 C   0  0  0  0  0  0  0  0  0  0  0  0
   15.7943    0.1250   -2.4073 C   0  0  0  0  0  0  0  0  0  0  0  0
   15.6711    1.5693   -2.0915 C   0  0  0  0  0  0  0  0  0  0  0  0
   15.3832    2.0354   -0.7903 C   0  0  0  0  0  0  0  0  0  0  0  0
   15.3534    3.4188   -0.5357 C   0  0  0  0  0  0  0  0  0  0  0  0
   15.5968    4.3049   -1.5946 C   0  0  0  0  0  0  0  0  0  0  0  0
   15.8275    3.8920   -2.8511 N   0  0  0  0  0  0  0  0  0  0  0  0
   15.8598    2.5642   -3.0762 C   0  0  0  0  0  0  0  0  0  0  0  0
   15.3327   -0.8573   -1.5012 C   0  0  0  0  0  0  0  0  0  0  0  0
   13.2767   -3.0094   -0.6368 C   0  0  0  0  0  0  0  0  0  0  0  0
   12.3981   -3.0674   -1.5055 O   0  0  0  0  0  0  0  0  0  0  0  0
    0.0000    0.0000    0.0000 H   0  0  0  0  0  0  0  0  0  0  0  0
    0.0000    0.0000    0.0000 H   0  0  0  0  0  0  0  0  0  0  0  0
    0.0000    0.0000    0.0000 H   0  0  0  0  0  0  0  0  0  0  0  0
    0.0000    0.0000    0.0000 H   0  0  0  0  0  0  0  0  0  0  0  0
    0.0000    0.0000    0.0000 H   0  0  0  0  0  0  0  0  0  0  0  0
    0.0000    0.0000    0.0000 H   0  0  0  0  0  0  0  0  0  0  0  0
    0.0000    0.0000    0.0000 H   0  0  0  0  0  0  0  0  0  0  0  0
    0.0000    0.0000    0.0000 H   0  0  0  0  0  0  0  0  0  0  0  0
    0.0000    0.0000    0.0000 H   0  0  0  0  0  0  0  0  0  0  0  0
    0.0000    0.0000    0.0000 H   0  0  0  0  0  0  0  0  0  0  0  0
    0.0000    0.0000    0.0000 H   0  0  0  0  0  0  0  0  0  0  0  0
    0.0000    0.0000    0.0000 H   0  0  0  0  0  0  0  0  0  0  0  0
    0.0000    0.0000    0.0000 H   0  0  0  0  0  0  0  0  0  0  0  0
    0.0000    0.0000    0.0000 H   0  0  0  0  0  0  0  0  0  0  0  0
    6.9811   -1.5343   -0.3715 C   0  0  0  0  0  0  0  0  0  0  0  0
    6.5485   -0.5908    0.5362 C   0  0  0  0  0  0  0  0  0  0  0  0
    5.1996   -0.2478    0.6564 C   0  0  0  0  0  0  0  0  0  0  0  0
    4.3123   -0.8901   -0.1697 C   0  0  0  0  0  0  0  0  0  0  0  0
    2.9905   -0.6013   -0.1017 O   0  0  0  0  0  0  0  0  0  0  0  0
    2.3099    0.2953    0.7100 C   0  0  0  0  0  0  0  0  0  0  0  0
    2.8308    1.6897    0.4457 C   0  0  0  0  0  0  0  0  0  0  0  0
    4.7571   -1.8293   -1.0709 C   0  0  0  0  0  0  0  0  0  0  0  0
    6.0876   -2.1772   -1.1993 C   0  0  0  0  0  0  0  0  0  0  0  0
    7.2309   -0.0700    1.1994 H   0  0  0  0  0  0  0  0  0  0  0  0
    4.9074    0.5044    1.3915 H   0  0  0  0  0  0  0  0  0  0  0  0
    1.2431    0.2843    0.4033 H   0  0  0  0  0  0  0  0  0  0  0  0
    2.3524    0.0407    1.7921 H   0  0  0  0  0  0  0  0  0  0  0  0
    3.6668    1.6543   -0.3019 H   0  0  0  0  0  0  0  0  0  0  0  0
    3.1946    2.1780    1.3760 H   0  0  0  0  0  0  0  0  0  0  0  0
    2.0456    2.3041   -0.0213 H   0  0  0  0  0  0  0  0  0  0  0  0
    4.0483   -2.3442   -1.7327 H   0  0  0  0  0  0  0  0  0  0  0  0
    6.4150   -2.9298   -1.9266 H   0  0  0  0  0  0  0  0  0  0  0  0
  1  2  1  0
  2  3  1  0
  2 19  1  0
  3  4  1  0
  3  5  2  0
  5  6  1  0
  6  7  1  1
  6 19  1  0
  7  8  2  0
  7 18  1  0
  8  9  1  0
  9 10  2  0
 10 11  1  0
 11 12  1  0
 11 18  2  0
 12 13  2  0
 12 17  1  0
 13 14  1  0
 14 15  2  0
 15 16  1  0
 16 17  2  0
 19 20  2  0
  1 21  1  0
  1 22  1  0
  1 23  1  0
  4 24  1  0
  4 25  1  0
  5 26  1  0
  8 27  1  0
  9 28  1  0
 10 29  1  0
 13 30  1  0
 14 31  1  0
 15 32  1  0
 17 33  1  0
 18 34  1  0
 35 36  2  0
 36 37  1  0
 37 38  2  0
 38 39  1  0
 39 40  1  0
 40 41  1  0
 38 42  1  0
 42 43  2  0
 43 35  1  0
 36 44  1  0
 37 45  1  0
 40 46  1  0
 40 47  1  0
 41 48  1  0
 41 49  1  0
 41 50  1  0
 42 51  1  0
 43 52  1  0
  6 35  1  0
M  CHG  1   5   1
M  END
>  <attachment_point>  (190) 
26

>  <score>  (190) 
<NA>

$$$$
CAT-4j
     RDKit          3D

 44 47  0  0  1  0  0  0  0  0999 V2000
   11.7106   -2.3098    1.2658 C   0  0  0  0  0  0  0  0  0  0  0  0
   13.0313   -2.6523    0.7225 N   0  0  0  0  0  0  0  0  0  0  0  0
   14.2010   -2.6281    1.3773 C   0  0  0  0  0  0  0  0  0  0  0  0
   14.3777   -2.3568    2.6732 N   0  0  0  0  0  0  0  0  0  0  0  0
   15.2217   -2.9197    0.5738 N   0  0  0  0  0  0  0  0  0  0  0  0
   14.7965   -3.2519   -0.7875 C   0  0  1  0  0  0  0  0  0  0  0  0
   15.3794   -2.2443   -1.7949 C   0  0  0  0  0  0  0  0  0  0  0  0
   15.9522   -2.6550   -3.0208 C   0  0  0  0  0  0  0  0  0  0  0  0
   16.4340   -1.6937   -3.9273 C   0  0  0  0  0  0  0  0  0  0  0  0
   16.3364   -0.3224   -3.6308 C   0  0  0  0  0  0  0  0  0  0  0  0
   15.7943    0.1250   -2.4073 C   0  0  0  0  0  0  0  0  0  0  0  0
   15.6711    1.5693   -2.0915 C   0  0  0  0  0  0  0  0  0  0  0  0
   15.3832    2.0354   -0.7903 C   0  0  0  0  0  0  0  0  0  0  0  0
   15.3534    3.4188   -0.5357 C   0  0  0  0  0  0  0  0  0  0  0  0
   15.5968    4.3049   -1.5946 C   0  0  0  0  0  0  0  0  0  0  0  0
   15.8275    3.8920   -2.8511 N   0  0  0  0  0  0  0  0  0  0  0  0
   15.8598    2.5642   -3.0762 C   0  0  0  0  0  0  0  0  0  0  0  0
   15.3327   -0.8573   -1.5012 C   0  0  0  0  0  0  0  0  0  0  0  0
   13.2767   -3.0094   -0.6368 C   0  0  0  0  0  0  0  0  0  0  0  0
   12.3981   -3.0674   -1.5055 O   0  0  0  0  0  0  0  0  0  0  0  0
    0.0000    0.0000    0.0000 H   0  0  0  0  0  0  0  0  0  0  0  0
    0.0000    0.0000    0.0000 H   0  0  0  0  0  0  0  0  0  0  0  0
    0.0000    0.0000    0.0000 H   0  0  0  0  0  0  0  0  0  0  0  0
    0.0000    0.0000    0.0000 H   0  0  0  0  0  0  0  0  0  0  0  0
    0.0000    0.0000    0.0000 H   0  0  0  0  0  0  0  0  0  0  0  0
    0.0000    0.0000    0.0000 H   0  0  0  0  0  0  0  0  0  0  0  0
    0.0000    0.0000    0.0000 H   0  0  0  0  0  0  0  0  0  0  0  0
    0.0000    0.0000    0.0000 H   0  0  0  0  0  0  0  0  0  0  0  0
    0.0000    0.0000    0.0000 H   0  0  0  0  0  0  0  0  0  0  0  0
    0.0000    0.0000    0.0000 H   0  0  0  0  0  0  0  0  0  0  0  0
    0.0000    0.0000    0.0000 H   0  0  0  0  0  0  0  0  0  0  0  0
    0.0000    0.0000    0.0000 H   0  0  0  0  0  0  0  0  0  0  0  0
    0.0000    0.0000    0.0000 H   0  0  0  0  0  0  0  0  0  0  0  0
    0.0000    0.0000    0.0000 H   0  0  0  0  0  0  0  0  0  0  0  0
    6.9710   -1.5320   -0.3710 C   0  0  0  0  0  0  0  0  0  0  0  0
    6.0572   -2.4270   -0.5828 C   0  0  0  0  0  0  0  0  0  0  0  0
    6.3472   -4.1342   -0.9886 S   0  0  0  0  0  0  0  0  0  0  0  0
    4.5993   -4.5838   -1.0974 C   0  0  0  0  0  0  0  0  0  0  0  0
    4.0294   -6.0786   -1.4561 S   0  0  0  0  0  0  0  0  0  0  0  0
    3.8931   -3.4049   -0.8150 N   0  0  0  0  0  0  0  0  0  0  0  0
    4.6269   -2.2631   -0.5425 C   0  0  0  0  0  0  0  0  0  0  0  0
    4.1018   -1.1263   -0.2705 O   0  0  0  0  0  0  0  0  0  0  0  0
    6.7770   -0.4875   -0.1227 H   0  0  0  0  0  0  0  0  0  0  0  0
    2.8241   -3.4386   -0.8223 H   0  0  0  0  0  0  0  0  0  0  0  0
  1  2  1  0
  2  3  1  0
  2 19  1  0
  3  4  1  0
  3  5  2  0
  5  6  1  0
  6  7  1  1
  6 19  1  0
  7  8  2  0
  7 18  1  0
  8  9  1  0
  9 10  2  0
 10 11  1  0
 11 12  1  0
 11 18  2  0
 12 13  2  0
 12 17  1  0
 13 14  1  0
 14 15  2  0
 15 16  1  0
 16 17  2  0
 19 20  2  0
  1 21  1  0
  1 22  1  0
  1 23  1  0
  4 24  1  0
  4 25  1  0
  5 26  1  0
  8 27  1  0
  9 28  1  0
 10 29  1  0
 13 30  1  0
 14 31  1  0
 15 32  1  0
 17 33  1  0
 18 34  1  0
 35 36  2  3
 36 37  1  0
 37 38  1  0
 38 39  2  0
 38 40  1  0
 40 41  1  0
 41 42  2  0
 41 36  1  0
 35 43  1  0
 40 44  1  0
  6 35  1  0
M  CHG  1   5   1
M  END
>  <attachment_point>  (191) 
26

>  <score>  (191) 
<NA>

$$$$
CAT-4j
     RDKit          3D

 49 53  0  0  1  0  0  0  0  0999 V2000
   11.7106   -2.3098    1.2658 C   0  0  0  0  0  0  0  0  0  0  0  0
   13.0313   -2.6523    0.7225 N   0  0  0  0  0  0  0  0  0  0  0  0
   14.2010   -2.6281    1.3773 C   0  0  0  0  0  0  0  0  0  0  0  0
   14.3777   -2.3568    2.6732 N   0  0  0  0  0  0  0  0  0  0  0  0
   15.2217   -2.9197    0.5738 N   0  0  0  0  0  0  0  0  0  0  0  0
   14.7965   -3.2519   -0.7875 C   0  0  1  0  0  0  0  0  0  0  0  0
   15.3794   -2.2443   -1.7949 C   0  0  0  0  0  0  0  0  0  0  0  0
   15.9522   -2.6550   -3.0208 C   0  0  0  0  0  0  0  0  0  0  0  0
   16.4340   -1.6937   -3.9273 C   0  0  0  0  0  0  0  0  0  0  0  0
   16.3364   -0.3224   -3.6308 C   0  0  0  0  0  0  0  0  0  0  0  0
   15.7943    0.1250   -2.4073 C   0  0  0  0  0  0  0  0  0  0  0  0
   15.6711    1.5693   -2.0915 C   0  0  0  0  0  0  0  0  0  0  0  0
   15.3832    2.0354   -0.7903 C   0  0  0  0  0  0  0  0  0  0  0  0
   15.3534    3.4188   -0.5357 C   0  0  0  0  0  0  0  0  0  0  0  0
   15.5968    4.3049   -1.5946 C   0  0  0  0  0  0  0  0  0  0  0  0
   15.8275    3.8920   -2.8511 N   0  0  0  0  0  0  0  0  0  0  0  0
   15.8598    2.5642   -3.0762 C   0  0  0  0  0  0  0  0  0  0  0  0
   15.3327   -0.8573   -1.5012 C   0  0  0  0  0  0  0  0  0  0  0  0
   13.2767   -3.0094   -0.6368 C   0  0  0  0  0  0  0  0  0  0  0  0
   12.3981   -3.0674   -1.5055 O   0  0  0  0  0  0  0  0  0  0  0  0
    0.0000    0.0000    0.0000 H   0  0  0  0  0  0  0  0  0  0  0  0
    0.0000    0.0000    0.0000 H   0  0  0  0  0  0  0  0  0  0  0  0
    0.0000    0.0000    0.0000 H   0  0  0  0  0  0  0  0  0  0  0  0
    0.0000    0.0000    0.0000 H   0  0  0  0  0  0  0  0  0  0  0  0
    0.0000    0.0000    0.0000 H   0  0  0  0  0  0  0  0  0  0  0  0
    0.0000    0.0000    0.0000 H   0  0  0  0  0  0  0  0  0  0  0  0
    0.0000    0.0000    0.0000 H   0  0  0  0  0  0  0  0  0  0  0  0
    0.0000    0.0000    0.0000 H   0  0  0  0  0  0  0  0  0  0  0  0
    0.0000    0.0000    0.0000 H   0  0  0  0  0  0  0  0  0  0  0  0
    0.0000    0.0000    0.0000 H   0  0  0  0  0  0  0  0  0  0  0  0
    0.0000    0.0000    0.0000 H   0  0  0  0  0  0  0  0  0  0  0  0
    0.0000    0.0000    0.0000 H   0  0  0  0  0  0  0  0  0  0  0  0
    0.0000    0.0000    0.0000 H   0  0  0  0  0  0  0  0  0  0  0  0
    0.0000    0.0000    0.0000 H   0  0  0  0  0  0  0  0  0  0  0  0
    6.9209   -1.5210   -0.3683 C   0  0  0  0  0  0  0  0  0  0  0  0
    6.2037   -1.3367   -1.4935 C   0  0  0  0  0  0  0  0  0  0  0  0
    4.8402   -1.0389   -1.3368 C   0  0  0  0  0  0  0  0  0  0  0  0
    4.2434   -0.9355   -0.0876 C   0  0  0  0  0  0  0  0  0  0  0  0
    2.9945   -0.6687    0.3263 N   0  0  0  0  0  0  0  0  0  0  0  0
    2.9298   -0.6850    1.6625 C   0  0  0  0  0  0  0  0  0  0  0  0
    4.1970   -0.9753    2.1065 C   0  0  0  0  0  0  0  0  0  0  0  0
    5.0264   -1.1340    1.0253 C   0  0  0  0  0  0  0  0  0  0  0  0
    6.4042   -1.4353    0.8816 C   0  0  0  0  0  0  0  0  0  0  0  0
    6.5927   -1.3997   -2.4981 H   0  0  0  0  0  0  0  0  0  0  0  0
    4.2337   -0.8848   -2.2070 H   0  0  0  0  0  0  0  0  0  0  0  0
    2.2027   -0.4789   -0.3240 H   0  0  0  0  0  0  0  0  0  0  0  0
    2.0340   -0.5013    2.2883 H   0  0  0  0  0  0  0  0  0  0  0  0
    4.5402   -1.0745    3.1265 H   0  0  0  0  0  0  0  0  0  0  0  0
    6.9737   -1.5816    1.7724 H   0  0  0  0  0  0  0  0  0  0  0  0
  1  2  1  0
  2  3  1  0
  2 19  1  0
  3  4  1  0
  3  5  2  0
  5  6  1  0
  6  7  1  1
  6 19  1  0
  7  8  2  0
  7 18  1  0
  8  9  1  0
  9 10  2  0
 10 11  1  0
 11 12  1  0
 11 18  2  0
 12 13  2  0
 12 17  1  0
 13 14  1  0
 14 15  2  0
 15 16  1  0
 16 17  2  0
 19 20  2  0
  1 21  1  0
  1 22  1  0
  1 23  1  0
  4 24  1  0
  4 25  1  0
  5 26  1  0
  8 27  1  0
  9 28  1  0
 10 29  1  0
 13 30  1  0
 14 31  1  0
 15 32  1  0
 17 33  1  0
 18 34  1  0
 35 36  2  0
 36 37  1  0
 37 38  2  0
 38 39  1  0
 39 40  1  0
 40 41  2  0
 41 42  1  0
 42 43  2  0
 43 35  1  0
 42 38  1  0
 36 44  1  0
 37 45  1  0
 39 46  1  0
 40 47  1  0
 41 48  1  0
 43 49  1  0
  6 35  1  0
M  CHG  1   5   1
M  END
>  <attachment_point>  (192) 
26

>  <score>  (192) 
<NA>

$$$$
CAT-4j
     RDKit          3D

 44 46  0  0  1  0  0  0  0  0999 V2000
   11.7106   -2.3098    1.2658 C   0  0  0  0  0  0  0  0  0  0  0  0
   13.0313   -2.6523    0.7225 N   0  0  0  0  0  0  0  0  0  0  0  0
   14.2010   -2.6281    1.3773 C   0  0  0  0  0  0  0  0  0  0  0  0
   14.3777   -2.3568    2.6732 N   0  0  0  0  0  0  0  0  0  0  0  0
   15.2217   -2.9197    0.5738 N   0  0  0  0  0  0  0  0  0  0  0  0
   14.7965   -3.2519   -0.7875 C   0  0  1  0  0  0  0  0  0  0  0  0
   15.3794   -2.2443   -1.7949 C   0  0  0  0  0  0  0  0  0  0  0  0
   15.9522   -2.6550   -3.0208 C   0  0  0  0  0  0  0  0  0  0  0  0
   16.4340   -1.6937   -3.9273 C   0  0  0  0  0  0  0  0  0  0  0  0
   16.3364   -0.3224   -3.6308 C   0  0  0  0  0  0  0  0  0  0  0  0
   15.7943    0.1250   -2.4073 C   0  0  0  0  0  0  0  0  0  0  0  0
   15.6711    1.5693   -2.0915 C   0  0  0  0  0  0  0  0  0  0  0  0
   15.3832    2.0354   -0.7903 C   0  0  0  0  0  0  0  0  0  0  0  0
   15.3534    3.4188   -0.5357 C   0  0  0  0  0  0  0  0  0  0  0  0
   15.5968    4.3049   -1.5946 C   0  0  0  0  0  0  0  0  0  0  0  0
   15.8275    3.8920   -2.8511 N   0  0  0  0  0  0  0  0  0  0  0  0
   15.8598    2.5642   -3.0762 C   0  0  0  0  0  0  0  0  0  0  0  0
   15.3327   -0.8573   -1.5012 C   0  0  0  0  0  0  0  0  0  0  0  0
   13.2767   -3.0094   -0.6368 C   0  0  0  0  0  0  0  0  0  0  0  0
   12.3981   -3.0674   -1.5055 O   0  0  0  0  0  0  0  0  0  0  0  0
    0.0000    0.0000    0.0000 H   0  0  0  0  0  0  0  0  0  0  0  0
    0.0000    0.0000    0.0000 H   0  0  0  0  0  0  0  0  0  0  0  0
    0.0000    0.0000    0.0000 H   0  0  0  0  0  0  0  0  0  0  0  0
    0.0000    0.0000    0.0000 H   0  0  0  0  0  0  0  0  0  0  0  0
    0.0000    0.0000    0.0000 H   0  0  0  0  0  0  0  0  0  0  0  0
    0.0000    0.0000    0.0000 H   0  0  0  0  0  0  0  0  0  0  0  0
    0.0000    0.0000    0.0000 H   0  0  0  0  0  0  0  0  0  0  0  0
    0.0000    0.0000    0.0000 H   0  0  0  0  0  0  0  0  0  0  0  0
    0.0000    0.0000    0.0000 H   0  0  0  0  0  0  0  0  0  0  0  0
    0.0000    0.0000    0.0000 H   0  0  0  0  0  0  0  0  0  0  0  0
    0.0000    0.0000    0.0000 H   0  0  0  0  0  0  0  0  0  0  0  0
    0.0000    0.0000    0.0000 H   0  0  0  0  0  0  0  0  0  0  0  0
    0.0000    0.0000    0.0000 H   0  0  0  0  0  0  0  0  0  0  0  0
    0.0000    0.0000    0.0000 H   0  0  0  0  0  0  0  0  0  0  0  0
    6.9748   -1.5329   -0.3712 O   0  0  0  0  0  0  0  0  0  0  0  0
    6.4615   -2.8344   -0.3188 C   0  0  0  0  0  0  0  0  0  0  0  0
    4.9508   -2.7588   -0.2341 C   0  0  0  0  0  0  0  0  0  0  0  0
    4.4641   -4.1118   -0.1823 N   0  0  0  0  0  0  0  0  0  0  0  0
    6.8740   -3.4068    0.5325 H   0  0  0  0  0  0  0  0  0  0  0  0
    6.6938   -3.2978   -1.3056 H   0  0  0  0  0  0  0  0  0  0  0  0
    4.6107   -2.2275   -1.1622 H   0  0  0  0  0  0  0  0  0  0  0  0
    4.6293   -2.1755    0.6647 H   0  0  0  0  0  0  0  0  0  0  0  0
    3.9409   -4.4121   -1.0067 H   0  0  0  0  0  0  0  0  0  0  0  0
    4.1217   -4.4193    0.7298 H   0  0  0  0  0  0  0  0  0  0  0  0
  1  2  1  0
  2  3  1  0
  2 19  1  0
  3  4  1  0
  3  5  2  0
  5  6  1  0
  6  7  1  0
  6 19  1  0
  7  8  2  0
  7 18  1  0
  8  9  1  0
  9 10  2  0
 10 11  1  0
 11 12  1  0
 11 18  2  0
 12 13  2  0
 12 17  1  0
 13 14  1  0
 14 15  2  0
 15 16  1  0
 16 17  2  0
 19 20  2  0
  1 21  1  0
  1 22  1  0
  1 23  1  0
  4 24  1  0
  4 25  1  0
  5 26  1  0
  8 27  1  0
  9 28  1  0
 10 29  1  0
 13 30  1  0
 14 31  1  0
 15 32  1  0
 17 33  1  0
 18 34  1  0
 35 36  1  0
 36 37  1  0
 37 38  1  0
 36 39  1  0
 36 40  1  0
 37 41  1  0
 37 42  1  0
 38 43  1  0
 38 44  1  0
  6 35  1  6
M  CHG  1   5   1
M  END
>  <attachment_point>  (193) 
26

>  <score>  (193) 
<NA>

$$$$
CAT-4j
     RDKit          3D

 46 48  0  0  1  0  0  0  0  0999 V2000
   11.7106   -2.3098    1.2658 C   0  0  0  0  0  0  0  0  0  0  0  0
   13.0313   -2.6523    0.7225 N   0  0  0  0  0  0  0  0  0  0  0  0
   14.2010   -2.6281    1.3773 C   0  0  0  0  0  0  0  0  0  0  0  0
   14.3777   -2.3568    2.6732 N   0  0  0  0  0  0  0  0  0  0  0  0
   15.2217   -2.9197    0.5738 N   0  0  0  0  0  0  0  0  0  0  0  0
   14.7965   -3.2519   -0.7875 C   0  0  1  0  0  0  0  0  0  0  0  0
   15.3794   -2.2443   -1.7949 C   0  0  0  0  0  0  0  0  0  0  0  0
   15.9522   -2.6550   -3.0208 C   0  0  0  0  0  0  0  0  0  0  0  0
   16.4340   -1.6937   -3.9273 C   0  0  0  0  0  0  0  0  0  0  0  0
   16.3364   -0.3224   -3.6308 C   0  0  0  0  0  0  0  0  0  0  0  0
   15.7943    0.1250   -2.4073 C   0  0  0  0  0  0  0  0  0  0  0  0
   15.6711    1.5693   -2.0915 C   0  0  0  0  0  0  0  0  0  0  0  0
   15.3832    2.0354   -0.7903 C   0  0  0  0  0  0  0  0  0  0  0  0
   15.3534    3.4188   -0.5357 C   0  0  0  0  0  0  0  0  0  0  0  0
   15.5968    4.3049   -1.5946 C   0  0  0  0  0  0  0  0  0  0  0  0
   15.8275    3.8920   -2.8511 N   0  0  0  0  0  0  0  0  0  0  0  0
   15.8598    2.5642   -3.0762 C   0  0  0  0  0  0  0  0  0  0  0  0
   15.3327   -0.8573   -1.5012 C   0  0  0  0  0  0  0  0  0  0  0  0
   13.2767   -3.0094   -0.6368 C   0  0  0  0  0  0  0  0  0  0  0  0
   12.3981   -3.0674   -1.5055 O   0  0  0  0  0  0  0  0  0  0  0  0
    0.0000    0.0000    0.0000 H   0  0  0  0  0  0  0  0  0  0  0  0
    0.0000    0.0000    0.0000 H   0  0  0  0  0  0  0  0  0  0  0  0
    0.0000    0.0000    0.0000 H   0  0  0  0  0  0  0  0  0  0  0  0
    0.0000    0.0000    0.0000 H   0  0  0  0  0  0  0  0  0  0  0  0
    0.0000    0.0000    0.0000 H   0  0  0  0  0  0  0  0  0  0  0  0
    0.0000    0.0000    0.0000 H   0  0  0  0  0  0  0  0  0  0  0  0
    0.0000    0.0000    0.0000 H   0  0  0  0  0  0  0  0  0  0  0  0
    0.0000    0.0000    0.0000 H   0  0  0  0  0  0  0  0  0  0  0  0
    0.0000    0.0000    0.0000 H   0  0  0  0  0  0  0  0  0  0  0  0
    0.0000    0.0000    0.0000 H   0  0  0  0  0  0  0  0  0  0  0  0
    0.0000    0.0000    0.0000 H   0  0  0  0  0  0  0  0  0  0  0  0
    0.0000    0.0000    0.0000 H   0  0  0  0  0  0  0  0  0  0  0  0
    0.0000    0.0000    0.0000 H   0  0  0  0  0  0  0  0  0  0  0  0
    0.0000    0.0000    0.0000 H   0  0  0  0  0  0  0  0  0  0  0  0
    7.0007   -1.5386   -0.3726 N   0  0  0  0  0  0  0  0  0  0  0  0
    6.1988   -2.5025   -1.0987 C   0  0  0  0  0  0  0  0  0  0  0  0
    6.3609   -3.9032   -0.5714 C   0  0  0  0  0  0  0  0  0  0  0  0
    7.8008   -4.3497   -0.6758 C   0  0  0  0  0  0  0  0  0  0  0  0
    6.7641   -1.4746    0.6220 H   0  0  0  0  0  0  0  0  0  0  0  0
    6.5288   -2.5019   -2.1564 H   0  0  0  0  0  0  0  0  0  0  0  0
    5.1330   -2.2194   -0.9738 H   0  0  0  0  0  0  0  0  0  0  0  0
    6.0309   -4.0135    0.4695 H   0  0  0  0  0  0  0  0  0  0  0  0
    5.7717   -4.5687   -1.2369 H   0  0  0  0  0  0  0  0  0  0  0  0
    8.3043   -3.6677   -1.3861 H   0  0  0  0  0  0  0  0  0  0  0  0
    7.8866   -5.3698   -1.1008 H   0  0  0  0  0  0  0  0  0  0  0  0
    8.2875   -4.3642    0.3156 H   0  0  0  0  0  0  0  0  0  0  0  0
  1  2  1  0
  2  3  1  0
  2 19  1  0
  3  4  1  0
  3  5  2  0
  5  6  1  0
  6  7  1  0
  6 19  1  0
  7  8  2  0
  7 18  1  0
  8  9  1  0
  9 10  2  0
 10 11  1  0
 11 12  1  0
 11 18  2  0
 12 13  2  0
 12 17  1  0
 13 14  1  0
 14 15  2  0
 15 16  1  0
 16 17  2  0
 19 20  2  0
  1 21  1  0
  1 22  1  0
  1 23  1  0
  4 24  1  0
  4 25  1  0
  5 26  1  0
  8 27  1  0
  9 28  1  0
 10 29  1  0
 13 30  1  0
 14 31  1  0
 15 32  1  0
 17 33  1  0
 18 34  1  0
 35 36  1  0
 36 37  1  0
 37 38  1  0
 35 39  1  0
 36 40  1  0
 36 41  1  0
 37 42  1  0
 37 43  1  0
 38 44  1  0
 38 45  1  0
 38 46  1  0
  6 35  1  6
M  CHG  1   5   1
M  END
>  <attachment_point>  (194) 
26

>  <score>  (194) 
<NA>

$$$$
CAT-4j
     RDKit          3D

 49 52  0  0  1  0  0  0  0  0999 V2000
   11.7106   -2.3098    1.2658 C   0  0  0  0  0  0  0  0  0  0  0  0
   13.0313   -2.6523    0.7225 N   0  0  0  0  0  0  0  0  0  0  0  0
   14.2010   -2.6281    1.3773 C   0  0  0  0  0  0  0  0  0  0  0  0
   14.3777   -2.3568    2.6732 N   0  0  0  0  0  0  0  0  0  0  0  0
   15.2217   -2.9197    0.5738 N   0  0  0  0  0  0  0  0  0  0  0  0
   14.7965   -3.2519   -0.7875 C   0  0  1  0  0  0  0  0  0  0  0  0
   15.3794   -2.2443   -1.7949 C   0  0  0  0  0  0  0  0  0  0  0  0
   15.9522   -2.6550   -3.0208 C   0  0  0  0  0  0  0  0  0  0  0  0
   16.4340   -1.6937   -3.9273 C   0  0  0  0  0  0  0  0  0  0  0  0
   16.3364   -0.3224   -3.6308 C   0  0  0  0  0  0  0  0  0  0  0  0
   15.7943    0.1250   -2.4073 C   0  0  0  0  0  0  0  0  0  0  0  0
   15.6711    1.5693   -2.0915 C   0  0  0  0  0  0  0  0  0  0  0  0
   15.3832    2.0354   -0.7903 C   0  0  0  0  0  0  0  0  0  0  0  0
   15.3534    3.4188   -0.5357 C   0  0  0  0  0  0  0  0  0  0  0  0
   15.5968    4.3049   -1.5946 C   0  0  0  0  0  0  0  0  0  0  0  0
   15.8275    3.8920   -2.8511 N   0  0  0  0  0  0  0  0  0  0  0  0
   15.8598    2.5642   -3.0762 C   0  0  0  0  0  0  0  0  0  0  0  0
   15.3327   -0.8573   -1.5012 C   0  0  0  0  0  0  0  0  0  0  0  0
   13.2767   -3.0094   -0.6368 C   0  0  0  0  0  0  0  0  0  0  0  0
   12.3981   -3.0674   -1.5055 O   0  0  0  0  0  0  0  0  0  0  0  0
    0.0000    0.0000    0.0000 H   0  0  0  0  0  0  0  0  0  0  0  0
    0.0000    0.0000    0.0000 H   0  0  0  0  0  0  0  0  0  0  0  0
    0.0000    0.0000    0.0000 H   0  0  0  0  0  0  0  0  0  0  0  0
    0.0000    0.0000    0.0000 H   0  0  0  0  0  0  0  0  0  0  0  0
    0.0000    0.0000    0.0000 H   0  0  0  0  0  0  0  0  0  0  0  0
    0.0000    0.0000    0.0000 H   0  0  0  0  0  0  0  0  0  0  0  0
    0.0000    0.0000    0.0000 H   0  0  0  0  0  0  0  0  0  0  0  0
    0.0000    0.0000    0.0000 H   0  0  0  0  0  0  0  0  0  0  0  0
    0.0000    0.0000    0.0000 H   0  0  0  0  0  0  0  0  0  0  0  0
    0.0000    0.0000    0.0000 H   0  0  0  0  0  0  0  0  0  0  0  0
    0.0000    0.0000    0.0000 H   0  0  0  0  0  0  0  0  0  0  0  0
    0.0000    0.0000    0.0000 H   0  0  0  0  0  0  0  0  0  0  0  0
    0.0000    0.0000    0.0000 H   0  0  0  0  0  0  0  0  0  0  0  0
    0.0000    0.0000    0.0000 H   0  0  0  0  0  0  0  0  0  0  0  0
    6.9391   -1.5250   -0.3693 C   0  0  0  0  0  0  0  0  0  0  0  0
    6.1246   -1.9488   -1.3909 C   0  0  0  0  0  0  0  0  0  0  0  0
    4.7849   -1.6284   -1.2735 C   0  0  0  0  0  0  0  0  0  0  0  0
    4.2738   -0.9175   -0.1886 C   0  0  0  0  0  0  0  0  0  0  0  0
    2.8664   -0.5885   -0.0786 C   0  0  0  0  0  0  0  0  0  0  0  0
    1.9802   -1.0002   -1.1030 N   0  0  0  0  0  0  0  0  0  0  0  0
    2.4445    0.0489    0.9063 O   0  0  0  0  0  0  0  0  0  0  0  0
    5.1292   -0.5119    0.8147 C   0  0  0  0  0  0  0  0  0  0  0  0
    6.4904   -0.8252    0.7172 C   0  0  0  0  0  0  0  0  0  0  0  0
    6.5374   -2.4995   -2.2259 H   0  0  0  0  0  0  0  0  0  0  0  0
    4.1132   -1.9345   -2.0397 H   0  0  0  0  0  0  0  0  0  0  0  0
    2.2748   -1.0525   -2.1035 H   0  0  0  0  0  0  0  0  0  0  0  0
    0.9825   -1.2745   -0.9159 H   0  0  0  0  0  0  0  0  0  0  0  0
    4.8090    0.0418    1.6861 H   0  0  0  0  0  0  0  0  0  0  0  0
    7.1390   -0.4967    1.5149 H   0  0  0  0  0  0  0  0  0  0  0  0
  1  2  1  0
  2  3  1  0
  2 19  1  0
  3  4  1  0
  3  5  2  0
  5  6  1  0
  6  7  1  1
  6 19  1  0
  7  8  2  0
  7 18  1  0
  8  9  1  0
  9 10  2  0
 10 11  1  0
 11 12  1  0
 11 18  2  0
 12 13  2  0
 12 17  1  0
 13 14  1  0
 14 15  2  0
 15 16  1  0
 16 17  2  0
 19 20  2  0
  1 21  1  0
  1 22  1  0
  1 23  1  0
  4 24  1  0
  4 25  1  0
  5 26  1  0
  8 27  1  0
  9 28  1  0
 10 29  1  0
 13 30  1  0
 14 31  1  0
 15 32  1  0
 17 33  1  0
 18 34  1  0
 35 36  2  0
 36 37  1  0
 37 38  2  0
 38 39  1  0
 39 40  1  0
 39 41  2  0
 38 42  1  0
 42 43  2  0
 43 35  1  0
 36 44  1  0
 37 45  1  0
 40 46  1  0
 40 47  1  0
 42 48  1  0
 43 49  1  0
  6 35  1  0
M  CHG  1   5   1
M  END
>  <attachment_point>  (195) 
26

>  <score>  (195) 
<NA>

$$$$
CAT-4j
     RDKit          3D

 45 47  0  0  1  0  0  0  0  0999 V2000
   11.7106   -2.3098    1.2658 C   0  0  0  0  0  0  0  0  0  0  0  0
   13.0313   -2.6523    0.7225 N   0  0  0  0  0  0  0  0  0  0  0  0
   14.2010   -2.6281    1.3773 C   0  0  0  0  0  0  0  0  0  0  0  0
   14.3777   -2.3568    2.6732 N   0  0  0  0  0  0  0  0  0  0  0  0
   15.2217   -2.9197    0.5738 N   0  0  0  0  0  0  0  0  0  0  0  0
   14.7965   -3.2519   -0.7875 C   0  0  1  0  0  0  0  0  0  0  0  0
   15.3794   -2.2443   -1.7949 C   0  0  0  0  0  0  0  0  0  0  0  0
   15.9522   -2.6550   -3.0208 C   0  0  0  0  0  0  0  0  0  0  0  0
   16.4340   -1.6937   -3.9273 C   0  0  0  0  0  0  0  0  0  0  0  0
   16.3364   -0.3224   -3.6308 C   0  0  0  0  0  0  0  0  0  0  0  0
   15.7943    0.1250   -2.4073 C   0  0  0  0  0  0  0  0  0  0  0  0
   15.6711    1.5693   -2.0915 C   0  0  0  0  0  0  0  0  0  0  0  0
   15.3832    2.0354   -0.7903 C   0  0  0  0  0  0  0  0  0  0  0  0
   15.3534    3.4188   -0.5357 C   0  0  0  0  0  0  0  0  0  0  0  0
   15.5968    4.3049   -1.5946 C   0  0  0  0  0  0  0  0  0  0  0  0
   15.8275    3.8920   -2.8511 N   0  0  0  0  0  0  0  0  0  0  0  0
   15.8598    2.5642   -3.0762 C   0  0  0  0  0  0  0  0  0  0  0  0
   15.3327   -0.8573   -1.5012 C   0  0  0  0  0  0  0  0  0  0  0  0
   13.2767   -3.0094   -0.6368 C   0  0  0  0  0  0  0  0  0  0  0  0
   12.3981   -3.0674   -1.5055 O   0  0  0  0  0  0  0  0  0  0  0  0
    0.0000    0.0000    0.0000 H   0  0  0  0  0  0  0  0  0  0  0  0
    0.0000    0.0000    0.0000 H   0  0  0  0  0  0  0  0  0  0  0  0
    0.0000    0.0000    0.0000 H   0  0  0  0  0  0  0  0  0  0  0  0
    0.0000    0.0000    0.0000 H   0  0  0  0  0  0  0  0  0  0  0  0
    0.0000    0.0000    0.0000 H   0  0  0  0  0  0  0  0  0  0  0  0
    0.0000    0.0000    0.0000 H   0  0  0  0  0  0  0  0  0  0  0  0
    0.0000    0.0000    0.0000 H   0  0  0  0  0  0  0  0  0  0  0  0
    0.0000    0.0000    0.0000 H   0  0  0  0  0  0  0  0  0  0  0  0
    0.0000    0.0000    0.0000 H   0  0  0  0  0  0  0  0  0  0  0  0
    0.0000    0.0000    0.0000 H   0  0  0  0  0  0  0  0  0  0  0  0
    0.0000    0.0000    0.0000 H   0  0  0  0  0  0  0  0  0  0  0  0
    0.0000    0.0000    0.0000 H   0  0  0  0  0  0  0  0  0  0  0  0
    0.0000    0.0000    0.0000 H   0  0  0  0  0  0  0  0  0  0  0  0
    0.0000    0.0000    0.0000 H   0  0  0  0  0  0  0  0  0  0  0  0
    6.9801   -1.5341   -0.3715 C   0  0  0  0  0  0  0  0  0  0  0  0
    6.5791   -0.9778    0.9672 C   0  0  0  0  0  0  0  0  0  0  0  0
    6.1233   -2.7536   -0.6313 C   0  0  0  0  0  0  0  0  0  0  0  0
    6.7707   -0.6050   -1.4097 O   0  0  0  0  0  0  0  0  0  0  0  0
    6.1888    0.0420    0.8523 H   0  0  0  0  0  0  0  0  0  0  0  0
    7.4533   -1.0507    1.6493 H   0  0  0  0  0  0  0  0  0  0  0  0
    5.7720   -1.5761    1.4569 H   0  0  0  0  0  0  0  0  0  0  0  0
    5.6959   -3.1600    0.3263 H   0  0  0  0  0  0  0  0  0  0  0  0
    6.7408   -3.4937   -1.1621 H   0  0  0  0  0  0  0  0  0  0  0  0
    5.2753   -2.4462   -1.2921 H   0  0  0  0  0  0  0  0  0  0  0  0
    6.6148   -1.1658   -2.2297 H   0  0  0  0  0  0  0  0  0  0  0  0
  1  2  1  0
  2  3  1  0
  2 19  1  0
  3  4  1  0
  3  5  2  0
  5  6  1  0
  6  7  1  0
  6 19  1  0
  7  8  2  0
  7 18  1  0
  8  9  1  0
  9 10  2  0
 10 11  1  0
 11 12  1  0
 11 18  2  0
 12 13  2  0
 12 17  1  0
 13 14  1  0
 14 15  2  0
 15 16  1  0
 16 17  2  0
 19 20  2  0
  1 21  1  0
  1 22  1  0
  1 23  1  0
  4 24  1  0
  4 25  1  0
  5 26  1  0
  8 27  1  0
  9 28  1  0
 10 29  1  0
 13 30  1  0
 14 31  1  0
 15 32  1  0
 17 33  1  0
 18 34  1  0
 35 36  1  0
 35 37  1  0
 35 38  1  0
 36 39  1  0
 36 40  1  0
 36 41  1  0
 37 42  1  0
 37 43  1  0
 37 44  1  0
 38 45  1  0
  6 35  1  6
M  CHG  1   5   1
M  END
>  <attachment_point>  (196) 
26

>  <score>  (196) 
<NA>

$$$$
CAT-4j
     RDKit          3D

 45 48  0  0  1  0  0  0  0  0999 V2000
   11.7106   -2.3098    1.2658 C   0  0  0  0  0  0  0  0  0  0  0  0
   13.0313   -2.6523    0.7225 N   0  0  0  0  0  0  0  0  0  0  0  0
   14.2010   -2.6281    1.3773 C   0  0  0  0  0  0  0  0  0  0  0  0
   14.3777   -2.3568    2.6732 N   0  0  0  0  0  0  0  0  0  0  0  0
   15.2217   -2.9197    0.5738 N   0  0  0  0  0  0  0  0  0  0  0  0
   14.7965   -3.2519   -0.7875 C   0  0  1  0  0  0  0  0  0  0  0  0
   15.3794   -2.2443   -1.7949 C   0  0  0  0  0  0  0  0  0  0  0  0
   15.9522   -2.6550   -3.0208 C   0  0  0  0  0  0  0  0  0  0  0  0
   16.4340   -1.6937   -3.9273 C   0  0  0  0  0  0  0  0  0  0  0  0
   16.3364   -0.3224   -3.6308 C   0  0  0  0  0  0  0  0  0  0  0  0
   15.7943    0.1250   -2.4073 C   0  0  0  0  0  0  0  0  0  0  0  0
   15.6711    1.5693   -2.0915 C   0  0  0  0  0  0  0  0  0  0  0  0
   15.3832    2.0354   -0.7903 C   0  0  0  0  0  0  0  0  0  0  0  0
   15.3534    3.4188   -0.5357 C   0  0  0  0  0  0  0  0  0  0  0  0
   15.5968    4.3049   -1.5946 C   0  0  0  0  0  0  0  0  0  0  0  0
   15.8275    3.8920   -2.8511 N   0  0  0  0  0  0  0  0  0  0  0  0
   15.8598    2.5642   -3.0762 C   0  0  0  0  0  0  0  0  0  0  0  0
   15.3327   -0.8573   -1.5012 C   0  0  0  0  0  0  0  0  0  0  0  0
   13.2767   -3.0094   -0.6368 C   0  0  0  0  0  0  0  0  0  0  0  0
   12.3981   -3.0674   -1.5055 O   0  0  0  0  0  0  0  0  0  0  0  0
    0.0000    0.0000    0.0000 H   0  0  0  0  0  0  0  0  0  0  0  0
    0.0000    0.0000    0.0000 H   0  0  0  0  0  0  0  0  0  0  0  0
    0.0000    0.0000    0.0000 H   0  0  0  0  0  0  0  0  0  0  0  0
    0.0000    0.0000    0.0000 H   0  0  0  0  0  0  0  0  0  0  0  0
    0.0000    0.0000    0.0000 H   0  0  0  0  0  0  0  0  0  0  0  0
    0.0000    0.0000    0.0000 H   0  0  0  0  0  0  0  0  0  0  0  0
    0.0000    0.0000    0.0000 H   0  0  0  0  0  0  0  0  0  0  0  0
    0.0000    0.0000    0.0000 H   0  0  0  0  0  0  0  0  0  0  0  0
    0.0000    0.0000    0.0000 H   0  0  0  0  0  0  0  0  0  0  0  0
    0.0000    0.0000    0.0000 H   0  0  0  0  0  0  0  0  0  0  0  0
    0.0000    0.0000    0.0000 H   0  0  0  0  0  0  0  0  0  0  0  0
    0.0000    0.0000    0.0000 H   0  0  0  0  0  0  0  0  0  0  0  0
    0.0000    0.0000    0.0000 H   0  0  0  0  0  0  0  0  0  0  0  0
    0.0000    0.0000    0.0000 H   0  0  0  0  0  0  0  0  0  0  0  0
    6.9694   -1.5317   -0.3709 C   0  0  0  0  0  0  0  0  0  0  0  0
    6.0224   -2.4591   -0.7633 C   0  0  0  0  0  0  0  0  0  0  0  0
    4.6649   -2.1570   -0.6894 C   0  0  0  0  0  0  0  0  0  0  0  0
    4.2543   -0.9253   -0.2224 C   0  0  0  0  0  0  0  0  0  0  0  0
    2.9267   -0.6478   -0.1572 F   0  0  0  0  0  0  0  0  0  0  0  0
    5.2231   -0.0374    0.1552 C   0  0  0  0  0  0  0  0  0  0  0  0
    6.5795   -0.2996    0.0969 C   0  0  0  0  0  0  0  0  0  0  0  0
    7.5121    0.6245    0.4877 F   0  0  0  0  0  0  0  0  0  0  0  0
    6.3259   -3.4279   -1.1313 H   0  0  0  0  0  0  0  0  0  0  0  0
    3.9051   -2.8709   -0.9926 H   0  0  0  0  0  0  0  0  0  0  0  0
    4.9080    0.9372    0.5251 H   0  0  0  0  0  0  0  0  0  0  0  0
  1  2  1  0
  2  3  1  0
  2 19  1  0
  3  4  1  0
  3  5  2  0
  5  6  1  0
  6  7  1  1
  6 19  1  0
  7  8  2  0
  7 18  1  0
  8  9  1  0
  9 10  2  0
 10 11  1  0
 11 12  1  0
 11 18  2  0
 12 13  2  0
 12 17  1  0
 13 14  1  0
 14 15  2  0
 15 16  1  0
 16 17  2  0
 19 20  2  0
  1 21  1  0
  1 22  1  0
  1 23  1  0
  4 24  1  0
  4 25  1  0
  5 26  1  0
  8 27  1  0
  9 28  1  0
 10 29  1  0
 13 30  1  0
 14 31  1  0
 15 32  1  0
 17 33  1  0
 18 34  1  0
 35 36  2  0
 36 37  1  0
 37 38  2  0
 38 39  1  0
 38 40  1  0
 40 41  2  0
 41 42  1  0
 41 35  1  0
 36 43  1  0
 37 44  1  0
 40 45  1  0
  6 35  1  0
M  CHG  1   5   1
M  END
>  <attachment_point>  (197) 
26

>  <score>  (197) 
<NA>

$$$$
CAT-4j
     RDKit          3D

 49 52  0  0  1  0  0  0  0  0999 V2000
   11.7106   -2.3098    1.2658 C   0  0  0  0  0  0  0  0  0  0  0  0
   13.0313   -2.6523    0.7225 N   0  0  0  0  0  0  0  0  0  0  0  0
   14.2010   -2.6281    1.3773 C   0  0  0  0  0  0  0  0  0  0  0  0
   14.3777   -2.3568    2.6732 N   0  0  0  0  0  0  0  0  0  0  0  0
   15.2217   -2.9197    0.5738 N   0  0  0  0  0  0  0  0  0  0  0  0
   14.7965   -3.2519   -0.7875 C   0  0  1  0  0  0  0  0  0  0  0  0
   15.3794   -2.2443   -1.7949 C   0  0  0  0  0  0  0  0  0  0  0  0
   15.9522   -2.6550   -3.0208 C   0  0  0  0  0  0  0  0  0  0  0  0
   16.4340   -1.6937   -3.9273 C   0  0  0  0  0  0  0  0  0  0  0  0
   16.3364   -0.3224   -3.6308 C   0  0  0  0  0  0  0  0  0  0  0  0
   15.7943    0.1250   -2.4073 C   0  0  0  0  0  0  0  0  0  0  0  0
   15.6711    1.5693   -2.0915 C   0  0  0  0  0  0  0  0  0  0  0  0
   15.3832    2.0354   -0.7903 C   0  0  0  0  0  0  0  0  0  0  0  0
   15.3534    3.4188   -0.5357 C   0  0  0  0  0  0  0  0  0  0  0  0
   15.5968    4.3049   -1.5946 C   0  0  0  0  0  0  0  0  0  0  0  0
   15.8275    3.8920   -2.8511 N   0  0  0  0  0  0  0  0  0  0  0  0
   15.8598    2.5642   -3.0762 C   0  0  0  0  0  0  0  0  0  0  0  0
   15.3327   -0.8573   -1.5012 C   0  0  0  0  0  0  0  0  0  0  0  0
   13.2767   -3.0094   -0.6368 C   0  0  0  0  0  0  0  0  0  0  0  0
   12.3981   -3.0674   -1.5055 O   0  0  0  0  0  0  0  0  0  0  0  0
    0.0000    0.0000    0.0000 H   0  0  0  0  0  0  0  0  0  0  0  0
    0.0000    0.0000    0.0000 H   0  0  0  0  0  0  0  0  0  0  0  0
    0.0000    0.0000    0.0000 H   0  0  0  0  0  0  0  0  0  0  0  0
    0.0000    0.0000    0.0000 H   0  0  0  0  0  0  0  0  0  0  0  0
    0.0000    0.0000    0.0000 H   0  0  0  0  0  0  0  0  0  0  0  0
    0.0000    0.0000    0.0000 H   0  0  0  0  0  0  0  0  0  0  0  0
    0.0000    0.0000    0.0000 H   0  0  0  0  0  0  0  0  0  0  0  0
    0.0000    0.0000    0.0000 H   0  0  0  0  0  0  0  0  0  0  0  0
    0.0000    0.0000    0.0000 H   0  0  0  0  0  0  0  0  0  0  0  0
    0.0000    0.0000    0.0000 H   0  0  0  0  0  0  0  0  0  0  0  0
    0.0000    0.0000    0.0000 H   0  0  0  0  0  0  0  0  0  0  0  0
    0.0000    0.0000    0.0000 H   0  0  0  0  0  0  0  0  0  0  0  0
    0.0000    0.0000    0.0000 H   0  0  0  0  0  0  0  0  0  0  0  0
    0.0000    0.0000    0.0000 H   0  0  0  0  0  0  0  0  0  0  0  0
    6.9834   -1.5348   -0.3717 C   0  0  0  0  0  0  0  0  0  0  0  0
    6.6450   -0.2228   -0.1382 C   0  0  0  0  0  0  0  0  0  0  0  0
    5.3076    0.0821   -0.0650 C   0  0  0  0  0  0  0  0  0  0  0  0
    4.3423   -0.8793   -0.2179 C   0  0  0  0  0  0  0  0  0  0  0  0
    3.0087   -0.5049   -0.1327 O   0  0  0  0  0  0  0  0  0  0  0  0
    2.3227   -0.5167    1.1153 C   0  0  0  0  0  0  0  0  0  0  0  0
    2.9356    0.3355    2.0197 F   0  0  0  0  0  0  0  0  0  0  0  0
    1.0364   -0.0590    0.8409 F   0  0  0  0  0  0  0  0  0  0  0  0
    2.2307   -1.8029    1.5821 F   0  0  0  0  0  0  0  0  0  0  0  0
    4.7193   -2.1774   -0.4497 C   0  0  0  0  0  0  0  0  0  0  0  0
    6.0457   -2.5334   -0.5315 C   0  0  0  0  0  0  0  0  0  0  0  0
    7.4256    0.5458   -0.0159 H   0  0  0  0  0  0  0  0  0  0  0  0
    5.0358    1.1090    0.1180 H   0  0  0  0  0  0  0  0  0  0  0  0
    3.9709   -2.9711   -0.5766 H   0  0  0  0  0  0  0  0  0  0  0  0
    6.3599   -3.5720   -0.7171 H   0  0  0  0  0  0  0  0  0  0  0  0
  1  2  1  0
  2  3  1  0
  2 19  1  0
  3  4  1  0
  3  5  2  0
  5  6  1  0
  6  7  1  1
  6 19  1  0
  7  8  2  0
  7 18  1  0
  8  9  1  0
  9 10  2  0
 10 11  1  0
 11 12  1  0
 11 18  2  0
 12 13  2  0
 12 17  1  0
 13 14  1  0
 14 15  2  0
 15 16  1  0
 16 17  2  0
 19 20  2  0
  1 21  1  0
  1 22  1  0
  1 23  1  0
  4 24  1  0
  4 25  1  0
  5 26  1  0
  8 27  1  0
  9 28  1  0
 10 29  1  0
 13 30  1  0
 14 31  1  0
 15 32  1  0
 17 33  1  0
 18 34  1  0
 35 36  2  0
 36 37  1  0
 37 38  2  0
 38 39  1  0
 39 40  1  0
 40 41  1  0
 40 42  1  0
 40 43  1  0
 38 44  1  0
 44 45  2  0
 45 35  1  0
 36 46  1  0
 37 47  1  0
 44 48  1  0
 45 49  1  0
  6 35  1  0
M  CHG  1   5   1
M  END
>  <attachment_point>  (198) 
26

>  <score>  (198) 
<NA>

$$$$
CAT-4j
     RDKit          3D

 56 58  0  0  1  0  0  0  0  0999 V2000
   11.7106   -2.3098    1.2658 C   0  0  0  0  0  0  0  0  0  0  0  0
   13.0313   -2.6523    0.7225 N   0  0  0  0  0  0  0  0  0  0  0  0
   14.2010   -2.6281    1.3773 C   0  0  0  0  0  0  0  0  0  0  0  0
   14.3777   -2.3568    2.6732 N   0  0  0  0  0  0  0  0  0  0  0  0
   15.2217   -2.9197    0.5738 N   0  0  0  0  0  0  0  0  0  0  0  0
   14.7965   -3.2519   -0.7875 C   0  0  1  0  0  0  0  0  0  0  0  0
   15.3794   -2.2443   -1.7949 C   0  0  0  0  0  0  0  0  0  0  0  0
   15.9522   -2.6550   -3.0208 C   0  0  0  0  0  0  0  0  0  0  0  0
   16.4340   -1.6937   -3.9273 C   0  0  0  0  0  0  0  0  0  0  0  0
   16.3364   -0.3224   -3.6308 C   0  0  0  0  0  0  0  0  0  0  0  0
   15.7943    0.1250   -2.4073 C   0  0  0  0  0  0  0  0  0  0  0  0
   15.6711    1.5693   -2.0915 C   0  0  0  0  0  0  0  0  0  0  0  0
   15.3832    2.0354   -0.7903 C   0  0  0  0  0  0  0  0  0  0  0  0
   15.3534    3.4188   -0.5357 C   0  0  0  0  0  0  0  0  0  0  0  0
   15.5968    4.3049   -1.5946 C   0  0  0  0  0  0  0  0  0  0  0  0
   15.8275    3.8920   -2.8511 N   0  0  0  0  0  0  0  0  0  0  0  0
   15.8598    2.5642   -3.0762 C   0  0  0  0  0  0  0  0  0  0  0  0
   15.3327   -0.8573   -1.5012 C   0  0  0  0  0  0  0  0  0  0  0  0
   13.2767   -3.0094   -0.6368 C   0  0  0  0  0  0  0  0  0  0  0  0
   12.3981   -3.0674   -1.5055 O   0  0  0  0  0  0  0  0  0  0  0  0
    0.0000    0.0000    0.0000 H   0  0  0  0  0  0  0  0  0  0  0  0
    0.0000    0.0000    0.0000 H   0  0  0  0  0  0  0  0  0  0  0  0
    0.0000    0.0000    0.0000 H   0  0  0  0  0  0  0  0  0  0  0  0
    0.0000    0.0000    0.0000 H   0  0  0  0  0  0  0  0  0  0  0  0
    0.0000    0.0000    0.0000 H   0  0  0  0  0  0  0  0  0  0  0  0
    0.0000    0.0000    0.0000 H   0  0  0  0  0  0  0  0  0  0  0  0
    0.0000    0.0000    0.0000 H   0  0  0  0  0  0  0  0  0  0  0  0
    0.0000    0.0000    0.0000 H   0  0  0  0  0  0  0  0  0  0  0  0
    0.0000    0.0000    0.0000 H   0  0  0  0  0  0  0  0  0  0  0  0
    0.0000    0.0000    0.0000 H   0  0  0  0  0  0  0  0  0  0  0  0
    0.0000    0.0000    0.0000 H   0  0  0  0  0  0  0  0  0  0  0  0
    0.0000    0.0000    0.0000 H   0  0  0  0  0  0  0  0  0  0  0  0
    0.0000    0.0000    0.0000 H   0  0  0  0  0  0  0  0  0  0  0  0
    0.0000    0.0000    0.0000 H   0  0  0  0  0  0  0  0  0  0  0  0
    6.9573   -1.5290   -0.3703 C   0  0  0  0  0  0  0  0  0  0  0  0
    6.9286   -0.0110   -0.3610 C   0  0  0  0  0  0  0  0  0  0  0  0
    7.6967    0.4622    0.8392 C   0  0  0  0  0  0  0  0  0  0  0  0
    7.6804    1.9608    0.8621 C   0  0  0  0  0  0  0  0  0  0  0  0
    6.3202    2.5676    0.9416 C   0  0  0  0  0  0  0  0  0  0  0  0
    6.5143    4.0867    0.9565 C   0  0  0  0  0  0  0  0  0  0  0  0
    5.1863    4.7993    1.0361 C   0  0  0  0  0  0  0  0  0  0  0  0
    6.6407   -1.9650    0.5940 H   0  0  0  0  0  0  0  0  0  0  0  0
    6.4654   -1.9583   -1.2497 H   0  0  0  0  0  0  0  0  0  0  0  0
    7.3809    0.3262   -1.3096 H   0  0  0  0  0  0  0  0  0  0  0  0
    5.8615    0.3245   -0.2523 H   0  0  0  0  0  0  0  0  0  0  0  0
    7.2864   -0.0043    1.7322 H   0  0  0  0  0  0  0  0  0  0  0  0
    8.7587    0.1310    0.6835 H   0  0  0  0  0  0  0  0  0  0  0  0
    8.2543    2.2699    1.7839 H   0  0  0  0  0  0  0  0  0  0  0  0
    8.1985    2.3736   -0.0265 H   0  0  0  0  0  0  0  0  0  0  0  0
    5.7302    2.2446    1.8018 H   0  0  0  0  0  0  0  0  0  0  0  0
    5.7343    2.3346    0.0155 H   0  0  0  0  0  0  0  0  0  0  0  0
    6.9875    4.3965    0.0020 H   0  0  0  0  0  0  0  0  0  0  0  0
    7.1718    4.3617    1.7817 H   0  0  0  0  0  0  0  0  0  0  0  0
    4.7802    4.6263    2.0691 H   0  0  0  0  0  0  0  0  0  0  0  0
    5.3942    5.8794    0.8899 H   0  0  0  0  0  0  0  0  0  0  0  0
    4.5027    4.4313    0.2593 H   0  0  0  0  0  0  0  0  0  0  0  0
  1  2  1  0
  2  3  1  0
  2 19  1  0
  3  4  1  0
  3  5  2  0
  5  6  1  0
  6  7  1  0
  6 19  1  0
  7  8  2  0
  7 18  1  0
  8  9  1  0
  9 10  2  0
 10 11  1  0
 11 12  1  0
 11 18  2  0
 12 13  2  0
 12 17  1  0
 13 14  1  0
 14 15  2  0
 15 16  1  0
 16 17  2  0
 19 20  2  0
  1 21  1  0
  1 22  1  0
  1 23  1  0
  4 24  1  0
  4 25  1  0
  5 26  1  0
  8 27  1  0
  9 28  1  0
 10 29  1  0
 13 30  1  0
 14 31  1  0
 15 32  1  0
 17 33  1  0
 18 34  1  0
 35 36  1  0
 36 37  1  0
 37 38  1  0
 38 39  1  0
 39 40  1  0
 40 41  1  0
 35 42  1  0
 35 43  1  0
 36 44  1  0
 36 45  1  0
 37 46  1  0
 37 47  1  0
 38 48  1  0
 38 49  1  0
 39 50  1  0
 39 51  1  0
 40 52  1  0
 40 53  1  0
 41 54  1  0
 41 55  1  0
 41 56  1  0
  6 35  1  6
M  CHG  1   5   1
M  END
>  <attachment_point>  (199) 
26

>  <score>  (199) 
<NA>

$$$$
CAT-4j
     RDKit          3D

 46 49  0  0  1  0  0  0  0  0999 V2000
   11.7106   -2.3098    1.2658 C   0  0  0  0  0  0  0  0  0  0  0  0
   13.0313   -2.6523    0.7225 N   0  0  0  0  0  0  0  0  0  0  0  0
   14.2010   -2.6281    1.3773 C   0  0  0  0  0  0  0  0  0  0  0  0
   14.3777   -2.3568    2.6732 N   0  0  0  0  0  0  0  0  0  0  0  0
   15.2217   -2.9197    0.5738 N   0  0  0  0  0  0  0  0  0  0  0  0
   14.7965   -3.2519   -0.7875 C   0  0  1  0  0  0  0  0  0  0  0  0
   15.3794   -2.2443   -1.7949 C   0  0  0  0  0  0  0  0  0  0  0  0
   15.9522   -2.6550   -3.0208 C   0  0  0  0  0  0  0  0  0  0  0  0
   16.4340   -1.6937   -3.9273 C   0  0  0  0  0  0  0  0  0  0  0  0
   16.3364   -0.3224   -3.6308 C   0  0  0  0  0  0  0  0  0  0  0  0
   15.7943    0.1250   -2.4073 C   0  0  0  0  0  0  0  0  0  0  0  0
   15.6711    1.5693   -2.0915 C   0  0  0  0  0  0  0  0  0  0  0  0
   15.3832    2.0354   -0.7903 C   0  0  0  0  0  0  0  0  0  0  0  0
   15.3534    3.4188   -0.5357 C   0  0  0  0  0  0  0  0  0  0  0  0
   15.5968    4.3049   -1.5946 C   0  0  0  0  0  0  0  0  0  0  0  0
   15.8275    3.8920   -2.8511 N   0  0  0  0  0  0  0  0  0  0  0  0
   15.8598    2.5642   -3.0762 C   0  0  0  0  0  0  0  0  0  0  0  0
   15.3327   -0.8573   -1.5012 C   0  0  0  0  0  0  0  0  0  0  0  0
   13.2767   -3.0094   -0.6368 C   0  0  0  0  0  0  0  0  0  0  0  0
   12.3981   -3.0674   -1.5055 O   0  0  0  0  0  0  0  0  0  0  0  0
    0.0000    0.0000    0.0000 H   0  0  0  0  0  0  0  0  0  0  0  0
    0.0000    0.0000    0.0000 H   0  0  0  0  0  0  0  0  0  0  0  0
    0.0000    0.0000    0.0000 H   0  0  0  0  0  0  0  0  0  0  0  0
    0.0000    0.0000    0.0000 H   0  0  0  0  0  0  0  0  0  0  0  0
    0.0000    0.0000    0.0000 H   0  0  0  0  0  0  0  0  0  0  0  0
    0.0000    0.0000    0.0000 H   0  0  0  0  0  0  0  0  0  0  0  0
    0.0000    0.0000    0.0000 H   0  0  0  0  0  0  0  0  0  0  0  0
    0.0000    0.0000    0.0000 H   0  0  0  0  0  0  0  0  0  0  0  0
    0.0000    0.0000    0.0000 H   0  0  0  0  0  0  0  0  0  0  0  0
    0.0000    0.0000    0.0000 H   0  0  0  0  0  0  0  0  0  0  0  0
    0.0000    0.0000    0.0000 H   0  0  0  0  0  0  0  0  0  0  0  0
    0.0000    0.0000    0.0000 H   0  0  0  0  0  0  0  0  0  0  0  0
    0.0000    0.0000    0.0000 H   0  0  0  0  0  0  0  0  0  0  0  0
    0.0000    0.0000    0.0000 H   0  0  0  0  0  0  0  0  0  0  0  0
    6.9769   -1.5334   -0.3713 C   0  0  0  0  0  0  0  0  0  0  0  0
    6.4517   -0.4414   -1.0300 C   0  0  0  0  0  0  0  0  0  0  0  0
    5.0993   -0.1624   -0.9453 C   0  0  0  0  0  0  0  0  0  0  0  0
    4.2377   -0.9593   -0.2061 C   0  0  0  0  0  0  0  0  0  0  0  0
    2.8474   -0.6905   -0.1063 N   0  0  0  0  0  0  0  0  0  0  0  0
    4.7894   -2.0143    0.4211 N   0  0  0  0  0  0  0  0  0  0  0  0
    6.0999   -2.3104    0.3571 C   0  0  0  0  0  0  0  0  0  0  0  0
    7.1065    0.2134   -1.6263 H   0  0  0  0  0  0  0  0  0  0  0  0
    4.6584    0.6967   -1.4577 H   0  0  0  0  0  0  0  0  0  0  0  0
    2.4516   -0.1570    0.6915 H   0  0  0  0  0  0  0  0  0  0  0  0
    2.1813   -1.0220   -0.8333 H   0  0  0  0  0  0  0  0  0  0  0  0
    6.4308   -3.1818    0.9009 H   0  0  0  0  0  0  0  0  0  0  0  0
  1  2  1  0
  2  3  1  0
  2 19  1  0
  3  4  1  0
  3  5  2  0
  5  6  1  0
  6  7  1  1
  6 19  1  0
  7  8  2  0
  7 18  1  0
  8  9  1  0
  9 10  2  0
 10 11  1  0
 11 12  1  0
 11 18  2  0
 12 13  2  0
 12 17  1  0
 13 14  1  0
 14 15  2  0
 15 16  1  0
 16 17  2  0
 19 20  2  0
  1 21  1  0
  1 22  1  0
  1 23  1  0
  4 24  1  0
  4 25  1  0
  5 26  1  0
  8 27  1  0
  9 28  1  0
 10 29  1  0
 13 30  1  0
 14 31  1  0
 15 32  1  0
 17 33  1  0
 18 34  1  0
 35 36  2  0
 36 37  1  0
 37 38  2  0
 38 39  1  0
 38 40  1  0
 40 41  2  0
 41 35  1  0
 36 42  1  0
 37 43  1  0
 39 44  1  0
 39 45  1  0
 41 46  1  0
  6 35  1  0
M  CHG  1   5   1
M  END
>  <attachment_point>  (200) 
26

>  <score>  (200) 
<NA>

$$$$
CAT-4j
     RDKit          3D

 56 59  0  0  1  0  0  0  0  0999 V2000
   11.7106   -2.3098    1.2658 C   0  0  0  0  0  0  0  0  0  0  0  0
   13.0313   -2.6523    0.7225 N   0  0  0  0  0  0  0  0  0  0  0  0
   14.2010   -2.6281    1.3773 C   0  0  0  0  0  0  0  0  0  0  0  0
   14.3777   -2.3568    2.6732 N   0  0  0  0  0  0  0  0  0  0  0  0
   15.2217   -2.9197    0.5738 N   0  0  0  0  0  0  0  0  0  0  0  0
   14.7965   -3.2519   -0.7875 C   0  0  1  0  0  0  0  0  0  0  0  0
   15.3794   -2.2443   -1.7949 C   0  0  0  0  0  0  0  0  0  0  0  0
   15.9522   -2.6550   -3.0208 C   0  0  0  0  0  0  0  0  0  0  0  0
   16.4340   -1.6937   -3.9273 C   0  0  0  0  0  0  0  0  0  0  0  0
   16.3364   -0.3224   -3.6308 C   0  0  0  0  0  0  0  0  0  0  0  0
   15.7943    0.1250   -2.4073 C   0  0  0  0  0  0  0  0  0  0  0  0
   15.6711    1.5693   -2.0915 C   0  0  0  0  0  0  0  0  0  0  0  0
   15.3832    2.0354   -0.7903 C   0  0  0  0  0  0  0  0  0  0  0  0
   15.3534    3.4188   -0.5357 C   0  0  0  0  0  0  0  0  0  0  0  0
   15.5968    4.3049   -1.5946 C   0  0  0  0  0  0  0  0  0  0  0  0
   15.8275    3.8920   -2.8511 N   0  0  0  0  0  0  0  0  0  0  0  0
   15.8598    2.5642   -3.0762 C   0  0  0  0  0  0  0  0  0  0  0  0
   15.3327   -0.8573   -1.5012 C   0  0  0  0  0  0  0  0  0  0  0  0
   13.2767   -3.0094   -0.6368 C   0  0  0  0  0  0  0  0  0  0  0  0
   12.3981   -3.0674   -1.5055 O   0  0  0  0  0  0  0  0  0  0  0  0
    0.0000    0.0000    0.0000 H   0  0  0  0  0  0  0  0  0  0  0  0
    0.0000    0.0000    0.0000 H   0  0  0  0  0  0  0  0  0  0  0  0
    0.0000    0.0000    0.0000 H   0  0  0  0  0  0  0  0  0  0  0  0
    0.0000    0.0000    0.0000 H   0  0  0  0  0  0  0  0  0  0  0  0
    0.0000    0.0000    0.0000 H   0  0  0  0  0  0  0  0  0  0  0  0
    0.0000    0.0000    0.0000 H   0  0  0  0  0  0  0  0  0  0  0  0
    0.0000    0.0000    0.0000 H   0  0  0  0  0  0  0  0  0  0  0  0
    0.0000    0.0000    0.0000 H   0  0  0  0  0  0  0  0  0  0  0  0
    0.0000    0.0000    0.0000 H   0  0  0  0  0  0  0  0  0  0  0  0
    0.0000    0.0000    0.0000 H   0  0  0  0  0  0  0  0  0  0  0  0
    0.0000    0.0000    0.0000 H   0  0  0  0  0  0  0  0  0  0  0  0
    0.0000    0.0000    0.0000 H   0  0  0  0  0  0  0  0  0  0  0  0
    0.0000    0.0000    0.0000 H   0  0  0  0  0  0  0  0  0  0  0  0
    0.0000    0.0000    0.0000 H   0  0  0  0  0  0  0  0  0  0  0  0
    6.9856   -1.5353   -0.3718 C   0  0  0  0  0  0  0  0  0  0  0  0
    6.1194   -2.4796   -1.1769 C   0  0  0  0  0  0  0  0  0  0  0  0
    6.4969   -2.4493   -2.5471 N   0  0  0  0  0  0  0  0  0  0  0  0
    5.8287   -3.5026   -3.3176 C   0  0  0  0  0  0  0  0  0  0  0  0
    6.6413   -3.6351   -4.5986 C   0  0  0  0  0  0  0  0  0  0  0  0
    6.4039   -2.3227   -5.3607 C   0  0  0  0  0  0  0  0  0  0  0  0
    6.9379   -1.1660   -4.5711 C   0  0  0  0  0  0  0  0  0  0  0  0
    6.2825   -1.1747   -3.1970 C   0  0  0  0  0  0  0  0  0  0  0  0
    6.8267   -0.4833   -0.6327 H   0  0  0  0  0  0  0  0  0  0  0  0
    6.7826   -1.7279    0.7444 H   0  0  0  0  0  0  0  0  0  0  0  0
    5.0467   -2.1098   -1.1268 H   0  0  0  0  0  0  0  0  0  0  0  0
    6.0583   -3.5000   -0.7502 H   0  0  0  0  0  0  0  0  0  0  0  0
    4.7834   -3.2543   -3.5195 H   0  0  0  0  0  0  0  0  0  0  0  0
    5.8940   -4.4268   -2.7608 H   0  0  0  0  0  0  0  0  0  0  0  0
    7.6891   -3.6643   -4.2914 H   0  0  0  0  0  0  0  0  0  0  0  0
    6.3342   -4.4765   -5.2254 H   0  0  0  0  0  0  0  0  0  0  0  0
    5.3264   -2.2148   -5.4867 H   0  0  0  0  0  0  0  0  0  0  0  0
    6.9467   -2.3938   -6.3319 H   0  0  0  0  0  0  0  0  0  0  0  0
    6.6751   -0.2349   -5.0940 H   0  0  0  0  0  0  0  0  0  0  0  0
    8.0259   -1.2428   -4.4008 H   0  0  0  0  0  0  0  0  0  0  0  0
    5.2035   -0.9238   -3.2924 H   0  0  0  0  0  0  0  0  0  0  0  0
    6.7458   -0.3924   -2.5869 H   0  0  0  0  0  0  0  0  0  0  0  0
  1  2  1  0
  2  3  1  0
  2 19  1  0
  3  4  1  0
  3  5  2  0
  5  6  1  0
  6  7  1  0
  6 19  1  0
  7  8  2  0
  7 18  1  0
  8  9  1  0
  9 10  2  0
 10 11  1  0
 11 12  1  0
 11 18  2  0
 12 13  2  0
 12 17  1  0
 13 14  1  0
 14 15  2  0
 15 16  1  0
 16 17  2  0
 19 20  2  0
  1 21  1  0
  1 22  1  0
  1 23  1  0
  4 24  1  0
  4 25  1  0
  5 26  1  0
  8 27  1  0
  9 28  1  0
 10 29  1  0
 13 30  1  0
 14 31  1  0
 15 32  1  0
 17 33  1  0
 18 34  1  0
 35 36  1  0
 36 37  1  0
 37 38  1  0
 38 39  1  0
 39 40  1  0
 40 41  1  0
 41 42  1  0
 42 37  1  0
 35 43  1  0
 35 44  1  0
 36 45  1  0
 36 46  1  0
 38 47  1  0
 38 48  1  0
 39 49  1  0
 39 50  1  0
 40 51  1  0
 40 52  1  0
 41 53  1  0
 41 54  1  0
 42 55  1  0
 42 56  1  0
  6 35  1  6
M  CHG  1   5   1
M  END
>  <attachment_point>  (201) 
26

>  <score>  (201) 
<NA>

$$$$
CAT-4j
     RDKit          3D

 42 45  0  0  1  0  0  0  0  0999 V2000
   11.7106   -2.3098    1.2658 C   0  0  0  0  0  0  0  0  0  0  0  0
   13.0313   -2.6523    0.7225 N   0  0  0  0  0  0  0  0  0  0  0  0
   14.2010   -2.6281    1.3773 C   0  0  0  0  0  0  0  0  0  0  0  0
   14.3777   -2.3568    2.6732 N   0  0  0  0  0  0  0  0  0  0  0  0
   15.2217   -2.9197    0.5738 N   0  0  0  0  0  0  0  0  0  0  0  0
   14.7965   -3.2519   -0.7875 C   0  0  1  0  0  0  0  0  0  0  0  0
   15.3794   -2.2443   -1.7949 C   0  0  0  0  0  0  0  0  0  0  0  0
   15.9522   -2.6550   -3.0208 C   0  0  0  0  0  0  0  0  0  0  0  0
   16.4340   -1.6937   -3.9273 C   0  0  0  0  0  0  0  0  0  0  0  0
   16.3364   -0.3224   -3.6308 C   0  0  0  0  0  0  0  0  0  0  0  0
   15.7943    0.1250   -2.4073 C   0  0  0  0  0  0  0  0  0  0  0  0
   15.6711    1.5693   -2.0915 C   0  0  0  0  0  0  0  0  0  0  0  0
   15.3832    2.0354   -0.7903 C   0  0  0  0  0  0  0  0  0  0  0  0
   15.3534    3.4188   -0.5357 C   0  0  0  0  0  0  0  0  0  0  0  0
   15.5968    4.3049   -1.5946 C   0  0  0  0  0  0  0  0  0  0  0  0
   15.8275    3.8920   -2.8511 N   0  0  0  0  0  0  0  0  0  0  0  0
   15.8598    2.5642   -3.0762 C   0  0  0  0  0  0  0  0  0  0  0  0
   15.3327   -0.8573   -1.5012 C   0  0  0  0  0  0  0  0  0  0  0  0
   13.2767   -3.0094   -0.6368 C   0  0  0  0  0  0  0  0  0  0  0  0
   12.3981   -3.0674   -1.5055 O   0  0  0  0  0  0  0  0  0  0  0  0
    0.0000    0.0000    0.0000 H   0  0  0  0  0  0  0  0  0  0  0  0
    0.0000    0.0000    0.0000 H   0  0  0  0  0  0  0  0  0  0  0  0
    0.0000    0.0000    0.0000 H   0  0  0  0  0  0  0  0  0  0  0  0
    0.0000    0.0000    0.0000 H   0  0  0  0  0  0  0  0  0  0  0  0
    0.0000    0.0000    0.0000 H   0  0  0  0  0  0  0  0  0  0  0  0
    0.0000    0.0000    0.0000 H   0  0  0  0  0  0  0  0  0  0  0  0
    0.0000    0.0000    0.0000 H   0  0  0  0  0  0  0  0  0  0  0  0
    0.0000    0.0000    0.0000 H   0  0  0  0  0  0  0  0  0  0  0  0
    0.0000    0.0000    0.0000 H   0  0  0  0  0  0  0  0  0  0  0  0
    0.0000    0.0000    0.0000 H   0  0  0  0  0  0  0  0  0  0  0  0
    0.0000    0.0000    0.0000 H   0  0  0  0  0  0  0  0  0  0  0  0
    0.0000    0.0000    0.0000 H   0  0  0  0  0  0  0  0  0  0  0  0
    0.0000    0.0000    0.0000 H   0  0  0  0  0  0  0  0  0  0  0  0
    0.0000    0.0000    0.0000 H   0  0  0  0  0  0  0  0  0  0  0  0
    6.9633   -1.5304   -0.3706 C   0  0  0  0  0  0  0  0  0  0  0  0
    5.9735   -2.4710   -0.2495 C   0  0  0  0  0  0  0  0  0  0  0  0
    4.7035   -2.0243   -0.1918 C   0  0  0  0  0  0  0  0  0  0  0  0
    4.5201   -0.6665   -0.2600 C   0  0  0  0  0  0  0  0  0  0  0  0
    2.9824    0.1924   -0.2089 Cl  0  0  0  0  0  0  0  0  0  0  0  0
    6.1044   -0.0649   -0.4004 S   0  0  0  0  0  0  0  0  0  0  0  0
    6.2093   -3.5703   -0.2002 H   0  0  0  0  0  0  0  0  0  0  0  0
    3.8423   -2.7345   -0.0928 H   0  0  0  0  0  0  0  0  0  0  0  0
  1  2  1  0
  2  3  1  0
  2 19  1  0
  3  4  1  0
  3  5  2  0
  5  6  1  0
  6  7  1  1
  6 19  1  0
  7  8  2  0
  7 18  1  0
  8  9  1  0
  9 10  2  0
 10 11  1  0
 11 12  1  0
 11 18  2  0
 12 13  2  0
 12 17  1  0
 13 14  1  0
 14 15  2  0
 15 16  1  0
 16 17  2  0
 19 20  2  0
  1 21  1  0
  1 22  1  0
  1 23  1  0
  4 24  1  0
  4 25  1  0
  5 26  1  0
  8 27  1  0
  9 28  1  0
 10 29  1  0
 13 30  1  0
 14 31  1  0
 15 32  1  0
 17 33  1  0
 18 34  1  0
 35 36  2  0
 36 37  1  0
 37 38  2  0
 38 39  1  0
 38 40  1  0
 40 35  1  0
 36 41  1  0
 37 42  1  0
  6 35  1  0
M  CHG  1   5   1
M  END
>  <attachment_point>  (202) 
26

>  <score>  (202) 
<NA>

$$$$
CAT-4j
     RDKit          3D

 41 43  0  0  1  0  0  0  0  0999 V2000
   11.7106   -2.3098    1.2658 C   0  0  0  0  0  0  0  0  0  0  0  0
   13.0313   -2.6523    0.7225 N   0  0  0  0  0  0  0  0  0  0  0  0
   14.2010   -2.6281    1.3773 C   0  0  0  0  0  0  0  0  0  0  0  0
   14.3777   -2.3568    2.6732 N   0  0  0  0  0  0  0  0  0  0  0  0
   15.2217   -2.9197    0.5738 N   0  0  0  0  0  0  0  0  0  0  0  0
   14.7965   -3.2519   -0.7875 C   0  0  1  0  0  0  0  0  0  0  0  0
   15.3794   -2.2443   -1.7949 C   0  0  0  0  0  0  0  0  0  0  0  0
   15.9522   -2.6550   -3.0208 C   0  0  0  0  0  0  0  0  0  0  0  0
   16.4340   -1.6937   -3.9273 C   0  0  0  0  0  0  0  0  0  0  0  0
   16.3364   -0.3224   -3.6308 C   0  0  0  0  0  0  0  0  0  0  0  0
   15.7943    0.1250   -2.4073 C   0  0  0  0  0  0  0  0  0  0  0  0
   15.6711    1.5693   -2.0915 C   0  0  0  0  0  0  0  0  0  0  0  0
   15.3832    2.0354   -0.7903 C   0  0  0  0  0  0  0  0  0  0  0  0
   15.3534    3.4188   -0.5357 C   0  0  0  0  0  0  0  0  0  0  0  0
   15.5968    4.3049   -1.5946 C   0  0  0  0  0  0  0  0  0  0  0  0
   15.8275    3.8920   -2.8511 N   0  0  0  0  0  0  0  0  0  0  0  0
   15.8598    2.5642   -3.0762 C   0  0  0  0  0  0  0  0  0  0  0  0
   15.3327   -0.8573   -1.5012 C   0  0  0  0  0  0  0  0  0  0  0  0
   13.2767   -3.0094   -0.6368 C   0  0  0  0  0  0  0  0  0  0  0  0
   12.3981   -3.0674   -1.5055 O   0  0  0  0  0  0  0  0  0  0  0  0
    0.0000    0.0000    0.0000 H   0  0  0  0  0  0  0  0  0  0  0  0
    0.0000    0.0000    0.0000 H   0  0  0  0  0  0  0  0  0  0  0  0
    0.0000    0.0000    0.0000 H   0  0  0  0  0  0  0  0  0  0  0  0
    0.0000    0.0000    0.0000 H   0  0  0  0  0  0  0  0  0  0  0  0
    0.0000    0.0000    0.0000 H   0  0  0  0  0  0  0  0  0  0  0  0
    0.0000    0.0000    0.0000 H   0  0  0  0  0  0  0  0  0  0  0  0
    0.0000    0.0000    0.0000 H   0  0  0  0  0  0  0  0  0  0  0  0
    0.0000    0.0000    0.0000 H   0  0  0  0  0  0  0  0  0  0  0  0
    0.0000    0.0000    0.0000 H   0  0  0  0  0  0  0  0  0  0  0  0
    0.0000    0.0000    0.0000 H   0  0  0  0  0  0  0  0  0  0  0  0
    0.0000    0.0000    0.0000 H   0  0  0  0  0  0  0  0  0  0  0  0
    0.0000    0.0000    0.0000 H   0  0  0  0  0  0  0  0  0  0  0  0
    0.0000    0.0000    0.0000 H   0  0  0  0  0  0  0  0  0  0  0  0
    0.0000    0.0000    0.0000 H   0  0  0  0  0  0  0  0  0  0  0  0
    6.9300   -1.5230   -0.3688 C   0  0  0  0  0  0  0  0  0  0  0  0
    6.7317   -0.4002    0.0959 O   0  0  0  0  0  0  0  0  0  0  0  0
    6.0147   -2.4681   -0.8025 N   0  0  0  0  0  0  0  0  0  0  0  0
    4.6626   -2.1786   -0.7338 N   0  0  0  0  0  0  0  0  0  0  0  0
    6.2645   -3.4222   -1.1941 H   0  0  0  0  0  0  0  0  0  0  0  0
    4.2814   -2.0566    0.2022 H   0  0  0  0  0  0  0  0  0  0  0  0
    4.2945   -1.6011   -1.4832 H   0  0  0  0  0  0  0  0  0  0  0  0
  1  2  1  0
  2  3  1  0
  2 19  1  0
  3  4  1  0
  3  5  2  0
  5  6  1  0
  6  7  1  0
  6 19  1  0
  7  8  2  0
  7 18  1  0
  8  9  1  0
  9 10  2  0
 10 11  1  0
 11 12  1  0
 11 18  2  0
 12 13  2  0
 12 17  1  0
 13 14  1  0
 14 15  2  0
 15 16  1  0
 16 17  2  0
 19 20  2  0
  1 21  1  0
  1 22  1  0
  1 23  1  0
  4 24  1  0
  4 25  1  0
  5 26  1  0
  8 27  1  0
  9 28  1  0
 10 29  1  0
 13 30  1  0
 14 31  1  0
 15 32  1  0
 17 33  1  0
 18 34  1  0
 35 36  2  0
 35 37  1  0
 37 38  1  0
 37 39  1  0
 38 40  1  0
 38 41  1  0
  6 35  1  6
M  CHG  1   5   1
M  END
>  <attachment_point>  (203) 
26

>  <score>  (203) 
<NA>

$$$$
CAT-4j
     RDKit          3D

 51 54  0  0  1  0  0  0  0  0999 V2000
   11.7106   -2.3098    1.2658 C   0  0  0  0  0  0  0  0  0  0  0  0
   13.0313   -2.6523    0.7225 N   0  0  0  0  0  0  0  0  0  0  0  0
   14.2010   -2.6281    1.3773 C   0  0  0  0  0  0  0  0  0  0  0  0
   14.3777   -2.3568    2.6732 N   0  0  0  0  0  0  0  0  0  0  0  0
   15.2217   -2.9197    0.5738 N   0  0  0  0  0  0  0  0  0  0  0  0
   14.7965   -3.2519   -0.7875 C   0  0  1  0  0  0  0  0  0  0  0  0
   15.3794   -2.2443   -1.7949 C   0  0  0  0  0  0  0  0  0  0  0  0
   15.9522   -2.6550   -3.0208 C   0  0  0  0  0  0  0  0  0  0  0  0
   16.4340   -1.6937   -3.9273 C   0  0  0  0  0  0  0  0  0  0  0  0
   16.3364   -0.3224   -3.6308 C   0  0  0  0  0  0  0  0  0  0  0  0
   15.7943    0.1250   -2.4073 C   0  0  0  0  0  0  0  0  0  0  0  0
   15.6711    1.5693   -2.0915 C   0  0  0  0  0  0  0  0  0  0  0  0
   15.3832    2.0354   -0.7903 C   0  0  0  0  0  0  0  0  0  0  0  0
   15.3534    3.4188   -0.5357 C   0  0  0  0  0  0  0  0  0  0  0  0
   15.5968    4.3049   -1.5946 C   0  0  0  0  0  0  0  0  0  0  0  0
   15.8275    3.8920   -2.8511 N   0  0  0  0  0  0  0  0  0  0  0  0
   15.8598    2.5642   -3.0762 C   0  0  0  0  0  0  0  0  0  0  0  0
   15.3327   -0.8573   -1.5012 C   0  0  0  0  0  0  0  0  0  0  0  0
   13.2767   -3.0094   -0.6368 C   0  0  0  0  0  0  0  0  0  0  0  0
   12.3981   -3.0674   -1.5055 O   0  0  0  0  0  0  0  0  0  0  0  0
    0.0000    0.0000    0.0000 H   0  0  0  0  0  0  0  0  0  0  0  0
    0.0000    0.0000    0.0000 H   0  0  0  0  0  0  0  0  0  0  0  0
    0.0000    0.0000    0.0000 H   0  0  0  0  0  0  0  0  0  0  0  0
    0.0000    0.0000    0.0000 H   0  0  0  0  0  0  0  0  0  0  0  0
    0.0000    0.0000    0.0000 H   0  0  0  0  0  0  0  0  0  0  0  0
    0.0000    0.0000    0.0000 H   0  0  0  0  0  0  0  0  0  0  0  0
    0.0000    0.0000    0.0000 H   0  0  0  0  0  0  0  0  0  0  0  0
    0.0000    0.0000    0.0000 H   0  0  0  0  0  0  0  0  0  0  0  0
    0.0000    0.0000    0.0000 H   0  0  0  0  0  0  0  0  0  0  0  0
    0.0000    0.0000    0.0000 H   0  0  0  0  0  0  0  0  0  0  0  0
    0.0000    0.0000    0.0000 H   0  0  0  0  0  0  0  0  0  0  0  0
    0.0000    0.0000    0.0000 H   0  0  0  0  0  0  0  0  0  0  0  0
    0.0000    0.0000    0.0000 H   0  0  0  0  0  0  0  0  0  0  0  0
    0.0000    0.0000    0.0000 H   0  0  0  0  0  0  0  0  0  0  0  0
    7.0078   -1.5401   -0.3730 N   0  0  0  0  0  0  0  0  0  0  0  0
    6.2112   -2.1949   -1.3658 C   0  0  0  0  0  0  0  0  0  0  0  0
    6.6225   -1.8102   -2.7893 C   0  0  0  0  0  0  0  0  0  0  0  0
    6.4450   -0.2871   -2.8352 C   0  0  0  0  0  0  0  0  0  0  0  0
    6.5548    0.2171   -4.1015 O   0  0  0  0  0  0  0  0  0  0  0  0
    7.4904    0.2444   -1.8745 C   0  0  0  0  0  0  0  0  0  0  0  0
    6.9449   -0.0837   -0.4772 C   0  0  0  0  0  0  0  0  0  0  0  0
    5.1658   -1.8053   -1.2569 H   0  0  0  0  0  0  0  0  0  0  0  0
    6.2502   -3.2668   -1.2031 H   0  0  0  0  0  0  0  0  0  0  0  0
    7.7032   -2.0599   -2.8988 H   0  0  0  0  0  0  0  0  0  0  0  0
    5.9828   -2.3282   -3.4954 H   0  0  0  0  0  0  0  0  0  0  0  0
    5.4090   -0.1124   -2.4342 H   0  0  0  0  0  0  0  0  0  0  0  0
    5.8418    0.9131   -4.2563 H   0  0  0  0  0  0  0  0  0  0  0  0
    7.7197    1.2935   -2.0009 H   0  0  0  0  0  0  0  0  0  0  0  0
    8.4015   -0.3734   -1.9948 H   0  0  0  0  0  0  0  0  0  0  0  0
    5.8777    0.2514   -0.4782 H   0  0  0  0  0  0  0  0  0  0  0  0
    7.5349    0.3661    0.3158 H   0  0  0  0  0  0  0  0  0  0  0  0
  1  2  1  0
  2  3  1  0
  2 19  1  0
  3  4  1  0
  3  5  2  0
  5  6  1  0
  6  7  1  0
  6 19  1  0
  7  8  2  0
  7 18  1  0
  8  9  1  0
  9 10  2  0
 10 11  1  0
 11 12  1  0
 11 18  2  0
 12 13  2  0
 12 17  1  0
 13 14  1  0
 14 15  2  0
 15 16  1  0
 16 17  2  0
 19 20  2  0
  1 21  1  0
  1 22  1  0
  1 23  1  0
  4 24  1  0
  4 25  1  0
  5 26  1  0
  8 27  1  0
  9 28  1  0
 10 29  1  0
 13 30  1  0
 14 31  1  0
 15 32  1  0
 17 33  1  0
 18 34  1  0
 35 36  1  0
 36 37  1  0
 37 38  1  0
 38 39  1  0
 38 40  1  0
 40 41  1  0
 41 35  1  0
 36 42  1  0
 36 43  1  0
 37 44  1  0
 37 45  1  0
 38 46  1  0
 39 47  1  0
 40 48  1  0
 40 49  1  0
 41 50  1  0
 41 51  1  0
  6 35  1  6
M  CHG  1   5   1
M  END
>  <attachment_point>  (204) 
26

>  <score>  (204) 
<NA>

$$$$
CAT-4j
     RDKit          3D

 50 53  0  0  1  0  0  0  0  0999 V2000
   11.7106   -2.3098    1.2658 C   0  0  0  0  0  0  0  0  0  0  0  0
   13.0313   -2.6523    0.7225 N   0  0  0  0  0  0  0  0  0  0  0  0
   14.2010   -2.6281    1.3773 C   0  0  0  0  0  0  0  0  0  0  0  0
   14.3777   -2.3568    2.6732 N   0  0  0  0  0  0  0  0  0  0  0  0
   15.2217   -2.9197    0.5738 N   0  0  0  0  0  0  0  0  0  0  0  0
   14.7965   -3.2519   -0.7875 C   0  0  1  0  0  0  0  0  0  0  0  0
   15.3794   -2.2443   -1.7949 C   0  0  0  0  0  0  0  0  0  0  0  0
   15.9522   -2.6550   -3.0208 C   0  0  0  0  0  0  0  0  0  0  0  0
   16.4340   -1.6937   -3.9273 C   0  0  0  0  0  0  0  0  0  0  0  0
   16.3364   -0.3224   -3.6308 C   0  0  0  0  0  0  0  0  0  0  0  0
   15.7943    0.1250   -2.4073 C   0  0  0  0  0  0  0  0  0  0  0  0
   15.6711    1.5693   -2.0915 C   0  0  0  0  0  0  0  0  0  0  0  0
   15.3832    2.0354   -0.7903 C   0  0  0  0  0  0  0  0  0  0  0  0
   15.3534    3.4188   -0.5357 C   0  0  0  0  0  0  0  0  0  0  0  0
   15.5968    4.3049   -1.5946 C   0  0  0  0  0  0  0  0  0  0  0  0
   15.8275    3.8920   -2.8511 N   0  0  0  0  0  0  0  0  0  0  0  0
   15.8598    2.5642   -3.0762 C   0  0  0  0  0  0  0  0  0  0  0  0
   15.3327   -0.8573   -1.5012 C   0  0  0  0  0  0  0  0  0  0  0  0
   13.2767   -3.0094   -0.6368 C   0  0  0  0  0  0  0  0  0  0  0  0
   12.3981   -3.0674   -1.5055 O   0  0  0  0  0  0  0  0  0  0  0  0
    0.0000    0.0000    0.0000 H   0  0  0  0  0  0  0  0  0  0  0  0
    0.0000    0.0000    0.0000 H   0  0  0  0  0  0  0  0  0  0  0  0
    0.0000    0.0000    0.0000 H   0  0  0  0  0  0  0  0  0  0  0  0
    0.0000    0.0000    0.0000 H   0  0  0  0  0  0  0  0  0  0  0  0
    0.0000    0.0000    0.0000 H   0  0  0  0  0  0  0  0  0  0  0  0
    0.0000    0.0000    0.0000 H   0  0  0  0  0  0  0  0  0  0  0  0
    0.0000    0.0000    0.0000 H   0  0  0  0  0  0  0  0  0  0  0  0
    0.0000    0.0000    0.0000 H   0  0  0  0  0  0  0  0  0  0  0  0
    0.0000    0.0000    0.0000 H   0  0  0  0  0  0  0  0  0  0  0  0
    0.0000    0.0000    0.0000 H   0  0  0  0  0  0  0  0  0  0  0  0
    0.0000    0.0000    0.0000 H   0  0  0  0  0  0  0  0  0  0  0  0
    0.0000    0.0000    0.0000 H   0  0  0  0  0  0  0  0  0  0  0  0
    0.0000    0.0000    0.0000 H   0  0  0  0  0  0  0  0  0  0  0  0
    0.0000    0.0000    0.0000 H   0  0  0  0  0  0  0  0  0  0  0  0
    6.9368   -1.5245   -0.3692 C   0  0  0  0  0  0  0  0  0  0  0  0
    6.0833   -2.2479   -1.1299 C   0  0  0  0  0  0  0  0  0  0  0  0
    4.7090   -1.9730   -1.0808 C   0  0  0  0  0  0  0  0  0  0  0  0
    4.2942   -0.9615   -0.2442 C   0  0  0  0  0  0  0  0  0  0  0  0
    5.1602   -0.2217    0.5329 C   0  0  0  0  0  0  0  0  0  0  0  0
    4.6747    0.8392    1.4032 C   0  0  0  0  0  0  0  0  0  0  0  0
    3.2252    1.1153    1.4429 C   0  0  0  0  0  0  0  0  0  0  0  0
    5.4413    1.5269    2.1202 O   0  0  0  0  0  0  0  0  0  0  0  0
    6.5235   -0.5229    0.4589 C   0  0  0  0  0  0  0  0  0  0  0  0
    6.3821   -3.0485   -1.7964 H   0  0  0  0  0  0  0  0  0  0  0  0
    3.9977   -2.5357   -1.6794 H   0  0  0  0  0  0  0  0  0  0  0  0
    3.2115   -0.7471   -0.2074 H   0  0  0  0  0  0  0  0  0  0  0  0
    2.7589    0.2836    2.0313 H   0  0  0  0  0  0  0  0  0  0  0  0
    2.9876    2.0612    1.9714 H   0  0  0  0  0  0  0  0  0  0  0  0
    2.8109    1.1507    0.4247 H   0  0  0  0  0  0  0  0  0  0  0  0
    7.2250    0.0356    1.0523 H   0  0  0  0  0  0  0  0  0  0  0  0
  1  2  1  0
  2  3  1  0
  2 19  1  0
  3  4  1  0
  3  5  2  0
  5  6  1  0
  6  7  1  1
  6 19  1  0
  7  8  2  0
  7 18  1  0
  8  9  1  0
  9 10  2  0
 10 11  1  0
 11 12  1  0
 11 18  2  0
 12 13  2  0
 12 17  1  0
 13 14  1  0
 14 15  2  0
 15 16  1  0
 16 17  2  0
 19 20  2  0
  1 21  1  0
  1 22  1  0
  1 23  1  0
  4 24  1  0
  4 25  1  0
  5 26  1  0
  8 27  1  0
  9 28  1  0
 10 29  1  0
 13 30  1  0
 14 31  1  0
 15 32  1  0
 17 33  1  0
 18 34  1  0
 35 36  2  0
 36 37  1  0
 37 38  2  0
 38 39  1  0
 39 40  1  0
 40 41  1  0
 40 42  2  0
 39 43  2  0
 43 35  1  0
 36 44  1  0
 37 45  1  0
 38 46  1  0
 41 47  1  0
 41 48  1  0
 41 49  1  0
 43 50  1  0
  6 35  1  0
M  CHG  1   5   1
M  END
>  <attachment_point>  (205) 
26

>  <score>  (205) 
<NA>

$$$$
CAT-4j
     RDKit          3D

 47 50  0  0  1  0  0  0  0  0999 V2000
   11.7106   -2.3098    1.2658 C   0  0  0  0  0  0  0  0  0  0  0  0
   13.0313   -2.6523    0.7225 N   0  0  0  0  0  0  0  0  0  0  0  0
   14.2010   -2.6281    1.3773 C   0  0  0  0  0  0  0  0  0  0  0  0
   14.3777   -2.3568    2.6732 N   0  0  0  0  0  0  0  0  0  0  0  0
   15.2217   -2.9197    0.5738 N   0  0  0  0  0  0  0  0  0  0  0  0
   14.7965   -3.2519   -0.7875 C   0  0  1  0  0  0  0  0  0  0  0  0
   15.3794   -2.2443   -1.7949 C   0  0  0  0  0  0  0  0  0  0  0  0
   15.9522   -2.6550   -3.0208 C   0  0  0  0  0  0  0  0  0  0  0  0
   16.4340   -1.6937   -3.9273 C   0  0  0  0  0  0  0  0  0  0  0  0
   16.3364   -0.3224   -3.6308 C   0  0  0  0  0  0  0  0  0  0  0  0
   15.7943    0.1250   -2.4073 C   0  0  0  0  0  0  0  0  0  0  0  0
   15.6711    1.5693   -2.0915 C   0  0  0  0  0  0  0  0  0  0  0  0
   15.3832    2.0354   -0.7903 C   0  0  0  0  0  0  0  0  0  0  0  0
   15.3534    3.4188   -0.5357 C   0  0  0  0  0  0  0  0  0  0  0  0
   15.5968    4.3049   -1.5946 C   0  0  0  0  0  0  0  0  0  0  0  0
   15.8275    3.8920   -2.8511 N   0  0  0  0  0  0  0  0  0  0  0  0
   15.8598    2.5642   -3.0762 C   0  0  0  0  0  0  0  0  0  0  0  0
   15.3327   -0.8573   -1.5012 C   0  0  0  0  0  0  0  0  0  0  0  0
   13.2767   -3.0094   -0.6368 C   0  0  0  0  0  0  0  0  0  0  0  0
   12.3981   -3.0674   -1.5055 O   0  0  0  0  0  0  0  0  0  0  0  0
    0.0000    0.0000    0.0000 H   0  0  0  0  0  0  0  0  0  0  0  0
    0.0000    0.0000    0.0000 H   0  0  0  0  0  0  0  0  0  0  0  0
    0.0000    0.0000    0.0000 H   0  0  0  0  0  0  0  0  0  0  0  0
    0.0000    0.0000    0.0000 H   0  0  0  0  0  0  0  0  0  0  0  0
    0.0000    0.0000    0.0000 H   0  0  0  0  0  0  0  0  0  0  0  0
    0.0000    0.0000    0.0000 H   0  0  0  0  0  0  0  0  0  0  0  0
    0.0000    0.0000    0.0000 H   0  0  0  0  0  0  0  0  0  0  0  0
    0.0000    0.0000    0.0000 H   0  0  0  0  0  0  0  0  0  0  0  0
    0.0000    0.0000    0.0000 H   0  0  0  0  0  0  0  0  0  0  0  0
    0.0000    0.0000    0.0000 H   0  0  0  0  0  0  0  0  0  0  0  0
    0.0000    0.0000    0.0000 H   0  0  0  0  0  0  0  0  0  0  0  0
    0.0000    0.0000    0.0000 H   0  0  0  0  0  0  0  0  0  0  0  0
    0.0000    0.0000    0.0000 H   0  0  0  0  0  0  0  0  0  0  0  0
    0.0000    0.0000    0.0000 H   0  0  0  0  0  0  0  0  0  0  0  0
    6.9771   -1.5334   -0.3713 C   0  0  0  0  0  0  0  0  0  0  0  0
    6.1205   -2.4148   -0.9973 C   0  0  0  0  0  0  0  0  0  0  0  0
    4.7739   -2.1231   -0.9284 C   0  0  0  0  0  0  0  0  0  0  0  0
    4.3279   -0.9825   -0.2501 C   0  0  0  0  0  0  0  0  0  0  0  0
    5.2273   -0.1281    0.3625 C   0  0  0  0  0  0  0  0  0  0  0  0
    4.8022    1.0965    1.0954 C   0  0  0  0  0  0  0  0  0  0  0  0
    6.5353   -0.4351    0.2807 N   0  0  0  0  0  0  0  0  0  0  0  0
    6.4711   -3.2953   -1.5203 H   0  0  0  0  0  0  0  0  0  0  0  0
    4.0783   -2.8017   -1.4133 H   0  0  0  0  0  0  0  0  0  0  0  0
    3.2891   -0.7703   -0.2049 H   0  0  0  0  0  0  0  0  0  0  0  0
    4.8270    0.9607    2.1921 H   0  0  0  0  0  0  0  0  0  0  0  0
    3.7504    1.3593    0.8342 H   0  0  0  0  0  0  0  0  0  0  0  0
    5.4287    1.9726    0.8281 H   0  0  0  0  0  0  0  0  0  0  0  0
  1  2  1  0
  2  3  1  0
  2 19  1  0
  3  4  1  0
  3  5  2  0
  5  6  1  0
  6  7  1  1
  6 19  1  0
  7  8  2  0
  7 18  1  0
  8  9  1  0
  9 10  2  0
 10 11  1  0
 11 12  1  0
 11 18  2  0
 12 13  2  0
 12 17  1  0
 13 14  1  0
 14 15  2  0
 15 16  1  0
 16 17  2  0
 19 20  2  0
  1 21  1  0
  1 22  1  0
  1 23  1  0
  4 24  1  0
  4 25  1  0
  5 26  1  0
  8 27  1  0
  9 28  1  0
 10 29  1  0
 13 30  1  0
 14 31  1  0
 15 32  1  0
 17 33  1  0
 18 34  1  0
 35 36  2  0
 36 37  1  0
 37 38  2  0
 38 39  1  0
 39 40  1  0
 39 41  2  0
 41 35  1  0
 36 42  1  0
 37 43  1  0
 38 44  1  0
 40 45  1  0
 40 46  1  0
 40 47  1  0
  6 35  1  0
M  CHG  1   5   1
M  END
>  <attachment_point>  (206) 
26

>  <score>  (206) 
<NA>

$$$$
CAT-4j
     RDKit          3D

 44 47  0  0  1  0  0  0  0  0999 V2000
   11.7106   -2.3098    1.2658 C   0  0  0  0  0  0  0  0  0  0  0  0
   13.0313   -2.6523    0.7225 N   0  0  0  0  0  0  0  0  0  0  0  0
   14.2010   -2.6281    1.3773 C   0  0  0  0  0  0  0  0  0  0  0  0
   14.3777   -2.3568    2.6732 N   0  0  0  0  0  0  0  0  0  0  0  0
   15.2217   -2.9197    0.5738 N   0  0  0  0  0  0  0  0  0  0  0  0
   14.7965   -3.2519   -0.7875 C   0  0  1  0  0  0  0  0  0  0  0  0
   15.3794   -2.2443   -1.7949 C   0  0  0  0  0  0  0  0  0  0  0  0
   15.9522   -2.6550   -3.0208 C   0  0  0  0  0  0  0  0  0  0  0  0
   16.4340   -1.6937   -3.9273 C   0  0  0  0  0  0  0  0  0  0  0  0
   16.3364   -0.3224   -3.6308 C   0  0  0  0  0  0  0  0  0  0  0  0
   15.7943    0.1250   -2.4073 C   0  0  0  0  0  0  0  0  0  0  0  0
   15.6711    1.5693   -2.0915 C   0  0  0  0  0  0  0  0  0  0  0  0
   15.3832    2.0354   -0.7903 C   0  0  0  0  0  0  0  0  0  0  0  0
   15.3534    3.4188   -0.5357 C   0  0  0  0  0  0  0  0  0  0  0  0
   15.5968    4.3049   -1.5946 C   0  0  0  0  0  0  0  0  0  0  0  0
   15.8275    3.8920   -2.8511 N   0  0  0  0  0  0  0  0  0  0  0  0
   15.8598    2.5642   -3.0762 C   0  0  0  0  0  0  0  0  0  0  0  0
   15.3327   -0.8573   -1.5012 C   0  0  0  0  0  0  0  0  0  0  0  0
   13.2767   -3.0094   -0.6368 C   0  0  0  0  0  0  0  0  0  0  0  0
   12.3981   -3.0674   -1.5055 O   0  0  0  0  0  0  0  0  0  0  0  0
    0.0000    0.0000    0.0000 H   0  0  0  0  0  0  0  0  0  0  0  0
    0.0000    0.0000    0.0000 H   0  0  0  0  0  0  0  0  0  0  0  0
    0.0000    0.0000    0.0000 H   0  0  0  0  0  0  0  0  0  0  0  0
    0.0000    0.0000    0.0000 H   0  0  0  0  0  0  0  0  0  0  0  0
    0.0000    0.0000    0.0000 H   0  0  0  0  0  0  0  0  0  0  0  0
    0.0000    0.0000    0.0000 H   0  0  0  0  0  0  0  0  0  0  0  0
    0.0000    0.0000    0.0000 H   0  0  0  0  0  0  0  0  0  0  0  0
    0.0000    0.0000    0.0000 H   0  0  0  0  0  0  0  0  0  0  0  0
    0.0000    0.0000    0.0000 H   0  0  0  0  0  0  0  0  0  0  0  0
    0.0000    0.0000    0.0000 H   0  0  0  0  0  0  0  0  0  0  0  0
    0.0000    0.0000    0.0000 H   0  0  0  0  0  0  0  0  0  0  0  0
    0.0000    0.0000    0.0000 H   0  0  0  0  0  0  0  0  0  0  0  0
    0.0000    0.0000    0.0000 H   0  0  0  0  0  0  0  0  0  0  0  0
    0.0000    0.0000    0.0000 H   0  0  0  0  0  0  0  0  0  0  0  0
    6.9301   -1.5231   -0.3688 C   0  0  0  0  0  0  0  0  0  0  0  0
    6.0031   -2.4679   -0.6946 C   0  0  0  0  0  0  0  0  0  0  0  0
    4.5492   -1.6139   -0.4428 S   0  0  0  0  0  0  0  0  0  0  0  0
    5.2176   -0.1104    0.0607 C   0  0  0  0  0  0  0  0  0  0  0  0
    4.4949    1.1543    0.4605 C   0  0  0  0  0  0  0  0  0  0  0  0
    6.5060   -0.3540    0.0050 N   0  0  0  0  0  0  0  0  0  0  0  0
    6.2203   -3.4759   -1.0198 H   0  0  0  0  0  0  0  0  0  0  0  0
    3.6140    0.9156    1.0860 H   0  0  0  0  0  0  0  0  0  0  0  0
    5.1947    1.7497    1.0772 H   0  0  0  0  0  0  0  0  0  0  0  0
    4.1717    1.7319   -0.4075 H   0  0  0  0  0  0  0  0  0  0  0  0
  1  2  1  0
  2  3  1  0
  2 19  1  0
  3  4  1  0
  3  5  2  0
  5  6  1  0
  6  7  1  1
  6 19  1  0
  7  8  2  0
  7 18  1  0
  8  9  1  0
  9 10  2  0
 10 11  1  0
 11 12  1  0
 11 18  2  0
 12 13  2  0
 12 17  1  0
 13 14  1  0
 14 15  2  0
 15 16  1  0
 16 17  2  0
 19 20  2  0
  1 21  1  0
  1 22  1  0
  1 23  1  0
  4 24  1  0
  4 25  1  0
  5 26  1  0
  8 27  1  0
  9 28  1  0
 10 29  1  0
 13 30  1  0
 14 31  1  0
 15 32  1  0
 17 33  1  0
 18 34  1  0
 35 36  2  0
 36 37  1  0
 37 38  1  0
 38 39  1  0
 38 40  2  0
 40 35  1  0
 36 41  1  0
 39 42  1  0
 39 43  1  0
 39 44  1  0
  6 35  1  0
M  CHG  1   5   1
M  END
>  <attachment_point>  (207) 
26

>  <score>  (207) 
<NA>

$$$$
CAT-4j
     RDKit          3D

 46 49  0  0  1  0  0  0  0  0999 V2000
   11.7106   -2.3098    1.2658 C   0  0  0  0  0  0  0  0  0  0  0  0
   13.0313   -2.6523    0.7225 N   0  0  0  0  0  0  0  0  0  0  0  0
   14.2010   -2.6281    1.3773 C   0  0  0  0  0  0  0  0  0  0  0  0
   14.3777   -2.3568    2.6732 N   0  0  0  0  0  0  0  0  0  0  0  0
   15.2217   -2.9197    0.5738 N   0  0  0  0  0  0  0  0  0  0  0  0
   14.7965   -3.2519   -0.7875 C   0  0  1  0  0  0  0  0  0  0  0  0
   15.3794   -2.2443   -1.7949 C   0  0  0  0  0  0  0  0  0  0  0  0
   15.9522   -2.6550   -3.0208 C   0  0  0  0  0  0  0  0  0  0  0  0
   16.4340   -1.6937   -3.9273 C   0  0  0  0  0  0  0  0  0  0  0  0
   16.3364   -0.3224   -3.6308 C   0  0  0  0  0  0  0  0  0  0  0  0
   15.7943    0.1250   -2.4073 C   0  0  0  0  0  0  0  0  0  0  0  0
   15.6711    1.5693   -2.0915 C   0  0  0  0  0  0  0  0  0  0  0  0
   15.3832    2.0354   -0.7903 C   0  0  0  0  0  0  0  0  0  0  0  0
   15.3534    3.4188   -0.5357 C   0  0  0  0  0  0  0  0  0  0  0  0
   15.5968    4.3049   -1.5946 C   0  0  0  0  0  0  0  0  0  0  0  0
   15.8275    3.8920   -2.8511 N   0  0  0  0  0  0  0  0  0  0  0  0
   15.8598    2.5642   -3.0762 C   0  0  0  0  0  0  0  0  0  0  0  0
   15.3327   -0.8573   -1.5012 C   0  0  0  0  0  0  0  0  0  0  0  0
   13.2767   -3.0094   -0.6368 C   0  0  0  0  0  0  0  0  0  0  0  0
   12.3981   -3.0674   -1.5055 O   0  0  0  0  0  0  0  0  0  0  0  0
    0.0000    0.0000    0.0000 H   0  0  0  0  0  0  0  0  0  0  0  0
    0.0000    0.0000    0.0000 H   0  0  0  0  0  0  0  0  0  0  0  0
    0.0000    0.0000    0.0000 H   0  0  0  0  0  0  0  0  0  0  0  0
    0.0000    0.0000    0.0000 H   0  0  0  0  0  0  0  0  0  0  0  0
    0.0000    0.0000    0.0000 H   0  0  0  0  0  0  0  0  0  0  0  0
    0.0000    0.0000    0.0000 H   0  0  0  0  0  0  0  0  0  0  0  0
    0.0000    0.0000    0.0000 H   0  0  0  0  0  0  0  0  0  0  0  0
    0.0000    0.0000    0.0000 H   0  0  0  0  0  0  0  0  0  0  0  0
    0.0000    0.0000    0.0000 H   0  0  0  0  0  0  0  0  0  0  0  0
    0.0000    0.0000    0.0000 H   0  0  0  0  0  0  0  0  0  0  0  0
    0.0000    0.0000    0.0000 H   0  0  0  0  0  0  0  0  0  0  0  0
    0.0000    0.0000    0.0000 H   0  0  0  0  0  0  0  0  0  0  0  0
    0.0000    0.0000    0.0000 H   0  0  0  0  0  0  0  0  0  0  0  0
    0.0000    0.0000    0.0000 H   0  0  0  0  0  0  0  0  0  0  0  0
    6.8743   -1.5108   -0.3659 C   0  0  0  0  0  0  0  0  0  0  0  0
    6.2437   -2.2017   -1.0906 O   0  0  0  0  0  0  0  0  0  0  0  0
    6.5349   -0.5152    0.4944 N   0  0  0  0  0  0  0  0  0  0  0  0
    5.1613   -0.0743    0.6946 C   0  0  0  0  0  0  0  0  0  0  0  0
    4.6885    0.2950    2.0604 C   0  0  0  0  0  0  0  0  0  0  0  0
    4.8580    1.3314    0.9835 C   0  0  0  0  0  0  0  0  0  0  0  0
    7.2890   -0.0195    1.0589 H   0  0  0  0  0  0  0  0  0  0  0  0
    4.4110   -0.6205    0.0841 H   0  0  0  0  0  0  0  0  0  0  0  0
    5.3697    0.3332    2.9210 H   0  0  0  0  0  0  0  0  0  0  0  0
    3.6458    0.0050    2.3774 H   0  0  0  0  0  0  0  0  0  0  0  0
    3.8955    1.7765    0.6487 H   0  0  0  0  0  0  0  0  0  0  0  0
    5.6351    2.1009    1.1581 H   0  0  0  0  0  0  0  0  0  0  0  0
  1  2  1  0
  2  3  1  0
  2 19  1  0
  3  4  1  0
  3  5  2  0
  5  6  1  0
  6  7  1  0
  6 19  1  0
  7  8  2  0
  7 18  1  0
  8  9  1  0
  9 10  2  0
 10 11  1  0
 11 12  1  0
 11 18  2  0
 12 13  2  0
 12 17  1  0
 13 14  1  0
 14 15  2  0
 15 16  1  0
 16 17  2  0
 19 20  2  0
  1 21  1  0
  1 22  1  0
  1 23  1  0
  4 24  1  0
  4 25  1  0
  5 26  1  0
  8 27  1  0
  9 28  1  0
 10 29  1  0
 13 30  1  0
 14 31  1  0
 15 32  1  0
 17 33  1  0
 18 34  1  0
 35 36  2  0
 35 37  1  0
 37 38  1  0
 38 39  1  0
 39 40  1  0
 40 38  1  0
 37 41  1  0
 38 42  1  0
 39 43  1  0
 39 44  1  0
 40 45  1  0
 40 46  1  0
  6 35  1  6
M  CHG  1   5   1
M  END
>  <attachment_point>  (208) 
26

>  <score>  (208) 
<NA>

$$$$
CAT-4j
     RDKit          3D

 43 45  0  0  1  0  0  0  0  0999 V2000
   11.7106   -2.3098    1.2658 C   0  0  0  0  0  0  0  0  0  0  0  0
   13.0313   -2.6523    0.7225 N   0  0  0  0  0  0  0  0  0  0  0  0
   14.2010   -2.6281    1.3773 C   0  0  0  0  0  0  0  0  0  0  0  0
   14.3777   -2.3568    2.6732 N   0  0  0  0  0  0  0  0  0  0  0  0
   15.2217   -2.9197    0.5738 N   0  0  0  0  0  0  0  0  0  0  0  0
   14.7965   -3.2519   -0.7875 C   0  0  1  0  0  0  0  0  0  0  0  0
   15.3794   -2.2443   -1.7949 C   0  0  0  0  0  0  0  0  0  0  0  0
   15.9522   -2.6550   -3.0208 C   0  0  0  0  0  0  0  0  0  0  0  0
   16.4340   -1.6937   -3.9273 C   0  0  0  0  0  0  0  0  0  0  0  0
   16.3364   -0.3224   -3.6308 C   0  0  0  0  0  0  0  0  0  0  0  0
   15.7943    0.1250   -2.4073 C   0  0  0  0  0  0  0  0  0  0  0  0
   15.6711    1.5693   -2.0915 C   0  0  0  0  0  0  0  0  0  0  0  0
   15.3832    2.0354   -0.7903 C   0  0  0  0  0  0  0  0  0  0  0  0
   15.3534    3.4188   -0.5357 C   0  0  0  0  0  0  0  0  0  0  0  0
   15.5968    4.3049   -1.5946 C   0  0  0  0  0  0  0  0  0  0  0  0
   15.8275    3.8920   -2.8511 N   0  0  0  0  0  0  0  0  0  0  0  0
   15.8598    2.5642   -3.0762 C   0  0  0  0  0  0  0  0  0  0  0  0
   15.3327   -0.8573   -1.5012 C   0  0  0  0  0  0  0  0  0  0  0  0
   13.2767   -3.0094   -0.6368 C   0  0  0  0  0  0  0  0  0  0  0  0
   12.3981   -3.0674   -1.5055 O   0  0  0  0  0  0  0  0  0  0  0  0
    0.0000    0.0000    0.0000 H   0  0  0  0  0  0  0  0  0  0  0  0
    0.0000    0.0000    0.0000 H   0  0  0  0  0  0  0  0  0  0  0  0
    0.0000    0.0000    0.0000 H   0  0  0  0  0  0  0  0  0  0  0  0
    0.0000    0.0000    0.0000 H   0  0  0  0  0  0  0  0  0  0  0  0
    0.0000    0.0000    0.0000 H   0  0  0  0  0  0  0  0  0  0  0  0
    0.0000    0.0000    0.0000 H   0  0  0  0  0  0  0  0  0  0  0  0
    0.0000    0.0000    0.0000 H   0  0  0  0  0  0  0  0  0  0  0  0
    0.0000    0.0000    0.0000 H   0  0  0  0  0  0  0  0  0  0  0  0
    0.0000    0.0000    0.0000 H   0  0  0  0  0  0  0  0  0  0  0  0
    0.0000    0.0000    0.0000 H   0  0  0  0  0  0  0  0  0  0  0  0
    0.0000    0.0000    0.0000 H   0  0  0  0  0  0  0  0  0  0  0  0
    0.0000    0.0000    0.0000 H   0  0  0  0  0  0  0  0  0  0  0  0
    0.0000    0.0000    0.0000 H   0  0  0  0  0  0  0  0  0  0  0  0
    0.0000    0.0000    0.0000 H   0  0  0  0  0  0  0  0  0  0  0  0
    6.8959   -1.5155   -0.3670 O   0  0  0  0  0  0  0  0  0  0  0  0
    7.1838   -0.4229    0.4893 C   0  0  0  0  0  0  0  0  0  0  0  0
    5.9475    0.2159    0.9652 C   0  0  0  0  0  0  0  0  0  0  0  0
    5.6169    1.4746    0.7546 C   0  0  0  0  0  0  0  0  0  0  0  0
    7.7824   -0.7466    1.3660 H   0  0  0  0  0  0  0  0  0  0  0  0
    7.8066    0.2577   -0.1217 H   0  0  0  0  0  0  0  0  0  0  0  0
    5.2585   -0.4173    1.5378 H   0  0  0  0  0  0  0  0  0  0  0  0
    6.2840    2.0991    0.1967 H   0  0  0  0  0  0  0  0  0  0  0  0
    4.6965    1.8898    1.1278 H   0  0  0  0  0  0  0  0  0  0  0  0
  1  2  1  0
  2  3  1  0
  2 19  1  0
  3  4  1  0
  3  5  2  0
  5  6  1  0
  6  7  1  0
  6 19  1  0
  7  8  2  0
  7 18  1  0
  8  9  1  0
  9 10  2  0
 10 11  1  0
 11 12  1  0
 11 18  2  0
 12 13  2  0
 12 17  1  0
 13 14  1  0
 14 15  2  0
 15 16  1  0
 16 17  2  0
 19 20  2  0
  1 21  1  0
  1 22  1  0
  1 23  1  0
  4 24  1  0
  4 25  1  0
  5 26  1  0
  8 27  1  0
  9 28  1  0
 10 29  1  0
 13 30  1  0
 14 31  1  0
 15 32  1  0
 17 33  1  0
 18 34  1  0
 35 36  1  0
 36 37  1  0
 37 38  2  3
 36 39  1  0
 36 40  1  0
 37 41  1  0
 38 42  1  0
 38 43  1  0
  6 35  1  6
M  CHG  1   5   1
M  END
>  <attachment_point>  (209) 
26

>  <score>  (209) 
<NA>

$$$$
CAT-4j
     RDKit          3D

 46 49  0  0  1  0  0  0  0  0999 V2000
   11.7106   -2.3098    1.2658 C   0  0  0  0  0  0  0  0  0  0  0  0
   13.0313   -2.6523    0.7225 N   0  0  0  0  0  0  0  0  0  0  0  0
   14.2010   -2.6281    1.3773 C   0  0  0  0  0  0  0  0  0  0  0  0
   14.3777   -2.3568    2.6732 N   0  0  0  0  0  0  0  0  0  0  0  0
   15.2217   -2.9197    0.5738 N   0  0  0  0  0  0  0  0  0  0  0  0
   14.7965   -3.2519   -0.7875 C   0  0  1  0  0  0  0  0  0  0  0  0
   15.3794   -2.2443   -1.7949 C   0  0  0  0  0  0  0  0  0  0  0  0
   15.9522   -2.6550   -3.0208 C   0  0  0  0  0  0  0  0  0  0  0  0
   16.4340   -1.6937   -3.9273 C   0  0  0  0  0  0  0  0  0  0  0  0
   16.3364   -0.3224   -3.6308 C   0  0  0  0  0  0  0  0  0  0  0  0
   15.7943    0.1250   -2.4073 C   0  0  0  0  0  0  0  0  0  0  0  0
   15.6711    1.5693   -2.0915 C   0  0  0  0  0  0  0  0  0  0  0  0
   15.3832    2.0354   -0.7903 C   0  0  0  0  0  0  0  0  0  0  0  0
   15.3534    3.4188   -0.5357 C   0  0  0  0  0  0  0  0  0  0  0  0
   15.5968    4.3049   -1.5946 C   0  0  0  0  0  0  0  0  0  0  0  0
   15.8275    3.8920   -2.8511 N   0  0  0  0  0  0  0  0  0  0  0  0
   15.8598    2.5642   -3.0762 C   0  0  0  0  0  0  0  0  0  0  0  0
   15.3327   -0.8573   -1.5012 C   0  0  0  0  0  0  0  0  0  0  0  0
   13.2767   -3.0094   -0.6368 C   0  0  0  0  0  0  0  0  0  0  0  0
   12.3981   -3.0674   -1.5055 O   0  0  0  0  0  0  0  0  0  0  0  0
    0.0000    0.0000    0.0000 H   0  0  0  0  0  0  0  0  0  0  0  0
    0.0000    0.0000    0.0000 H   0  0  0  0  0  0  0  0  0  0  0  0
    0.0000    0.0000    0.0000 H   0  0  0  0  0  0  0  0  0  0  0  0
    0.0000    0.0000    0.0000 H   0  0  0  0  0  0  0  0  0  0  0  0
    0.0000    0.0000    0.0000 H   0  0  0  0  0  0  0  0  0  0  0  0
    0.0000    0.0000    0.0000 H   0  0  0  0  0  0  0  0  0  0  0  0
    0.0000    0.0000    0.0000 H   0  0  0  0  0  0  0  0  0  0  0  0
    0.0000    0.0000    0.0000 H   0  0  0  0  0  0  0  0  0  0  0  0
    0.0000    0.0000    0.0000 H   0  0  0  0  0  0  0  0  0  0  0  0
    0.0000    0.0000    0.0000 H   0  0  0  0  0  0  0  0  0  0  0  0
    0.0000    0.0000    0.0000 H   0  0  0  0  0  0  0  0  0  0  0  0
    0.0000    0.0000    0.0000 H   0  0  0  0  0  0  0  0  0  0  0  0
    0.0000    0.0000    0.0000 H   0  0  0  0  0  0  0  0  0  0  0  0
    0.0000    0.0000    0.0000 H   0  0  0  0  0  0  0  0  0  0  0  0
    7.0228   -1.5434   -0.3738 N   0  0  0  0  0  0  0  0  0  0  0  0
    6.5237   -0.2890    0.0963 C   0  0  0  0  0  0  0  0  0  0  0  0
    7.4132    0.6731    0.4975 C   0  0  0  0  0  0  0  0  0  0  0  0
    7.0226    1.9151    0.9662 C   0  0  0  0  0  0  0  0  0  0  0  0
    5.6559    2.1634    1.0188 C   0  0  0  0  0  0  0  0  0  0  0  0
    4.7721    1.1849    0.6115 C   0  0  0  0  0  0  0  0  0  0  0  0
    5.2236   -0.0166    0.1604 N   0  0  0  0  0  0  0  0  0  0  0  0
    6.3479   -2.2935   -0.6860 H   0  0  0  0  0  0  0  0  0  0  0  0
    8.4758    0.4599    0.4488 H   0  0  0  0  0  0  0  0  0  0  0  0
    7.6900    2.6818    1.2846 H   0  0  0  0  0  0  0  0  0  0  0  0
    5.2682    3.1224    1.3781 H   0  0  0  0  0  0  0  0  0  0  0  0
    3.7071    1.4101    0.6648 H   0  0  0  0  0  0  0  0  0  0  0  0
  1  2  1  0
  2  3  1  0
  2 19  1  0
  3  4  1  0
  3  5  2  0
  5  6  1  0
  6  7  1  0
  6 19  1  0
  7  8  2  0
  7 18  1  0
  8  9  1  0
  9 10  2  0
 10 11  1  0
 11 12  1  0
 11 18  2  0
 12 13  2  0
 12 17  1  0
 13 14  1  0
 14 15  2  0
 15 16  1  0
 16 17  2  0
 19 20  2  0
  1 21  1  0
  1 22  1  0
  1 23  1  0
  4 24  1  0
  4 25  1  0
  5 26  1  0
  8 27  1  0
  9 28  1  0
 10 29  1  0
 13 30  1  0
 14 31  1  0
 15 32  1  0
 17 33  1  0
 18 34  1  0
 35 36  1  0
 36 37  2  0
 37 38  1  0
 38 39  2  0
 39 40  1  0
 40 41  2  0
 41 36  1  0
 35 42  1  0
 37 43  1  0
 38 44  1  0
 39 45  1  0
 40 46  1  0
  6 35  1  6
M  CHG  1   5   1
M  END
>  <attachment_point>  (210) 
26

>  <score>  (210) 
<NA>

$$$$
CAT-4j
     RDKit          3D

 50 53  0  0  1  0  0  0  0  0999 V2000
   11.7106   -2.3098    1.2658 C   0  0  0  0  0  0  0  0  0  0  0  0
   13.0313   -2.6523    0.7225 N   0  0  0  0  0  0  0  0  0  0  0  0
   14.2010   -2.6281    1.3773 C   0  0  0  0  0  0  0  0  0  0  0  0
   14.3777   -2.3568    2.6732 N   0  0  0  0  0  0  0  0  0  0  0  0
   15.2217   -2.9197    0.5738 N   0  0  0  0  0  0  0  0  0  0  0  0
   14.7965   -3.2519   -0.7875 C   0  0  1  0  0  0  0  0  0  0  0  0
   15.3794   -2.2443   -1.7949 C   0  0  0  0  0  0  0  0  0  0  0  0
   15.9522   -2.6550   -3.0208 C   0  0  0  0  0  0  0  0  0  0  0  0
   16.4340   -1.6937   -3.9273 C   0  0  0  0  0  0  0  0  0  0  0  0
   16.3364   -0.3224   -3.6308 C   0  0  0  0  0  0  0  0  0  0  0  0
   15.7943    0.1250   -2.4073 C   0  0  0  0  0  0  0  0  0  0  0  0
   15.6711    1.5693   -2.0915 C   0  0  0  0  0  0  0  0  0  0  0  0
   15.3832    2.0354   -0.7903 C   0  0  0  0  0  0  0  0  0  0  0  0
   15.3534    3.4188   -0.5357 C   0  0  0  0  0  0  0  0  0  0  0  0
   15.5968    4.3049   -1.5946 C   0  0  0  0  0  0  0  0  0  0  0  0
   15.8275    3.8920   -2.8511 N   0  0  0  0  0  0  0  0  0  0  0  0
   15.8598    2.5642   -3.0762 C   0  0  0  0  0  0  0  0  0  0  0  0
   15.3327   -0.8573   -1.5012 C   0  0  0  0  0  0  0  0  0  0  0  0
   13.2767   -3.0094   -0.6368 C   0  0  0  0  0  0  0  0  0  0  0  0
   12.3981   -3.0674   -1.5055 O   0  0  0  0  0  0  0  0  0  0  0  0
    0.0000    0.0000    0.0000 H   0  0  0  0  0  0  0  0  0  0  0  0
    0.0000    0.0000    0.0000 H   0  0  0  0  0  0  0  0  0  0  0  0
    0.0000    0.0000    0.0000 H   0  0  0  0  0  0  0  0  0  0  0  0
    0.0000    0.0000    0.0000 H   0  0  0  0  0  0  0  0  0  0  0  0
    0.0000    0.0000    0.0000 H   0  0  0  0  0  0  0  0  0  0  0  0
    0.0000    0.0000    0.0000 H   0  0  0  0  0  0  0  0  0  0  0  0
    0.0000    0.0000    0.0000 H   0  0  0  0  0  0  0  0  0  0  0  0
    0.0000    0.0000    0.0000 H   0  0  0  0  0  0  0  0  0  0  0  0
    0.0000    0.0000    0.0000 H   0  0  0  0  0  0  0  0  0  0  0  0
    0.0000    0.0000    0.0000 H   0  0  0  0  0  0  0  0  0  0  0  0
    0.0000    0.0000    0.0000 H   0  0  0  0  0  0  0  0  0  0  0  0
    0.0000    0.0000    0.0000 H   0  0  0  0  0  0  0  0  0  0  0  0
    0.0000    0.0000    0.0000 H   0  0  0  0  0  0  0  0  0  0  0  0
    0.0000    0.0000    0.0000 H   0  0  0  0  0  0  0  0  0  0  0  0
    6.9233   -1.5216   -0.3685 N   0  0  0  0  0  0  0  0  0  0  0  0
    6.6302   -1.7525   -1.7699 C   0  0  0  0  0  0  0  0  0  0  0  0
    7.4287   -0.8442   -2.6801 C   0  0  0  0  0  0  0  0  0  0  0  0
    7.5945   -1.6767   -3.9331 C   0  0  0  0  0  0  0  0  0  0  0  0
    7.9294   -3.0409   -3.3571 C   0  0  0  0  0  0  0  0  0  0  0  0
    7.0750   -3.1595   -2.1096 C   0  0  0  0  0  0  0  0  0  0  0  0
    6.9873   -0.5288   -0.1221 H   0  0  0  0  0  0  0  0  0  0  0  0
    5.5558   -1.6058   -1.9086 H   0  0  0  0  0  0  0  0  0  0  0  0
    6.8801    0.0946   -2.8767 H   0  0  0  0  0  0  0  0  0  0  0  0
    8.4315   -0.6941   -2.2486 H   0  0  0  0  0  0  0  0  0  0  0  0
    8.4518   -1.3717   -4.5485 H   0  0  0  0  0  0  0  0  0  0  0  0
    6.6584   -1.7126   -4.5360 H   0  0  0  0  0  0  0  0  0  0  0  0
    7.7445   -3.8613   -4.0690 H   0  0  0  0  0  0  0  0  0  0  0  0
    9.0034   -2.9864   -3.0524 H   0  0  0  0  0  0  0  0  0  0  0  0
    7.6833   -3.6134   -1.3089 H   0  0  0  0  0  0  0  0  0  0  0  0
    6.2052   -3.8123   -2.2674 H   0  0  0  0  0  0  0  0  0  0  0  0
  1  2  1  0
  2  3  1  0
  2 19  1  0
  3  4  1  0
  3  5  2  0
  5  6  1  0
  6  7  1  0
  6 19  1  0
  7  8  2  0
  7 18  1  0
  8  9  1  0
  9 10  2  0
 10 11  1  0
 11 12  1  0
 11 18  2  0
 12 13  2  0
 12 17  1  0
 13 14  1  0
 14 15  2  0
 15 16  1  0
 16 17  2  0
 19 20  2  0
  1 21  1  0
  1 22  1  0
  1 23  1  0
  4 24  1  0
  4 25  1  0
  5 26  1  0
  8 27  1  0
  9 28  1  0
 10 29  1  0
 13 30  1  0
 14 31  1  0
 15 32  1  0
 17 33  1  0
 18 34  1  0
 35 36  1  0
 36 37  1  0
 37 38  1  0
 38 39  1  0
 39 40  1  0
 40 36  1  0
 35 41  1  0
 36 42  1  0
 37 43  1  0
 37 44  1  0
 38 45  1  0
 38 46  1  0
 39 47  1  0
 39 48  1  0
 40 49  1  0
 40 50  1  0
  6 35  1  6
M  CHG  1   5   1
M  END
>  <attachment_point>  (211) 
26

>  <score>  (211) 
<NA>

$$$$
CAT-4j
     RDKit          3D

 41 43  0  0  1  0  0  0  0  0999 V2000
   11.7106   -2.3098    1.2658 C   0  0  0  0  0  0  0  0  0  0  0  0
   13.0313   -2.6523    0.7225 N   0  0  0  0  0  0  0  0  0  0  0  0
   14.2010   -2.6281    1.3773 C   0  0  0  0  0  0  0  0  0  0  0  0
   14.3777   -2.3568    2.6732 N   0  0  0  0  0  0  0  0  0  0  0  0
   15.2217   -2.9197    0.5738 N   0  0  0  0  0  0  0  0  0  0  0  0
   14.7965   -3.2519   -0.7875 C   0  0  1  0  0  0  0  0  0  0  0  0
   15.3794   -2.2443   -1.7949 C   0  0  0  0  0  0  0  0  0  0  0  0
   15.9522   -2.6550   -3.0208 C   0  0  0  0  0  0  0  0  0  0  0  0
   16.4340   -1.6937   -3.9273 C   0  0  0  0  0  0  0  0  0  0  0  0
   16.3364   -0.3224   -3.6308 C   0  0  0  0  0  0  0  0  0  0  0  0
   15.7943    0.1250   -2.4073 C   0  0  0  0  0  0  0  0  0  0  0  0
   15.6711    1.5693   -2.0915 C   0  0  0  0  0  0  0  0  0  0  0  0
   15.3832    2.0354   -0.7903 C   0  0  0  0  0  0  0  0  0  0  0  0
   15.3534    3.4188   -0.5357 C   0  0  0  0  0  0  0  0  0  0  0  0
   15.5968    4.3049   -1.5946 C   0  0  0  0  0  0  0  0  0  0  0  0
   15.8275    3.8920   -2.8511 N   0  0  0  0  0  0  0  0  0  0  0  0
   15.8598    2.5642   -3.0762 C   0  0  0  0  0  0  0  0  0  0  0  0
   15.3327   -0.8573   -1.5012 C   0  0  0  0  0  0  0  0  0  0  0  0
   13.2767   -3.0094   -0.6368 C   0  0  0  0  0  0  0  0  0  0  0  0
   12.3981   -3.0674   -1.5055 O   0  0  0  0  0  0  0  0  0  0  0  0
    0.0000    0.0000    0.0000 H   0  0  0  0  0  0  0  0  0  0  0  0
    0.0000    0.0000    0.0000 H   0  0  0  0  0  0  0  0  0  0  0  0
    0.0000    0.0000    0.0000 H   0  0  0  0  0  0  0  0  0  0  0  0
    0.0000    0.0000    0.0000 H   0  0  0  0  0  0  0  0  0  0  0  0
    0.0000    0.0000    0.0000 H   0  0  0  0  0  0  0  0  0  0  0  0
    0.0000    0.0000    0.0000 H   0  0  0  0  0  0  0  0  0  0  0  0
    0.0000    0.0000    0.0000 H   0  0  0  0  0  0  0  0  0  0  0  0
    0.0000    0.0000    0.0000 H   0  0  0  0  0  0  0  0  0  0  0  0
    0.0000    0.0000    0.0000 H   0  0  0  0  0  0  0  0  0  0  0  0
    0.0000    0.0000    0.0000 H   0  0  0  0  0  0  0  0  0  0  0  0
    0.0000    0.0000    0.0000 H   0  0  0  0  0  0  0  0  0  0  0  0
    0.0000    0.0000    0.0000 H   0  0  0  0  0  0  0  0  0  0  0  0
    0.0000    0.0000    0.0000 H   0  0  0  0  0  0  0  0  0  0  0  0
    0.0000    0.0000    0.0000 H   0  0  0  0  0  0  0  0  0  0  0  0
    6.8836   -1.5128   -0.3664 N   0  0  0  0  0  0  0  0  0  0  0  0
    6.1292   -2.6007   -0.6075 C   0  0  0  0  0  0  0  0  0  0  0  0
    4.6858   -2.5462   -0.5897 N   0  0  0  0  0  0  0  0  0  0  0  0
    6.6433   -3.7335   -0.8639 O   0  0  0  0  0  0  0  0  0  0  0  0
    6.7758   -0.5956   -0.1600 H   0  0  0  0  0  0  0  0  0  0  0  0
    4.1840   -2.7874    0.2812 H   0  0  0  0  0  0  0  0  0  0  0  0
    4.1912   -2.2634   -1.4619 H   0  0  0  0  0  0  0  0  0  0  0  0
  1  2  1  0
  2  3  1  0
  2 19  1  0
  3  4  1  0
  3  5  2  0
  5  6  1  0
  6  7  1  0
  6 19  1  0
  7  8  2  0
  7 18  1  0
  8  9  1  0
  9 10  2  0
 10 11  1  0
 11 12  1  0
 11 18  2  0
 12 13  2  0
 12 17  1  0
 13 14  1  0
 14 15  2  0
 15 16  1  0
 16 17  2  0
 19 20  2  0
  1 21  1  0
  1 22  1  0
  1 23  1  0
  4 24  1  0
  4 25  1  0
  5 26  1  0
  8 27  1  0
  9 28  1  0
 10 29  1  0
 13 30  1  0
 14 31  1  0
 15 32  1  0
 17 33  1  0
 18 34  1  0
 35 36  1  0
 36 37  1  0
 36 38  2  0
 35 39  1  0
 37 40  1  0
 37 41  1  0
  6 35  1  6
M  CHG  1   5   1
M  END
>  <attachment_point>  (212) 
26

>  <score>  (212) 
<NA>

$$$$
CAT-4j
     RDKit          3D

 42 44  0  0  1  0  0  0  0  0999 V2000
   11.7106   -2.3098    1.2658 C   0  0  0  0  0  0  0  0  0  0  0  0
   13.0313   -2.6523    0.7225 N   0  0  0  0  0  0  0  0  0  0  0  0
   14.2010   -2.6281    1.3773 C   0  0  0  0  0  0  0  0  0  0  0  0
   14.3777   -2.3568    2.6732 N   0  0  0  0  0  0  0  0  0  0  0  0
   15.2217   -2.9197    0.5738 N   0  0  0  0  0  0  0  0  0  0  0  0
   14.7965   -3.2519   -0.7875 C   0  0  1  0  0  0  0  0  0  0  0  0
   15.3794   -2.2443   -1.7949 C   0  0  0  0  0  0  0  0  0  0  0  0
   15.9522   -2.6550   -3.0208 C   0  0  0  0  0  0  0  0  0  0  0  0
   16.4340   -1.6937   -3.9273 C   0  0  0  0  0  0  0  0  0  0  0  0
   16.3364   -0.3224   -3.6308 C   0  0  0  0  0  0  0  0  0  0  0  0
   15.7943    0.1250   -2.4073 C   0  0  0  0  0  0  0  0  0  0  0  0
   15.6711    1.5693   -2.0915 C   0  0  0  0  0  0  0  0  0  0  0  0
   15.3832    2.0354   -0.7903 C   0  0  0  0  0  0  0  0  0  0  0  0
   15.3534    3.4188   -0.5357 C   0  0  0  0  0  0  0  0  0  0  0  0
   15.5968    4.3049   -1.5946 C   0  0  0  0  0  0  0  0  0  0  0  0
   15.8275    3.8920   -2.8511 N   0  0  0  0  0  0  0  0  0  0  0  0
   15.8598    2.5642   -3.0762 C   0  0  0  0  0  0  0  0  0  0  0  0
   15.3327   -0.8573   -1.5012 C   0  0  0  0  0  0  0  0  0  0  0  0
   13.2767   -3.0094   -0.6368 C   0  0  0  0  0  0  0  0  0  0  0  0
   12.3981   -3.0674   -1.5055 O   0  0  0  0  0  0  0  0  0  0  0  0
    0.0000    0.0000    0.0000 H   0  0  0  0  0  0  0  0  0  0  0  0
    0.0000    0.0000    0.0000 H   0  0  0  0  0  0  0  0  0  0  0  0
    0.0000    0.0000    0.0000 H   0  0  0  0  0  0  0  0  0  0  0  0
    0.0000    0.0000    0.0000 H   0  0  0  0  0  0  0  0  0  0  0  0
    0.0000    0.0000    0.0000 H   0  0  0  0  0  0  0  0  0  0  0  0
    0.0000    0.0000    0.0000 H   0  0  0  0  0  0  0  0  0  0  0  0
    0.0000    0.0000    0.0000 H   0  0  0  0  0  0  0  0  0  0  0  0
    0.0000    0.0000    0.0000 H   0  0  0  0  0  0  0  0  0  0  0  0
    0.0000    0.0000    0.0000 H   0  0  0  0  0  0  0  0  0  0  0  0
    0.0000    0.0000    0.0000 H   0  0  0  0  0  0  0  0  0  0  0  0
    0.0000    0.0000    0.0000 H   0  0  0  0  0  0  0  0  0  0  0  0
    0.0000    0.0000    0.0000 H   0  0  0  0  0  0  0  0  0  0  0  0
    0.0000    0.0000    0.0000 H   0  0  0  0  0  0  0  0  0  0  0  0
    0.0000    0.0000    0.0000 H   0  0  0  0  0  0  0  0  0  0  0  0
    6.9860   -1.5353   -0.3718 C   0  0  0  0  0  0  0  0  0  0  0  0
    6.4535   -1.0810   -1.6723 C   0  0  0  0  0  0  0  0  0  0  0  0
    5.4812   -1.7324   -2.2785 C   0  0  0  0  0  0  0  0  0  0  0  0
    6.7528   -0.7448    0.3769 H   0  0  0  0  0  0  0  0  0  0  0  0
    6.4814   -2.4710   -0.0283 H   0  0  0  0  0  0  0  0  0  0  0  0
    6.9104   -0.1810   -2.0967 H   0  0  0  0  0  0  0  0  0  0  0  0
    5.1368   -1.3449   -3.2315 H   0  0  0  0  0  0  0  0  0  0  0  0
    5.0772   -2.6111   -1.8044 H   0  0  0  0  0  0  0  0  0  0  0  0
  1  2  1  0
  2  3  1  0
  2 19  1  0
  3  4  1  0
  3  5  2  0
  5  6  1  0
  6  7  1  0
  6 19  1  0
  7  8  2  0
  7 18  1  0
  8  9  1  0
  9 10  2  0
 10 11  1  0
 11 12  1  0
 11 18  2  0
 12 13  2  0
 12 17  1  0
 13 14  1  0
 14 15  2  0
 15 16  1  0
 16 17  2  0
 19 20  2  0
  1 21  1  0
  1 22  1  0
  1 23  1  0
  4 24  1  0
  4 25  1  0
  5 26  1  0
  8 27  1  0
  9 28  1  0
 10 29  1  0
 13 30  1  0
 14 31  1  0
 15 32  1  0
 17 33  1  0
 18 34  1  0
 35 36  1  0
 36 37  2  3
 35 38  1  0
 35 39  1  0
 36 40  1  0
 37 41  1  0
 37 42  1  0
  6 35  1  6
M  CHG  1   5   1
M  END
>  <attachment_point>  (213) 
26

>  <score>  (213) 
<NA>

$$$$
CAT-4j
     RDKit          3D

 51 54  0  0  1  0  0  0  0  0999 V2000
   11.7106   -2.3098    1.2658 C   0  0  0  0  0  0  0  0  0  0  0  0
   13.0313   -2.6523    0.7225 N   0  0  0  0  0  0  0  0  0  0  0  0
   14.2010   -2.6281    1.3773 C   0  0  0  0  0  0  0  0  0  0  0  0
   14.3777   -2.3568    2.6732 N   0  0  0  0  0  0  0  0  0  0  0  0
   15.2217   -2.9197    0.5738 N   0  0  0  0  0  0  0  0  0  0  0  0
   14.7965   -3.2519   -0.7875 C   0  0  1  0  0  0  0  0  0  0  0  0
   15.3794   -2.2443   -1.7949 C   0  0  0  0  0  0  0  0  0  0  0  0
   15.9522   -2.6550   -3.0208 C   0  0  0  0  0  0  0  0  0  0  0  0
   16.4340   -1.6937   -3.9273 C   0  0  0  0  0  0  0  0  0  0  0  0
   16.3364   -0.3224   -3.6308 C   0  0  0  0  0  0  0  0  0  0  0  0
   15.7943    0.1250   -2.4073 C   0  0  0  0  0  0  0  0  0  0  0  0
   15.6711    1.5693   -2.0915 C   0  0  0  0  0  0  0  0  0  0  0  0
   15.3832    2.0354   -0.7903 C   0  0  0  0  0  0  0  0  0  0  0  0
   15.3534    3.4188   -0.5357 C   0  0  0  0  0  0  0  0  0  0  0  0
   15.5968    4.3049   -1.5946 C   0  0  0  0  0  0  0  0  0  0  0  0
   15.8275    3.8920   -2.8511 N   0  0  0  0  0  0  0  0  0  0  0  0
   15.8598    2.5642   -3.0762 C   0  0  0  0  0  0  0  0  0  0  0  0
   15.3327   -0.8573   -1.5012 C   0  0  0  0  0  0  0  0  0  0  0  0
   13.2767   -3.0094   -0.6368 C   0  0  0  0  0  0  0  0  0  0  0  0
   12.3981   -3.0674   -1.5055 O   0  0  0  0  0  0  0  0  0  0  0  0
    0.0000    0.0000    0.0000 H   0  0  0  0  0  0  0  0  0  0  0  0
    0.0000    0.0000    0.0000 H   0  0  0  0  0  0  0  0  0  0  0  0
    0.0000    0.0000    0.0000 H   0  0  0  0  0  0  0  0  0  0  0  0
    0.0000    0.0000    0.0000 H   0  0  0  0  0  0  0  0  0  0  0  0
    0.0000    0.0000    0.0000 H   0  0  0  0  0  0  0  0  0  0  0  0
    0.0000    0.0000    0.0000 H   0  0  0  0  0  0  0  0  0  0  0  0
    0.0000    0.0000    0.0000 H   0  0  0  0  0  0  0  0  0  0  0  0
    0.0000    0.0000    0.0000 H   0  0  0  0  0  0  0  0  0  0  0  0
    0.0000    0.0000    0.0000 H   0  0  0  0  0  0  0  0  0  0  0  0
    0.0000    0.0000    0.0000 H   0  0  0  0  0  0  0  0  0  0  0  0
    0.0000    0.0000    0.0000 H   0  0  0  0  0  0  0  0  0  0  0  0
    0.0000    0.0000    0.0000 H   0  0  0  0  0  0  0  0  0  0  0  0
    0.0000    0.0000    0.0000 H   0  0  0  0  0  0  0  0  0  0  0  0
    0.0000    0.0000    0.0000 H   0  0  0  0  0  0  0  0  0  0  0  0
    6.8888   -1.5140   -0.3666 C   0  0  0  0  0  0  0  0  0  0  0  0
    6.0531   -2.3589   -0.9827 C   0  0  0  0  0  0  0  0  0  0  0  0
    4.6600   -2.1130   -0.9473 C   0  0  0  0  0  0  0  0  0  0  0  0
    4.2512   -0.9932   -0.2643 C   0  0  0  0  0  0  0  0  0  0  0  0
    2.5410   -0.6007   -0.1625 S   0  0  0  0  0  6  0  0  0  0  0  0
    1.8498   -1.3773    1.2830 C   0  0  0  0  0  0  0  0  0  0  0  0
    2.3809    0.8801   -0.0043 O   0  0  0  0  0  0  0  0  0  0  0  0
    1.7845   -1.1304   -1.3502 O   0  0  0  0  0  0  0  0  0  0  0  0
    5.1569   -0.1616    0.3494 C   0  0  0  0  0  0  0  0  0  0  0  0
    6.5448   -0.4162    0.3080 C   0  0  0  0  0  0  0  0  0  0  0  0
    6.3752   -3.2399   -1.5202 H   0  0  0  0  0  0  0  0  0  0  0  0
    3.9915   -2.7971   -1.4454 H   0  0  0  0  0  0  0  0  0  0  0  0
    2.3438   -1.0332    2.2185 H   0  0  0  0  0  0  0  0  0  0  0  0
    0.7526   -1.1888    1.2978 H   0  0  0  0  0  0  0  0  0  0  0  0
    1.9896   -2.4760    1.2128 H   0  0  0  0  0  0  0  0  0  0  0  0
    4.8519    0.7380    0.9003 H   0  0  0  0  0  0  0  0  0  0  0  0
    7.2435    0.2668    0.8081 H   0  0  0  0  0  0  0  0  0  0  0  0
  1  2  1  0
  2  3  1  0
  2 19  1  0
  3  4  1  0
  3  5  2  0
  5  6  1  0
  6  7  1  1
  6 19  1  0
  7  8  2  0
  7 18  1  0
  8  9  1  0
  9 10  2  0
 10 11  1  0
 11 12  1  0
 11 18  2  0
 12 13  2  0
 12 17  1  0
 13 14  1  0
 14 15  2  0
 15 16  1  0
 16 17  2  0
 19 20  2  0
  1 21  1  0
  1 22  1  0
  1 23  1  0
  4 24  1  0
  4 25  1  0
  5 26  1  0
  8 27  1  0
  9 28  1  0
 10 29  1  0
 13 30  1  0
 14 31  1  0
 15 32  1  0
 17 33  1  0
 18 34  1  0
 35 36  2  0
 36 37  1  0
 37 38  2  0
 38 39  1  0
 39 40  1  0
 39 41  2  0
 39 42  2  0
 38 43  1  0
 43 44  2  0
 44 35  1  0
 36 45  1  0
 37 46  1  0
 40 47  1  0
 40 48  1  0
 40 49  1  0
 43 50  1  0
 44 51  1  0
  6 35  1  0
M  CHG  1   5   1
M  END
>  <attachment_point>  (214) 
26

>  <score>  (214) 
<NA>

$$$$
CAT-4j
     RDKit          3D

 39 41  0  0  1  0  0  0  0  0999 V2000
   11.7106   -2.3098    1.2658 C   0  0  0  0  0  0  0  0  0  0  0  0
   13.0313   -2.6523    0.7225 N   0  0  0  0  0  0  0  0  0  0  0  0
   14.2010   -2.6281    1.3773 C   0  0  0  0  0  0  0  0  0  0  0  0
   14.3777   -2.3568    2.6732 N   0  0  0  0  0  0  0  0  0  0  0  0
   15.2217   -2.9197    0.5738 N   0  0  0  0  0  0  0  0  0  0  0  0
   14.7965   -3.2519   -0.7875 C   0  0  1  0  0  0  0  0  0  0  0  0
   15.3794   -2.2443   -1.7949 C   0  0  0  0  0  0  0  0  0  0  0  0
   15.9522   -2.6550   -3.0208 C   0  0  0  0  0  0  0  0  0  0  0  0
   16.4340   -1.6937   -3.9273 C   0  0  0  0  0  0  0  0  0  0  0  0
   16.3364   -0.3224   -3.6308 C   0  0  0  0  0  0  0  0  0  0  0  0
   15.7943    0.1250   -2.4073 C   0  0  0  0  0  0  0  0  0  0  0  0
   15.6711    1.5693   -2.0915 C   0  0  0  0  0  0  0  0  0  0  0  0
   15.3832    2.0354   -0.7903 C   0  0  0  0  0  0  0  0  0  0  0  0
   15.3534    3.4188   -0.5357 C   0  0  0  0  0  0  0  0  0  0  0  0
   15.5968    4.3049   -1.5946 C   0  0  0  0  0  0  0  0  0  0  0  0
   15.8275    3.8920   -2.8511 N   0  0  0  0  0  0  0  0  0  0  0  0
   15.8598    2.5642   -3.0762 C   0  0  0  0  0  0  0  0  0  0  0  0
   15.3327   -0.8573   -1.5012 C   0  0  0  0  0  0  0  0  0  0  0  0
   13.2767   -3.0094   -0.6368 C   0  0  0  0  0  0  0  0  0  0  0  0
   12.3981   -3.0674   -1.5055 O   0  0  0  0  0  0  0  0  0  0  0  0
    0.0000    0.0000    0.0000 H   0  0  0  0  0  0  0  0  0  0  0  0
    0.0000    0.0000    0.0000 H   0  0  0  0  0  0  0  0  0  0  0  0
    0.0000    0.0000    0.0000 H   0  0  0  0  0  0  0  0  0  0  0  0
    0.0000    0.0000    0.0000 H   0  0  0  0  0  0  0  0  0  0  0  0
    0.0000    0.0000    0.0000 H   0  0  0  0  0  0  0  0  0  0  0  0
    0.0000    0.0000    0.0000 H   0  0  0  0  0  0  0  0  0  0  0  0
    0.0000    0.0000    0.0000 H   0  0  0  0  0  0  0  0  0  0  0  0
    0.0000    0.0000    0.0000 H   0  0  0  0  0  0  0  0  0  0  0  0
    0.0000    0.0000    0.0000 H   0  0  0  0  0  0  0  0  0  0  0  0
    0.0000    0.0000    0.0000 H   0  0  0  0  0  0  0  0  0  0  0  0
    0.0000    0.0000    0.0000 H   0  0  0  0  0  0  0  0  0  0  0  0
    0.0000    0.0000    0.0000 H   0  0  0  0  0  0  0  0  0  0  0  0
    0.0000    0.0000    0.0000 H   0  0  0  0  0  0  0  0  0  0  0  0
    0.0000    0.0000    0.0000 H   0  0  0  0  0  0  0  0  0  0  0  0
    7.1631   -1.5743   -0.3812 O   0  0  0  0  0  0  0  0  0  0  0  0
    5.9448   -0.9358   -0.3133 C   0  0  0  0  0  0  0  0  0  0  0  0
    5.1512   -1.3009   -1.3807 F   0  0  0  0  0  0  0  0  0  0  0  0
    5.3306   -1.2637    0.8870 F   0  0  0  0  0  0  0  0  0  0  0  0
    6.0652    0.1615   -0.3109 H   0  0  0  0  0  0  0  0  0  0  0  0
  1  2  1  0
  2  3  1  0
  2 19  1  0
  3  4  1  0
  3  5  2  0
  5  6  1  0
  6  7  1  0
  6 19  1  0
  7  8  2  0
  7 18  1  0
  8  9  1  0
  9 10  2  0
 10 11  1  0
 11 12  1  0
 11 18  2  0
 12 13  2  0
 12 17  1  0
 13 14  1  0
 14 15  2  0
 15 16  1  0
 16 17  2  0
 19 20  2  0
  1 21  1  0
  1 22  1  0
  1 23  1  0
  4 24  1  0
  4 25  1  0
  5 26  1  0
  8 27  1  0
  9 28  1  0
 10 29  1  0
 13 30  1  0
 14 31  1  0
 15 32  1  0
 17 33  1  0
 18 34  1  0
 35 36  1  0
 36 37  1  0
 36 38  1  0
 36 39  1  0
  6 35  1  6
M  CHG  1   5   1
M  END
>  <attachment_point>  (215) 
26

>  <score>  (215) 
<NA>

$$$$
CAT-4j
     RDKit          3D

 52 55  0  0  1  0  0  0  0  0999 V2000
   11.7106   -2.3098    1.2658 C   0  0  0  0  0  0  0  0  0  0  0  0
   13.0313   -2.6523    0.7225 N   0  0  0  0  0  0  0  0  0  0  0  0
   14.2010   -2.6281    1.3773 C   0  0  0  0  0  0  0  0  0  0  0  0
   14.3777   -2.3568    2.6732 N   0  0  0  0  0  0  0  0  0  0  0  0
   15.2217   -2.9197    0.5738 N   0  0  0  0  0  0  0  0  0  0  0  0
   14.7965   -3.2519   -0.7875 C   0  0  1  0  0  0  0  0  0  0  0  0
   15.3794   -2.2443   -1.7949 C   0  0  0  0  0  0  0  0  0  0  0  0
   15.9522   -2.6550   -3.0208 C   0  0  0  0  0  0  0  0  0  0  0  0
   16.4340   -1.6937   -3.9273 C   0  0  0  0  0  0  0  0  0  0  0  0
   16.3364   -0.3224   -3.6308 C   0  0  0  0  0  0  0  0  0  0  0  0
   15.7943    0.1250   -2.4073 C   0  0  0  0  0  0  0  0  0  0  0  0
   15.6711    1.5693   -2.0915 C   0  0  0  0  0  0  0  0  0  0  0  0
   15.3832    2.0354   -0.7903 C   0  0  0  0  0  0  0  0  0  0  0  0
   15.3534    3.4188   -0.5357 C   0  0  0  0  0  0  0  0  0  0  0  0
   15.5968    4.3049   -1.5946 C   0  0  0  0  0  0  0  0  0  0  0  0
   15.8275    3.8920   -2.8511 N   0  0  0  0  0  0  0  0  0  0  0  0
   15.8598    2.5642   -3.0762 C   0  0  0  0  0  0  0  0  0  0  0  0
   15.3327   -0.8573   -1.5012 C   0  0  0  0  0  0  0  0  0  0  0  0
   13.2767   -3.0094   -0.6368 C   0  0  0  0  0  0  0  0  0  0  0  0
   12.3981   -3.0674   -1.5055 O   0  0  0  0  0  0  0  0  0  0  0  0
    0.0000    0.0000    0.0000 H   0  0  0  0  0  0  0  0  0  0  0  0
    0.0000    0.0000    0.0000 H   0  0  0  0  0  0  0  0  0  0  0  0
    0.0000    0.0000    0.0000 H   0  0  0  0  0  0  0  0  0  0  0  0
    0.0000    0.0000    0.0000 H   0  0  0  0  0  0  0  0  0  0  0  0
    0.0000    0.0000    0.0000 H   0  0  0  0  0  0  0  0  0  0  0  0
    0.0000    0.0000    0.0000 H   0  0  0  0  0  0  0  0  0  0  0  0
    0.0000    0.0000    0.0000 H   0  0  0  0  0  0  0  0  0  0  0  0
    0.0000    0.0000    0.0000 H   0  0  0  0  0  0  0  0  0  0  0  0
    0.0000    0.0000    0.0000 H   0  0  0  0  0  0  0  0  0  0  0  0
    0.0000    0.0000    0.0000 H   0  0  0  0  0  0  0  0  0  0  0  0
    0.0000    0.0000    0.0000 H   0  0  0  0  0  0  0  0  0  0  0  0
    0.0000    0.0000    0.0000 H   0  0  0  0  0  0  0  0  0  0  0  0
    0.0000    0.0000    0.0000 H   0  0  0  0  0  0  0  0  0  0  0  0
    0.0000    0.0000    0.0000 H   0  0  0  0  0  0  0  0  0  0  0  0
    7.0059   -1.5397   -0.3729 N   0  0  0  0  0  0  0  0  0  0  0  0
    5.9662   -2.5010   -0.4994 C   0  0  0  0  0  0  0  0  0  0  0  0
    6.3185   -3.6912   -0.6885 O   0  0  0  0  0  0  0  0  0  0  0  0
    4.5764   -2.0712   -0.4063 C   0  0  0  0  0  0  0  0  0  0  0  0
    3.5832   -3.1266   -0.5485 C   0  0  0  0  0  0  0  0  0  0  0  0
    3.0231   -3.5207   -1.7470 C   0  0  0  0  0  0  0  0  0  0  0  0
    2.0890   -4.5238   -1.8271 C   0  0  0  0  0  0  0  0  0  0  0  0
    1.6707   -5.1848   -0.6879 C   0  0  0  0  0  0  0  0  0  0  0  0
    2.2222   -4.8003    0.5114 C   0  0  0  0  0  0  0  0  0  0  0  0
    3.1616   -3.7903    0.5851 C   0  0  0  0  0  0  0  0  0  0  0  0
    6.7915   -0.5173   -0.2121 H   0  0  0  0  0  0  0  0  0  0  0  0
    4.4282   -1.5841    0.5910 H   0  0  0  0  0  0  0  0  0  0  0  0
    4.3959   -1.2572   -1.1473 H   0  0  0  0  0  0  0  0  0  0  0  0
    3.3539   -3.0014   -2.6287 H   0  0  0  0  0  0  0  0  0  0  0  0
    1.6901   -4.7814   -2.8084 H   0  0  0  0  0  0  0  0  0  0  0  0
    0.9288   -5.9777   -0.7734 H   0  0  0  0  0  0  0  0  0  0  0  0
    1.9022   -5.3075    1.3920 H   0  0  0  0  0  0  0  0  0  0  0  0
    3.5472   -3.5463    1.5619 H   0  0  0  0  0  0  0  0  0  0  0  0
  1  2  1  0
  2  3  1  0
  2 19  1  0
  3  4  1  0
  3  5  2  0
  5  6  1  0
  6  7  1  0
  6 19  1  0
  7  8  2  0
  7 18  1  0
  8  9  1  0
  9 10  2  0
 10 11  1  0
 11 12  1  0
 11 18  2  0
 12 13  2  0
 12 17  1  0
 13 14  1  0
 14 15  2  0
 15 16  1  0
 16 17  2  0
 19 20  2  0
  1 21  1  0
  1 22  1  0
  1 23  1  0
  4 24  1  0
  4 25  1  0
  5 26  1  0
  8 27  1  0
  9 28  1  0
 10 29  1  0
 13 30  1  0
 14 31  1  0
 15 32  1  0
 17 33  1  0
 18 34  1  0
 35 36  1  0
 36 37  2  0
 36 38  1  0
 38 39  1  0
 39 40  2  0
 40 41  1  0
 41 42  2  0
 42 43  1  0
 43 44  2  0
 44 39  1  0
 35 45  1  0
 38 46  1  0
 38 47  1  0
 40 48  1  0
 41 49  1  0
 42 50  1  0
 43 51  1  0
 44 52  1  0
  6 35  1  6
M  CHG  1   5   1
M  END
>  <attachment_point>  (216) 
26

>  <score>  (216) 
<NA>

$$$$
CAT-4j
     RDKit          3D

 47 50  0  0  1  0  0  0  0  0999 V2000
   11.7106   -2.3098    1.2658 C   0  0  0  0  0  0  0  0  0  0  0  0
   13.0313   -2.6523    0.7225 N   0  0  0  0  0  0  0  0  0  0  0  0
   14.2010   -2.6281    1.3773 C   0  0  0  0  0  0  0  0  0  0  0  0
   14.3777   -2.3568    2.6732 N   0  0  0  0  0  0  0  0  0  0  0  0
   15.2217   -2.9197    0.5738 N   0  0  0  0  0  0  0  0  0  0  0  0
   14.7965   -3.2519   -0.7875 C   0  0  1  0  0  0  0  0  0  0  0  0
   15.3794   -2.2443   -1.7949 C   0  0  0  0  0  0  0  0  0  0  0  0
   15.9522   -2.6550   -3.0208 C   0  0  0  0  0  0  0  0  0  0  0  0
   16.4340   -1.6937   -3.9273 C   0  0  0  0  0  0  0  0  0  0  0  0
   16.3364   -0.3224   -3.6308 C   0  0  0  0  0  0  0  0  0  0  0  0
   15.7943    0.1250   -2.4073 C   0  0  0  0  0  0  0  0  0  0  0  0
   15.6711    1.5693   -2.0915 C   0  0  0  0  0  0  0  0  0  0  0  0
   15.3832    2.0354   -0.7903 C   0  0  0  0  0  0  0  0  0  0  0  0
   15.3534    3.4188   -0.5357 C   0  0  0  0  0  0  0  0  0  0  0  0
   15.5968    4.3049   -1.5946 C   0  0  0  0  0  0  0  0  0  0  0  0
   15.8275    3.8920   -2.8511 N   0  0  0  0  0  0  0  0  0  0  0  0
   15.8598    2.5642   -3.0762 C   0  0  0  0  0  0  0  0  0  0  0  0
   15.3327   -0.8573   -1.5012 C   0  0  0  0  0  0  0  0  0  0  0  0
   13.2767   -3.0094   -0.6368 C   0  0  0  0  0  0  0  0  0  0  0  0
   12.3981   -3.0674   -1.5055 O   0  0  0  0  0  0  0  0  0  0  0  0
    0.0000    0.0000    0.0000 H   0  0  0  0  0  0  0  0  0  0  0  0
    0.0000    0.0000    0.0000 H   0  0  0  0  0  0  0  0  0  0  0  0
    0.0000    0.0000    0.0000 H   0  0  0  0  0  0  0  0  0  0  0  0
    0.0000    0.0000    0.0000 H   0  0  0  0  0  0  0  0  0  0  0  0
    0.0000    0.0000    0.0000 H   0  0  0  0  0  0  0  0  0  0  0  0
    0.0000    0.0000    0.0000 H   0  0  0  0  0  0  0  0  0  0  0  0
    0.0000    0.0000    0.0000 H   0  0  0  0  0  0  0  0  0  0  0  0
    0.0000    0.0000    0.0000 H   0  0  0  0  0  0  0  0  0  0  0  0
    0.0000    0.0000    0.0000 H   0  0  0  0  0  0  0  0  0  0  0  0
    0.0000    0.0000    0.0000 H   0  0  0  0  0  0  0  0  0  0  0  0
    0.0000    0.0000    0.0000 H   0  0  0  0  0  0  0  0  0  0  0  0
    0.0000    0.0000    0.0000 H   0  0  0  0  0  0  0  0  0  0  0  0
    0.0000    0.0000    0.0000 H   0  0  0  0  0  0  0  0  0  0  0  0
    0.0000    0.0000    0.0000 H   0  0  0  0  0  0  0  0  0  0  0  0
    6.9939   -1.5371   -0.3722 C   0  0  0  0  0  0  0  0  0  0  0  0
    6.6562   -0.3955    0.0275 O   0  0  0  0  0  0  0  0  0  0  0  0
    5.9650   -2.4991   -0.7423 C   0  0  0  0  0  0  0  0  0  0  0  0
    4.6186   -2.1814   -0.6629 C   0  0  0  0  0  0  0  0  0  0  0  0
    3.6234   -3.0724   -1.0068 C   0  0  0  0  0  0  0  0  0  0  0  0
    3.9397   -4.3346   -1.4501 C   0  0  0  0  0  0  0  0  0  0  0  0
    2.9577   -5.2116   -1.7886 F   0  0  0  0  0  0  0  0  0  0  0  0
    5.2763   -4.6578   -1.5318 C   0  0  0  0  0  0  0  0  0  0  0  0
    6.2736   -3.7703   -1.1891 C   0  0  0  0  0  0  0  0  0  0  0  0
    4.3628   -1.1777   -0.3105 H   0  0  0  0  0  0  0  0  0  0  0  0
    2.5728   -2.8229   -0.9443 H   0  0  0  0  0  0  0  0  0  0  0  0
    5.5231   -5.6514   -1.8807 H   0  0  0  0  0  0  0  0  0  0  0  0
    7.3020   -4.0758   -1.2721 H   0  0  0  0  0  0  0  0  0  0  0  0
  1  2  1  0
  2  3  1  0
  2 19  1  0
  3  4  1  0
  3  5  2  0
  5  6  1  0
  6  7  1  0
  6 19  1  0
  7  8  2  0
  7 18  1  0
  8  9  1  0
  9 10  2  0
 10 11  1  0
 11 12  1  0
 11 18  2  0
 12 13  2  0
 12 17  1  0
 13 14  1  0
 14 15  2  0
 15 16  1  0
 16 17  2  0
 19 20  2  0
  1 21  1  0
  1 22  1  0
  1 23  1  0
  4 24  1  0
  4 25  1  0
  5 26  1  0
  8 27  1  0
  9 28  1  0
 10 29  1  0
 13 30  1  0
 14 31  1  0
 15 32  1  0
 17 33  1  0
 18 34  1  0
 35 36  2  0
 35 37  1  0
 37 38  2  0
 38 39  1  0
 39 40  2  0
 40 41  1  0
 40 42  1  0
 42 43  2  0
 43 37  1  0
 38 44  1  0
 39 45  1  0
 42 46  1  0
 43 47  1  0
  6 35  1  6
M  CHG  1   5   1
M  END
>  <attachment_point>  (217) 
26

>  <score>  (217) 
<NA>

$$$$
CAT-4j
     RDKit          3D

 51 53  0  0  1  0  0  0  0  0999 V2000
   11.7106   -2.3098    1.2658 C   0  0  0  0  0  0  0  0  0  0  0  0
   13.0313   -2.6523    0.7225 N   0  0  0  0  0  0  0  0  0  0  0  0
   14.2010   -2.6281    1.3773 C   0  0  0  0  0  0  0  0  0  0  0  0
   14.3777   -2.3568    2.6732 N   0  0  0  0  0  0  0  0  0  0  0  0
   15.2217   -2.9197    0.5738 N   0  0  0  0  0  0  0  0  0  0  0  0
   14.7965   -3.2519   -0.7875 C   0  0  1  0  0  0  0  0  0  0  0  0
   15.3794   -2.2443   -1.7949 C   0  0  0  0  0  0  0  0  0  0  0  0
   15.9522   -2.6550   -3.0208 C   0  0  0  0  0  0  0  0  0  0  0  0
   16.4340   -1.6937   -3.9273 C   0  0  0  0  0  0  0  0  0  0  0  0
   16.3364   -0.3224   -3.6308 C   0  0  0  0  0  0  0  0  0  0  0  0
   15.7943    0.1250   -2.4073 C   0  0  0  0  0  0  0  0  0  0  0  0
   15.6711    1.5693   -2.0915 C   0  0  0  0  0  0  0  0  0  0  0  0
   15.3832    2.0354   -0.7903 C   0  0  0  0  0  0  0  0  0  0  0  0
   15.3534    3.4188   -0.5357 C   0  0  0  0  0  0  0  0  0  0  0  0
   15.5968    4.3049   -1.5946 C   0  0  0  0  0  0  0  0  0  0  0  0
   15.8275    3.8920   -2.8511 N   0  0  0  0  0  0  0  0  0  0  0  0
   15.8598    2.5642   -3.0762 C   0  0  0  0  0  0  0  0  0  0  0  0
   15.3327   -0.8573   -1.5012 C   0  0  0  0  0  0  0  0  0  0  0  0
   13.2767   -3.0094   -0.6368 C   0  0  0  0  0  0  0  0  0  0  0  0
   12.3981   -3.0674   -1.5055 O   0  0  0  0  0  0  0  0  0  0  0  0
    0.0000    0.0000    0.0000 H   0  0  0  0  0  0  0  0  0  0  0  0
    0.0000    0.0000    0.0000 H   0  0  0  0  0  0  0  0  0  0  0  0
    0.0000    0.0000    0.0000 H   0  0  0  0  0  0  0  0  0  0  0  0
    0.0000    0.0000    0.0000 H   0  0  0  0  0  0  0  0  0  0  0  0
    0.0000    0.0000    0.0000 H   0  0  0  0  0  0  0  0  0  0  0  0
    0.0000    0.0000    0.0000 H   0  0  0  0  0  0  0  0  0  0  0  0
    0.0000    0.0000    0.0000 H   0  0  0  0  0  0  0  0  0  0  0  0
    0.0000    0.0000    0.0000 H   0  0  0  0  0  0  0  0  0  0  0  0
    0.0000    0.0000    0.0000 H   0  0  0  0  0  0  0  0  0  0  0  0
    0.0000    0.0000    0.0000 H   0  0  0  0  0  0  0  0  0  0  0  0
    0.0000    0.0000    0.0000 H   0  0  0  0  0  0  0  0  0  0  0  0
    0.0000    0.0000    0.0000 H   0  0  0  0  0  0  0  0  0  0  0  0
    0.0000    0.0000    0.0000 H   0  0  0  0  0  0  0  0  0  0  0  0
    0.0000    0.0000    0.0000 H   0  0  0  0  0  0  0  0  0  0  0  0
    6.9758   -1.5331   -0.3713 C   0  0  0  0  0  0  0  0  0  0  0  0
    6.4470   -0.9300    0.5911 O   0  0  0  0  0  0  0  0  0  0  0  0
    6.0616   -1.8916   -1.3956 N   0  0  0  0  0  0  0  0  0  0  0  0
    4.7037   -1.5868   -1.3109 C   0  0  0  0  0  0  0  0  0  0  0  0
    4.0226   -2.1108   -2.5672 C   0  0  0  0  0  0  0  0  0  0  0  0
    4.1188   -2.4532   -0.1762 C   0  0  0  0  0  0  0  0  0  0  0  0
    4.2587   -0.2005   -1.1120 C   0  0  0  0  0  0  0  0  0  0  0  0
    6.4192   -2.4037   -2.2463 H   0  0  0  0  0  0  0  0  0  0  0  0
    2.9443   -1.8608   -2.5852 H   0  0  0  0  0  0  0  0  0  0  0  0
    4.2147   -3.1912   -2.6815 H   0  0  0  0  0  0  0  0  0  0  0  0
    4.5507   -1.6144   -3.4220 H   0  0  0  0  0  0  0  0  0  0  0  0
    3.0925   -2.7917   -0.4394 H   0  0  0  0  0  0  0  0  0  0  0  0
    4.7931   -3.2758    0.0832 H   0  0  0  0  0  0  0  0  0  0  0  0
    4.0032   -1.8229    0.7403 H   0  0  0  0  0  0  0  0  0  0  0  0
    4.1381    0.3427   -2.0947 H   0  0  0  0  0  0  0  0  0  0  0  0
    3.2284   -0.2088   -0.6837 H   0  0  0  0  0  0  0  0  0  0  0  0
    4.8496    0.4498   -0.4812 H   0  0  0  0  0  0  0  0  0  0  0  0
  1  2  1  0
  2  3  1  0
  2 19  1  0
  3  4  1  0
  3  5  2  0
  5  6  1  0
  6  7  1  0
  6 19  1  0
  7  8  2  0
  7 18  1  0
  8  9  1  0
  9 10  2  0
 10 11  1  0
 11 12  1  0
 11 18  2  0
 12 13  2  0
 12 17  1  0
 13 14  1  0
 14 15  2  0
 15 16  1  0
 16 17  2  0
 19 20  2  0
  1 21  1  0
  1 22  1  0
  1 23  1  0
  4 24  1  0
  4 25  1  0
  5 26  1  0
  8 27  1  0
  9 28  1  0
 10 29  1  0
 13 30  1  0
 14 31  1  0
 15 32  1  0
 17 33  1  0
 18 34  1  0
 35 36  2  0
 35 37  1  0
 37 38  1  0
 38 39  1  0
 38 40  1  0
 38 41  1  0
 37 42  1  0
 39 43  1  0
 39 44  1  0
 39 45  1  0
 40 46  1  0
 40 47  1  0
 40 48  1  0
 41 49  1  0
 41 50  1  0
 41 51  1  0
  6 35  1  6
M  CHG  1   5   1
M  END
>  <attachment_point>  (218) 
26

>  <score>  (218) 
<NA>

$$$$
CAT-4j
     RDKit          3D

 48 50  0  0  1  0  0  0  0  0999 V2000
   11.7106   -2.3098    1.2658 C   0  0  0  0  0  0  0  0  0  0  0  0
   13.0313   -2.6523    0.7225 N   0  0  0  0  0  0  0  0  0  0  0  0
   14.2010   -2.6281    1.3773 C   0  0  0  0  0  0  0  0  0  0  0  0
   14.3777   -2.3568    2.6732 N   0  0  0  0  0  0  0  0  0  0  0  0
   15.2217   -2.9197    0.5738 N   0  0  0  0  0  0  0  0  0  0  0  0
   14.7965   -3.2519   -0.7875 C   0  0  1  0  0  0  0  0  0  0  0  0
   15.3794   -2.2443   -1.7949 C   0  0  0  0  0  0  0  0  0  0  0  0
   15.9522   -2.6550   -3.0208 C   0  0  0  0  0  0  0  0  0  0  0  0
   16.4340   -1.6937   -3.9273 C   0  0  0  0  0  0  0  0  0  0  0  0
   16.3364   -0.3224   -3.6308 C   0  0  0  0  0  0  0  0  0  0  0  0
   15.7943    0.1250   -2.4073 C   0  0  0  0  0  0  0  0  0  0  0  0
   15.6711    1.5693   -2.0915 C   0  0  0  0  0  0  0  0  0  0  0  0
   15.3832    2.0354   -0.7903 C   0  0  0  0  0  0  0  0  0  0  0  0
   15.3534    3.4188   -0.5357 C   0  0  0  0  0  0  0  0  0  0  0  0
   15.5968    4.3049   -1.5946 C   0  0  0  0  0  0  0  0  0  0  0  0
   15.8275    3.8920   -2.8511 N   0  0  0  0  0  0  0  0  0  0  0  0
   15.8598    2.5642   -3.0762 C   0  0  0  0  0  0  0  0  0  0  0  0
   15.3327   -0.8573   -1.5012 C   0  0  0  0  0  0  0  0  0  0  0  0
   13.2767   -3.0094   -0.6368 C   0  0  0  0  0  0  0  0  0  0  0  0
   12.3981   -3.0674   -1.5055 O   0  0  0  0  0  0  0  0  0  0  0  0
    0.0000    0.0000    0.0000 H   0  0  0  0  0  0  0  0  0  0  0  0
    0.0000    0.0000    0.0000 H   0  0  0  0  0  0  0  0  0  0  0  0
    0.0000    0.0000    0.0000 H   0  0  0  0  0  0  0  0  0  0  0  0
    0.0000    0.0000    0.0000 H   0  0  0  0  0  0  0  0  0  0  0  0
    0.0000    0.0000    0.0000 H   0  0  0  0  0  0  0  0  0  0  0  0
    0.0000    0.0000    0.0000 H   0  0  0  0  0  0  0  0  0  0  0  0
    0.0000    0.0000    0.0000 H   0  0  0  0  0  0  0  0  0  0  0  0
    0.0000    0.0000    0.0000 H   0  0  0  0  0  0  0  0  0  0  0  0
    0.0000    0.0000    0.0000 H   0  0  0  0  0  0  0  0  0  0  0  0
    0.0000    0.0000    0.0000 H   0  0  0  0  0  0  0  0  0  0  0  0
    0.0000    0.0000    0.0000 H   0  0  0  0  0  0  0  0  0  0  0  0
    0.0000    0.0000    0.0000 H   0  0  0  0  0  0  0  0  0  0  0  0
    0.0000    0.0000    0.0000 H   0  0  0  0  0  0  0  0  0  0  0  0
    0.0000    0.0000    0.0000 H   0  0  0  0  0  0  0  0  0  0  0  0
    6.9748   -1.5329   -0.3712 C   0  0  0  0  0  0  0  0  0  0  0  0
    6.5005   -1.2682    0.7774 O   0  0  0  0  0  0  0  0  0  0  0  0
    6.1250   -1.5143   -1.5033 N   0  0  0  0  0  0  0  0  0  0  0  0
    4.7146   -1.2053   -1.4340 C   0  0  0  0  0  0  0  0  0  0  0  0
    3.9639   -2.1698   -0.5486 C   0  0  0  0  0  0  0  0  0  0  0  0
    4.0723   -3.5912   -1.0383 C   0  0  0  0  0  0  0  0  0  0  0  0
    6.5545   -1.7365   -2.4219 H   0  0  0  0  0  0  0  0  0  0  0  0
    4.2458   -1.1341   -2.4258 H   0  0  0  0  0  0  0  0  0  0  0  0
    4.6071   -0.1954   -0.9449 H   0  0  0  0  0  0  0  0  0  0  0  0
    2.8991   -1.8995   -0.5555 H   0  0  0  0  0  0  0  0  0  0  0  0
    4.3305   -2.0817    0.4824 H   0  0  0  0  0  0  0  0  0  0  0  0
    3.4721   -3.7620   -1.9465 H   0  0  0  0  0  0  0  0  0  0  0  0
    5.1507   -3.8076   -1.1709 H   0  0  0  0  0  0  0  0  0  0  0  0
    3.6409   -4.2357   -0.2293 H   0  0  0  0  0  0  0  0  0  0  0  0
  1  2  1  0
  2  3  1  0
  2 19  1  0
  3  4  1  0
  3  5  2  0
  5  6  1  0
  6  7  1  0
  6 19  1  0
  7  8  2  0
  7 18  1  0
  8  9  1  0
  9 10  2  0
 10 11  1  0
 11 12  1  0
 11 18  2  0
 12 13  2  0
 12 17  1  0
 13 14  1  0
 14 15  2  0
 15 16  1  0
 16 17  2  0
 19 20  2  0
  1 21  1  0
  1 22  1  0
  1 23  1  0
  4 24  1  0
  4 25  1  0
  5 26  1  0
  8 27  1  0
  9 28  1  0
 10 29  1  0
 13 30  1  0
 14 31  1  0
 15 32  1  0
 17 33  1  0
 18 34  1  0
 35 36  2  0
 35 37  1  0
 37 38  1  0
 38 39  1  0
 39 40  1  0
 37 41  1  0
 38 42  1  0
 38 43  1  0
 39 44  1  0
 39 45  1  0
 40 46  1  0
 40 47  1  0
 40 48  1  0
  6 35  1  6
M  CHG  1   5   1
M  END
>  <attachment_point>  (219) 
26

>  <score>  (219) 
<NA>

$$$$
CAT-4j
     RDKit          3D

 40 43  0  0  1  0  0  0  0  0999 V2000
   11.7106   -2.3098    1.2658 C   0  0  0  0  0  0  0  0  0  0  0  0
   13.0313   -2.6523    0.7225 N   0  0  0  0  0  0  0  0  0  0  0  0
   14.2010   -2.6281    1.3773 C   0  0  0  0  0  0  0  0  0  0  0  0
   14.3777   -2.3568    2.6732 N   0  0  0  0  0  0  0  0  0  0  0  0
   15.2217   -2.9197    0.5738 N   0  0  0  0  0  0  0  0  0  0  0  0
   14.7965   -3.2519   -0.7875 C   0  0  1  0  0  0  0  0  0  0  0  0
   15.3794   -2.2443   -1.7949 C   0  0  0  0  0  0  0  0  0  0  0  0
   15.9522   -2.6550   -3.0208 C   0  0  0  0  0  0  0  0  0  0  0  0
   16.4340   -1.6937   -3.9273 C   0  0  0  0  0  0  0  0  0  0  0  0
   16.3364   -0.3224   -3.6308 C   0  0  0  0  0  0  0  0  0  0  0  0
   15.7943    0.1250   -2.4073 C   0  0  0  0  0  0  0  0  0  0  0  0
   15.6711    1.5693   -2.0915 C   0  0  0  0  0  0  0  0  0  0  0  0
   15.3832    2.0354   -0.7903 C   0  0  0  0  0  0  0  0  0  0  0  0
   15.3534    3.4188   -0.5357 C   0  0  0  0  0  0  0  0  0  0  0  0
   15.5968    4.3049   -1.5946 C   0  0  0  0  0  0  0  0  0  0  0  0
   15.8275    3.8920   -2.8511 N   0  0  0  0  0  0  0  0  0  0  0  0
   15.8598    2.5642   -3.0762 C   0  0  0  0  0  0  0  0  0  0  0  0
   15.3327   -0.8573   -1.5012 C   0  0  0  0  0  0  0  0  0  0  0  0
   13.2767   -3.0094   -0.6368 C   0  0  0  0  0  0  0  0  0  0  0  0
   12.3981   -3.0674   -1.5055 O   0  0  0  0  0  0  0  0  0  0  0  0
    0.0000    0.0000    0.0000 H   0  0  0  0  0  0  0  0  0  0  0  0
    0.0000    0.0000    0.0000 H   0  0  0  0  0  0  0  0  0  0  0  0
    0.0000    0.0000    0.0000 H   0  0  0  0  0  0  0  0  0  0  0  0
    0.0000    0.0000    0.0000 H   0  0  0  0  0  0  0  0  0  0  0  0
    0.0000    0.0000    0.0000 H   0  0  0  0  0  0  0  0  0  0  0  0
    0.0000    0.0000    0.0000 H   0  0  0  0  0  0  0  0  0  0  0  0
    0.0000    0.0000    0.0000 H   0  0  0  0  0  0  0  0  0  0  0  0
    0.0000    0.0000    0.0000 H   0  0  0  0  0  0  0  0  0  0  0  0
    0.0000    0.0000    0.0000 H   0  0  0  0  0  0  0  0  0  0  0  0
    0.0000    0.0000    0.0000 H   0  0  0  0  0  0  0  0  0  0  0  0
    0.0000    0.0000    0.0000 H   0  0  0  0  0  0  0  0  0  0  0  0
    0.0000    0.0000    0.0000 H   0  0  0  0  0  0  0  0  0  0  0  0
    0.0000    0.0000    0.0000 H   0  0  0  0  0  0  0  0  0  0  0  0
    0.0000    0.0000    0.0000 H   0  0  0  0  0  0  0  0  0  0  0  0
    6.9606   -1.5298   -0.3705 C   0  0  0  0  0  0  0  0  0  0  0  0
    6.4035   -0.3141   -0.2297 N   0  0  0  0  0  0  0  0  0  0  0  0
    5.0914   -0.4534   -0.2033 N   0  0  0  0  0  0  0  0  0  0  0  0
    4.8352   -1.7379   -0.3258 N   0  0  0  0  0  0  0  0  0  0  0  0
    5.9554   -2.4066   -0.4284 N   0  0  0  0  0  0  0  0  0  0  0  0
    6.0758   -3.4249   -0.5355 H   0  0  0  0  0  0  0  0  0  0  0  0
  1  2  1  0
  2  3  1  0
  2 19  1  0
  3  4  1  0
  3  5  2  0
  5  6  1  0
  6  7  1  1
  6 19  1  0
  7  8  2  0
  7 18  1  0
  8  9  1  0
  9 10  2  0
 10 11  1  0
 11 12  1  0
 11 18  2  0
 12 13  2  0
 12 17  1  0
 13 14  1  0
 14 15  2  0
 15 16  1  0
 16 17  2  0
 19 20  2  0
  1 21  1  0
  1 22  1  0
  1 23  1  0
  4 24  1  0
  4 25  1  0
  5 26  1  0
  8 27  1  0
  9 28  1  0
 10 29  1  0
 13 30  1  0
 14 31  1  0
 15 32  1  0
 17 33  1  0
 18 34  1  0
 35 36  2  0
 36 37  1  0
 37 38  2  0
 38 39  1  0
 39 35  1  0
 39 40  1  0
  6 35  1  0
M  CHG  1   5   1
M  END
>  <attachment_point>  (220) 
26

>  <score>  (220) 
<NA>

$$$$
CAT-4j
     RDKit          3D

 45 47  0  0  1  0  0  0  0  0999 V2000
   11.7106   -2.3098    1.2658 C   0  0  0  0  0  0  0  0  0  0  0  0
   13.0313   -2.6523    0.7225 N   0  0  0  0  0  0  0  0  0  0  0  0
   14.2010   -2.6281    1.3773 C   0  0  0  0  0  0  0  0  0  0  0  0
   14.3777   -2.3568    2.6732 N   0  0  0  0  0  0  0  0  0  0  0  0
   15.2217   -2.9197    0.5738 N   0  0  0  0  0  0  0  0  0  0  0  0
   14.7965   -3.2519   -0.7875 C   0  0  1  0  0  0  0  0  0  0  0  0
   15.3794   -2.2443   -1.7949 C   0  0  0  0  0  0  0  0  0  0  0  0
   15.9522   -2.6550   -3.0208 C   0  0  0  0  0  0  0  0  0  0  0  0
   16.4340   -1.6937   -3.9273 C   0  0  0  0  0  0  0  0  0  0  0  0
   16.3364   -0.3224   -3.6308 C   0  0  0  0  0  0  0  0  0  0  0  0
   15.7943    0.1250   -2.4073 C   0  0  0  0  0  0  0  0  0  0  0  0
   15.6711    1.5693   -2.0915 C   0  0  0  0  0  0  0  0  0  0  0  0
   15.3832    2.0354   -0.7903 C   0  0  0  0  0  0  0  0  0  0  0  0
   15.3534    3.4188   -0.5357 C   0  0  0  0  0  0  0  0  0  0  0  0
   15.5968    4.3049   -1.5946 C   0  0  0  0  0  0  0  0  0  0  0  0
   15.8275    3.8920   -2.8511 N   0  0  0  0  0  0  0  0  0  0  0  0
   15.8598    2.5642   -3.0762 C   0  0  0  0  0  0  0  0  0  0  0  0
   15.3327   -0.8573   -1.5012 C   0  0  0  0  0  0  0  0  0  0  0  0
   13.2767   -3.0094   -0.6368 C   0  0  0  0  0  0  0  0  0  0  0  0
   12.3981   -3.0674   -1.5055 O   0  0  0  0  0  0  0  0  0  0  0  0
    0.0000    0.0000    0.0000 H   0  0  0  0  0  0  0  0  0  0  0  0
    0.0000    0.0000    0.0000 H   0  0  0  0  0  0  0  0  0  0  0  0
    0.0000    0.0000    0.0000 H   0  0  0  0  0  0  0  0  0  0  0  0
    0.0000    0.0000    0.0000 H   0  0  0  0  0  0  0  0  0  0  0  0
    0.0000    0.0000    0.0000 H   0  0  0  0  0  0  0  0  0  0  0  0
    0.0000    0.0000    0.0000 H   0  0  0  0  0  0  0  0  0  0  0  0
    0.0000    0.0000    0.0000 H   0  0  0  0  0  0  0  0  0  0  0  0
    0.0000    0.0000    0.0000 H   0  0  0  0  0  0  0  0  0  0  0  0
    0.0000    0.0000    0.0000 H   0  0  0  0  0  0  0  0  0  0  0  0
    0.0000    0.0000    0.0000 H   0  0  0  0  0  0  0  0  0  0  0  0
    0.0000    0.0000    0.0000 H   0  0  0  0  0  0  0  0  0  0  0  0
    0.0000    0.0000    0.0000 H   0  0  0  0  0  0  0  0  0  0  0  0
    0.0000    0.0000    0.0000 H   0  0  0  0  0  0  0  0  0  0  0  0
    0.0000    0.0000    0.0000 H   0  0  0  0  0  0  0  0  0  0  0  0
    6.8210   -1.4991   -0.3630 C   0  0  0  0  0  0  0  0  0  0  0  0
    6.6017   -2.1087   -1.6863 C   0  0  0  0  0  0  0  0  0  0  0  0
    6.9870   -3.5891   -1.7484 C   0  0  0  0  0  0  0  0  0  0  0  0
    6.7561   -4.1037   -3.0225 O   0  0  0  0  0  0  0  0  0  0  0  0
    7.0844   -0.4673   -0.3042 H   0  0  0  0  0  0  0  0  0  0  0  0
    6.7687   -2.1087    0.5083 H   0  0  0  0  0  0  0  0  0  0  0  0
    7.0949   -1.5296   -2.4607 H   0  0  0  0  0  0  0  0  0  0  0  0
    5.5146   -2.0914   -1.8890 H   0  0  0  0  0  0  0  0  0  0  0  0
    8.0824   -3.6248   -1.5240 H   0  0  0  0  0  0  0  0  0  0  0  0
    6.4688   -4.1689   -0.9816 H   0  0  0  0  0  0  0  0  0  0  0  0
    5.8516   -3.8923   -3.3198 H   0  0  0  0  0  0  0  0  0  0  0  0
  1  2  1  0
  2  3  1  0
  2 19  1  0
  3  4  1  0
  3  5  2  0
  5  6  1  0
  6  7  1  0
  6 19  1  0
  7  8  2  0
  7 18  1  0
  8  9  1  0
  9 10  2  0
 10 11  1  0
 11 12  1  0
 11 18  2  0
 12 13  2  0
 12 17  1  0
 13 14  1  0
 14 15  2  0
 15 16  1  0
 16 17  2  0
 19 20  2  0
  1 21  1  0
  1 22  1  0
  1 23  1  0
  4 24  1  0
  4 25  1  0
  5 26  1  0
  8 27  1  0
  9 28  1  0
 10 29  1  0
 13 30  1  0
 14 31  1  0
 15 32  1  0
 17 33  1  0
 18 34  1  0
 35 36  1  0
 36 37  1  0
 37 38  1  0
 35 39  1  0
 35 40  1  0
 36 41  1  0
 36 42  1  0
 37 43  1  0
 37 44  1  0
 38 45  1  0
  6 35  1  6
M  CHG  1   5   1
M  END
>  <attachment_point>  (221) 
26

>  <score>  (221) 
<NA>

$$$$
CAT-4j
     RDKit          3D

 47 50  0  0  1  0  0  0  0  0999 V2000
   11.7106   -2.3098    1.2658 C   0  0  0  0  0  0  0  0  0  0  0  0
   13.0313   -2.6523    0.7225 N   0  0  0  0  0  0  0  0  0  0  0  0
   14.2010   -2.6281    1.3773 C   0  0  0  0  0  0  0  0  0  0  0  0
   14.3777   -2.3568    2.6732 N   0  0  0  0  0  0  0  0  0  0  0  0
   15.2217   -2.9197    0.5738 N   0  0  0  0  0  0  0  0  0  0  0  0
   14.7965   -3.2519   -0.7875 C   0  0  1  0  0  0  0  0  0  0  0  0
   15.3794   -2.2443   -1.7949 C   0  0  0  0  0  0  0  0  0  0  0  0
   15.9522   -2.6550   -3.0208 C   0  0  0  0  0  0  0  0  0  0  0  0
   16.4340   -1.6937   -3.9273 C   0  0  0  0  0  0  0  0  0  0  0  0
   16.3364   -0.3224   -3.6308 C   0  0  0  0  0  0  0  0  0  0  0  0
   15.7943    0.1250   -2.4073 C   0  0  0  0  0  0  0  0  0  0  0  0
   15.6711    1.5693   -2.0915 C   0  0  0  0  0  0  0  0  0  0  0  0
   15.3832    2.0354   -0.7903 C   0  0  0  0  0  0  0  0  0  0  0  0
   15.3534    3.4188   -0.5357 C   0  0  0  0  0  0  0  0  0  0  0  0
   15.5968    4.3049   -1.5946 C   0  0  0  0  0  0  0  0  0  0  0  0
   15.8275    3.8920   -2.8511 N   0  0  0  0  0  0  0  0  0  0  0  0
   15.8598    2.5642   -3.0762 C   0  0  0  0  0  0  0  0  0  0  0  0
   15.3327   -0.8573   -1.5012 C   0  0  0  0  0  0  0  0  0  0  0  0
   13.2767   -3.0094   -0.6368 C   0  0  0  0  0  0  0  0  0  0  0  0
   12.3981   -3.0674   -1.5055 O   0  0  0  0  0  0  0  0  0  0  0  0
    0.0000    0.0000    0.0000 H   0  0  0  0  0  0  0  0  0  0  0  0
    0.0000    0.0000    0.0000 H   0  0  0  0  0  0  0  0  0  0  0  0
    0.0000    0.0000    0.0000 H   0  0  0  0  0  0  0  0  0  0  0  0
    0.0000    0.0000    0.0000 H   0  0  0  0  0  0  0  0  0  0  0  0
    0.0000    0.0000    0.0000 H   0  0  0  0  0  0  0  0  0  0  0  0
    0.0000    0.0000    0.0000 H   0  0  0  0  0  0  0  0  0  0  0  0
    0.0000    0.0000    0.0000 H   0  0  0  0  0  0  0  0  0  0  0  0
    0.0000    0.0000    0.0000 H   0  0  0  0  0  0  0  0  0  0  0  0
    0.0000    0.0000    0.0000 H   0  0  0  0  0  0  0  0  0  0  0  0
    0.0000    0.0000    0.0000 H   0  0  0  0  0  0  0  0  0  0  0  0
    0.0000    0.0000    0.0000 H   0  0  0  0  0  0  0  0  0  0  0  0
    0.0000    0.0000    0.0000 H   0  0  0  0  0  0  0  0  0  0  0  0
    0.0000    0.0000    0.0000 H   0  0  0  0  0  0  0  0  0  0  0  0
    0.0000    0.0000    0.0000 H   0  0  0  0  0  0  0  0  0  0  0  0
    6.9470   -1.5268   -0.3697 C   0  0  0  0  0  0  0  0  0  0  0  0
    6.5666   -0.2549   -0.0042 C   0  0  0  0  0  0  0  0  0  0  0  0
    5.2195    0.0967    0.0835 C   0  0  0  0  0  0  0  0  0  0  0  0
    4.3167   -0.8426   -0.1991 N   0  0  0  0  0  0  0  0  0  0  0  0
    4.6452   -2.0984   -0.5606 C   0  0  0  0  0  0  0  0  0  0  0  0
    3.6260   -3.1353   -0.8730 C   0  0  0  0  0  0  0  0  0  0  0  0
    5.9983   -2.4568   -0.6502 C   0  0  0  0  0  0  0  0  0  0  0  0
    7.3502    0.4575    0.2113 H   0  0  0  0  0  0  0  0  0  0  0  0
    4.9896    1.1109    0.3759 H   0  0  0  0  0  0  0  0  0  0  0  0
    2.6458   -2.8132   -0.4597 H   0  0  0  0  0  0  0  0  0  0  0  0
    3.5825   -3.2986   -1.9819 H   0  0  0  0  0  0  0  0  0  0  0  0
    3.8889   -4.1085   -0.4074 H   0  0  0  0  0  0  0  0  0  0  0  0
    6.2510   -3.4477   -0.9356 H   0  0  0  0  0  0  0  0  0  0  0  0
  1  2  1  0
  2  3  1  0
  2 19  1  0
  3  4  1  0
  3  5  2  0
  5  6  1  0
  6  7  1  1
  6 19  1  0
  7  8  2  0
  7 18  1  0
  8  9  1  0
  9 10  2  0
 10 11  1  0
 11 12  1  0
 11 18  2  0
 12 13  2  0
 12 17  1  0
 13 14  1  0
 14 15  2  0
 15 16  1  0
 16 17  2  0
 19 20  2  0
  1 21  1  0
  1 22  1  0
  1 23  1  0
  4 24  1  0
  4 25  1  0
  5 26  1  0
  8 27  1  0
  9 28  1  0
 10 29  1  0
 13 30  1  0
 14 31  1  0
 15 32  1  0
 17 33  1  0
 18 34  1  0
 35 36  2  0
 36 37  1  0
 37 38  2  0
 38 39  1  0
 39 40  1  0
 39 41  2  0
 41 35  1  0
 36 42  1  0
 37 43  1  0
 40 44  1  0
 40 45  1  0
 40 46  1  0
 41 47  1  0
  6 35  1  0
M  CHG  1   5   1
M  END
>  <attachment_point>  (222) 
26

>  <score>  (222) 
<NA>

$$$$
CAT-4j
     RDKit          3D

 48 51  0  0  1  0  0  0  0  0999 V2000
   11.7106   -2.3098    1.2658 C   0  0  0  0  0  0  0  0  0  0  0  0
   13.0313   -2.6523    0.7225 N   0  0  0  0  0  0  0  0  0  0  0  0
   14.2010   -2.6281    1.3773 C   0  0  0  0  0  0  0  0  0  0  0  0
   14.3777   -2.3568    2.6732 N   0  0  0  0  0  0  0  0  0  0  0  0
   15.2217   -2.9197    0.5738 N   0  0  0  0  0  0  0  0  0  0  0  0
   14.7965   -3.2519   -0.7875 C   0  0  1  0  0  0  0  0  0  0  0  0
   15.3794   -2.2443   -1.7949 C   0  0  0  0  0  0  0  0  0  0  0  0
   15.9522   -2.6550   -3.0208 C   0  0  0  0  0  0  0  0  0  0  0  0
   16.4340   -1.6937   -3.9273 C   0  0  0  0  0  0  0  0  0  0  0  0
   16.3364   -0.3224   -3.6308 C   0  0  0  0  0  0  0  0  0  0  0  0
   15.7943    0.1250   -2.4073 C   0  0  0  0  0  0  0  0  0  0  0  0
   15.6711    1.5693   -2.0915 C   0  0  0  0  0  0  0  0  0  0  0  0
   15.3832    2.0354   -0.7903 C   0  0  0  0  0  0  0  0  0  0  0  0
   15.3534    3.4188   -0.5357 C   0  0  0  0  0  0  0  0  0  0  0  0
   15.5968    4.3049   -1.5946 C   0  0  0  0  0  0  0  0  0  0  0  0
   15.8275    3.8920   -2.8511 N   0  0  0  0  0  0  0  0  0  0  0  0
   15.8598    2.5642   -3.0762 C   0  0  0  0  0  0  0  0  0  0  0  0
   15.3327   -0.8573   -1.5012 C   0  0  0  0  0  0  0  0  0  0  0  0
   13.2767   -3.0094   -0.6368 C   0  0  0  0  0  0  0  0  0  0  0  0
   12.3981   -3.0674   -1.5055 O   0  0  0  0  0  0  0  0  0  0  0  0
    0.0000    0.0000    0.0000 H   0  0  0  0  0  0  0  0  0  0  0  0
    0.0000    0.0000    0.0000 H   0  0  0  0  0  0  0  0  0  0  0  0
    0.0000    0.0000    0.0000 H   0  0  0  0  0  0  0  0  0  0  0  0
    0.0000    0.0000    0.0000 H   0  0  0  0  0  0  0  0  0  0  0  0
    0.0000    0.0000    0.0000 H   0  0  0  0  0  0  0  0  0  0  0  0
    0.0000    0.0000    0.0000 H   0  0  0  0  0  0  0  0  0  0  0  0
    0.0000    0.0000    0.0000 H   0  0  0  0  0  0  0  0  0  0  0  0
    0.0000    0.0000    0.0000 H   0  0  0  0  0  0  0  0  0  0  0  0
    0.0000    0.0000    0.0000 H   0  0  0  0  0  0  0  0  0  0  0  0
    0.0000    0.0000    0.0000 H   0  0  0  0  0  0  0  0  0  0  0  0
    0.0000    0.0000    0.0000 H   0  0  0  0  0  0  0  0  0  0  0  0
    0.0000    0.0000    0.0000 H   0  0  0  0  0  0  0  0  0  0  0  0
    0.0000    0.0000    0.0000 H   0  0  0  0  0  0  0  0  0  0  0  0
    0.0000    0.0000    0.0000 H   0  0  0  0  0  0  0  0  0  0  0  0
    7.0501   -1.5494   -0.3752 N   0  0  0  0  0  0  0  0  0  0  0  0
    6.6640   -0.2825    0.2437 C   0  0  0  0  0  0  0  0  0  0  0  0
    6.7699    0.7637   -0.8453 C   0  0  0  0  0  0  0  0  0  0  0  0
    6.9737   -0.0841   -2.1041 C   0  0  2  0  0  0  0  0  0  0  0  0
    6.4076    0.4666   -3.2151 O   0  0  0  0  0  0  0  0  0  0  0  0
    6.3553   -1.3848   -1.6654 C   0  0  0  0  0  0  0  0  0  0  0  0
    5.5688   -0.3990    0.4628 H   0  0  0  0  0  0  0  0  0  0  0  0
    7.2608   -0.0443    1.1227 H   0  0  0  0  0  0  0  0  0  0  0  0
    7.6181    1.4306   -0.6525 H   0  0  0  0  0  0  0  0  0  0  0  0
    5.8396    1.3632   -0.9176 H   0  0  0  0  0  0  0  0  0  0  0  0
    8.0478   -0.2666   -2.2911 H   0  0  0  0  0  0  0  0  0  0  0  0
    5.4398    0.5462   -3.1957 H   0  0  0  0  0  0  0  0  0  0  0  0
    6.5207   -2.2192   -2.3379 H   0  0  0  0  0  0  0  0  0  0  0  0
    5.3009   -1.1928   -1.3952 H   0  0  0  0  0  0  0  0  0  0  0  0
  1  2  1  0
  2  3  1  0
  2 19  1  0
  3  4  1  0
  3  5  2  0
  5  6  1  0
  6  7  1  0
  6 19  1  0
  7  8  2  0
  7 18  1  0
  8  9  1  0
  9 10  2  0
 10 11  1  0
 11 12  1  0
 11 18  2  0
 12 13  2  0
 12 17  1  0
 13 14  1  0
 14 15  2  0
 15 16  1  0
 16 17  2  0
 19 20  2  0
  1 21  1  0
  1 22  1  0
  1 23  1  0
  4 24  1  0
  4 25  1  0
  5 26  1  0
  8 27  1  0
  9 28  1  0
 10 29  1  0
 13 30  1  0
 14 31  1  0
 15 32  1  0
 17 33  1  0
 18 34  1  0
 35 36  1  0
 36 37  1  0
 37 38  1  0
 38 39  1  0
 38 40  1  0
 40 35  1  0
 36 41  1  0
 36 42  1  0
 37 43  1  0
 37 44  1  0
 38 45  1  6
 39 46  1  0
 40 47  1  0
 40 48  1  0
  6 35  1  6
M  CHG  1   5   1
M  END
>  <attachment_point>  (223) 
26

>  <score>  (223) 
<NA>

$$$$
CAT-4j
     RDKit          3D

 55 59  0  0  1  0  0  0  0  0999 V2000
   11.7106   -2.3098    1.2658 C   0  0  0  0  0  0  0  0  0  0  0  0
   13.0313   -2.6523    0.7225 N   0  0  0  0  0  0  0  0  0  0  0  0
   14.2010   -2.6281    1.3773 C   0  0  0  0  0  0  0  0  0  0  0  0
   14.3777   -2.3568    2.6732 N   0  0  0  0  0  0  0  0  0  0  0  0
   15.2217   -2.9197    0.5738 N   0  0  0  0  0  0  0  0  0  0  0  0
   14.7965   -3.2519   -0.7875 C   0  0  1  0  0  0  0  0  0  0  0  0
   15.3794   -2.2443   -1.7949 C   0  0  0  0  0  0  0  0  0  0  0  0
   15.9522   -2.6550   -3.0208 C   0  0  0  0  0  0  0  0  0  0  0  0
   16.4340   -1.6937   -3.9273 C   0  0  0  0  0  0  0  0  0  0  0  0
   16.3364   -0.3224   -3.6308 C   0  0  0  0  0  0  0  0  0  0  0  0
   15.7943    0.1250   -2.4073 C   0  0  0  0  0  0  0  0  0  0  0  0
   15.6711    1.5693   -2.0915 C   0  0  0  0  0  0  0  0  0  0  0  0
   15.3832    2.0354   -0.7903 C   0  0  0  0  0  0  0  0  0  0  0  0
   15.3534    3.4188   -0.5357 C   0  0  0  0  0  0  0  0  0  0  0  0
   15.5968    4.3049   -1.5946 C   0  0  0  0  0  0  0  0  0  0  0  0
   15.8275    3.8920   -2.8511 N   0  0  0  0  0  0  0  0  0  0  0  0
   15.8598    2.5642   -3.0762 C   0  0  0  0  0  0  0  0  0  0  0  0
   15.3327   -0.8573   -1.5012 C   0  0  0  0  0  0  0  0  0  0  0  0
   13.2767   -3.0094   -0.6368 C   0  0  0  0  0  0  0  0  0  0  0  0
   12.3981   -3.0674   -1.5055 O   0  0  0  0  0  0  0  0  0  0  0  0
    0.0000    0.0000    0.0000 H   0  0  0  0  0  0  0  0  0  0  0  0
    0.0000    0.0000    0.0000 H   0  0  0  0  0  0  0  0  0  0  0  0
    0.0000    0.0000    0.0000 H   0  0  0  0  0  0  0  0  0  0  0  0
    0.0000    0.0000    0.0000 H   0  0  0  0  0  0  0  0  0  0  0  0
    0.0000    0.0000    0.0000 H   0  0  0  0  0  0  0  0  0  0  0  0
    0.0000    0.0000    0.0000 H   0  0  0  0  0  0  0  0  0  0  0  0
    0.0000    0.0000    0.0000 H   0  0  0  0  0  0  0  0  0  0  0  0
    0.0000    0.0000    0.0000 H   0  0  0  0  0  0  0  0  0  0  0  0
    0.0000    0.0000    0.0000 H   0  0  0  0  0  0  0  0  0  0  0  0
    0.0000    0.0000    0.0000 H   0  0  0  0  0  0  0  0  0  0  0  0
    0.0000    0.0000    0.0000 H   0  0  0  0  0  0  0  0  0  0  0  0
    0.0000    0.0000    0.0000 H   0  0  0  0  0  0  0  0  0  0  0  0
    0.0000    0.0000    0.0000 H   0  0  0  0  0  0  0  0  0  0  0  0
    0.0000    0.0000    0.0000 H   0  0  0  0  0  0  0  0  0  0  0  0
    6.9633   -1.5304   -0.3706 C   0  0  0  0  0  0  0  0  0  0  0  0
    6.4357   -0.4402   -1.0326 C   0  0  0  0  0  0  0  0  0  0  0  0
    5.0917   -0.1361   -0.9674 C   0  0  0  0  0  0  0  0  0  0  0  0
    4.2843   -0.9606   -0.2148 C   0  0  0  0  0  0  0  0  0  0  0  0
    2.8560   -0.6891   -0.1091 C   0  0  0  0  0  0  0  0  0  0  0  0
    1.9008   -1.6711    0.0487 C   0  0  0  0  0  0  0  0  0  0  0  0
    0.5553   -1.3996    0.1471 C   0  0  0  0  0  0  0  0  0  0  0  0
    0.1511   -0.0868    0.0845 C   0  0  0  0  0  0  0  0  0  0  0  0
    1.0701    0.9362   -0.0732 C   0  0  0  0  0  0  0  0  0  0  0  0
    2.4029    0.6117   -0.1665 C   0  0  0  0  0  0  0  0  0  0  0  0
    4.8268   -2.0458    0.4405 C   0  0  0  0  0  0  0  0  0  0  0  0
    6.1596   -2.3612    0.3857 C   0  0  0  0  0  0  0  0  0  0  0  0
    7.1142    0.1874   -1.6189 H   0  0  0  0  0  0  0  0  0  0  0  0
    4.6905    0.7359   -1.5012 H   0  0  0  0  0  0  0  0  0  0  0  0
    2.2170   -2.7099    0.0985 H   0  0  0  0  0  0  0  0  0  0  0  0
   -0.1896   -2.1921    0.2721 H   0  0  0  0  0  0  0  0  0  0  0  0
   -0.9212    0.1377    0.1623 H   0  0  0  0  0  0  0  0  0  0  0  0
    0.7116    1.9748   -0.1195 H   0  0  0  0  0  0  0  0  0  0  0  0
    3.1302    1.4007   -0.2898 H   0  0  0  0  0  0  0  0  0  0  0  0
    4.1847   -2.7014    1.0386 H   0  0  0  0  0  0  0  0  0  0  0  0
    6.6253   -3.1987    0.8816 H   0  0  0  0  0  0  0  0  0  0  0  0
  1  2  1  0
  2  3  1  0
  2 19  1  0
  3  4  1  0
  3  5  2  0
  5  6  1  0
  6  7  1  1
  6 19  1  0
  7  8  2  0
  7 18  1  0
  8  9  1  0
  9 10  2  0
 10 11  1  0
 11 12  1  0
 11 18  2  0
 12 13  2  0
 12 17  1  0
 13 14  1  0
 14 15  2  0
 15 16  1  0
 16 17  2  0
 19 20  2  0
  1 21  1  0
  1 22  1  0
  1 23  1  0
  4 24  1  0
  4 25  1  0
  5 26  1  0
  8 27  1  0
  9 28  1  0
 10 29  1  0
 13 30  1  0
 14 31  1  0
 15 32  1  0
 17 33  1  0
 18 34  1  0
 35 36  2  0
 36 37  1  0
 37 38  2  0
 38 39  1  0
 39 40  2  0
 40 41  1  0
 41 42  2  0
 42 43  1  0
 43 44  2  0
 38 45  1  0
 45 46  2  0
 46 35  1  0
 44 39  1  0
 36 47  1  0
 37 48  1  0
 40 49  1  0
 41 50  1  0
 42 51  1  0
 43 52  1  0
 44 53  1  0
 45 54  1  0
 46 55  1  0
  6 35  1  0
M  CHG  1   5   1
M  END
>  <attachment_point>  (224) 
26

>  <score>  (224) 
<NA>

$$$$
CAT-4j
     RDKit          3D

 44 47  0  0  1  0  0  0  0  0999 V2000
   11.7106   -2.3098    1.2658 C   0  0  0  0  0  0  0  0  0  0  0  0
   13.0313   -2.6523    0.7225 N   0  0  0  0  0  0  0  0  0  0  0  0
   14.2010   -2.6281    1.3773 C   0  0  0  0  0  0  0  0  0  0  0  0
   14.3777   -2.3568    2.6732 N   0  0  0  0  0  0  0  0  0  0  0  0
   15.2217   -2.9197    0.5738 N   0  0  0  0  0  0  0  0  0  0  0  0
   14.7965   -3.2519   -0.7875 C   0  0  1  0  0  0  0  0  0  0  0  0
   15.3794   -2.2443   -1.7949 C   0  0  0  0  0  0  0  0  0  0  0  0
   15.9522   -2.6550   -3.0208 C   0  0  0  0  0  0  0  0  0  0  0  0
   16.4340   -1.6937   -3.9273 C   0  0  0  0  0  0  0  0  0  0  0  0
   16.3364   -0.3224   -3.6308 C   0  0  0  0  0  0  0  0  0  0  0  0
   15.7943    0.1250   -2.4073 C   0  0  0  0  0  0  0  0  0  0  0  0
   15.6711    1.5693   -2.0915 C   0  0  0  0  0  0  0  0  0  0  0  0
   15.3832    2.0354   -0.7903 C   0  0  0  0  0  0  0  0  0  0  0  0
   15.3534    3.4188   -0.5357 C   0  0  0  0  0  0  0  0  0  0  0  0
   15.5968    4.3049   -1.5946 C   0  0  0  0  0  0  0  0  0  0  0  0
   15.8275    3.8920   -2.8511 N   0  0  0  0  0  0  0  0  0  0  0  0
   15.8598    2.5642   -3.0762 C   0  0  0  0  0  0  0  0  0  0  0  0
   15.3327   -0.8573   -1.5012 C   0  0  0  0  0  0  0  0  0  0  0  0
   13.2767   -3.0094   -0.6368 C   0  0  0  0  0  0  0  0  0  0  0  0
   12.3981   -3.0674   -1.5055 O   0  0  0  0  0  0  0  0  0  0  0  0
    0.0000    0.0000    0.0000 H   0  0  0  0  0  0  0  0  0  0  0  0
    0.0000    0.0000    0.0000 H   0  0  0  0  0  0  0  0  0  0  0  0
    0.0000    0.0000    0.0000 H   0  0  0  0  0  0  0  0  0  0  0  0
    0.0000    0.0000    0.0000 H   0  0  0  0  0  0  0  0  0  0  0  0
    0.0000    0.0000    0.0000 H   0  0  0  0  0  0  0  0  0  0  0  0
    0.0000    0.0000    0.0000 H   0  0  0  0  0  0  0  0  0  0  0  0
    0.0000    0.0000    0.0000 H   0  0  0  0  0  0  0  0  0  0  0  0
    0.0000    0.0000    0.0000 H   0  0  0  0  0  0  0  0  0  0  0  0
    0.0000    0.0000    0.0000 H   0  0  0  0  0  0  0  0  0  0  0  0
    0.0000    0.0000    0.0000 H   0  0  0  0  0  0  0  0  0  0  0  0
    0.0000    0.0000    0.0000 H   0  0  0  0  0  0  0  0  0  0  0  0
    0.0000    0.0000    0.0000 H   0  0  0  0  0  0  0  0  0  0  0  0
    0.0000    0.0000    0.0000 H   0  0  0  0  0  0  0  0  0  0  0  0
    0.0000    0.0000    0.0000 H   0  0  0  0  0  0  0  0  0  0  0  0
    6.9649   -1.5307   -0.3707 N   0  0  0  0  0  0  0  0  0  0  0  0
    6.8587   -0.5470    0.6673 C   0  0  0  0  0  0  0  0  0  0  0  0
    7.5832    0.7669    0.5480 C   0  0  0  0  0  0  0  0  0  0  0  0
    6.1093    0.6959    0.3784 C   0  0  0  0  0  0  0  0  0  0  0  0
    6.5462   -2.4214   -0.0218 H   0  0  0  0  0  0  0  0  0  0  0  0
    6.8718   -0.9567    1.7066 H   0  0  0  0  0  0  0  0  0  0  0  0
    8.2559    0.8553   -0.3285 H   0  0  0  0  0  0  0  0  0  0  0  0
    7.9695    1.2803    1.4432 H   0  0  0  0  0  0  0  0  0  0  0  0
    5.7317    0.8801   -0.6363 H   0  0  0  0  0  0  0  0  0  0  0  0
    5.4992    1.0881    1.2282 H   0  0  0  0  0  0  0  0  0  0  0  0
  1  2  1  0
  2  3  1  0
  2 19  1  0
  3  4  1  0
  3  5  2  0
  5  6  1  0
  6  7  1  0
  6 19  1  0
  7  8  2  0
  7 18  1  0
  8  9  1  0
  9 10  2  0
 10 11  1  0
 11 12  1  0
 11 18  2  0
 12 13  2  0
 12 17  1  0
 13 14  1  0
 14 15  2  0
 15 16  1  0
 16 17  2  0
 19 20  2  0
  1 21  1  0
  1 22  1  0
  1 23  1  0
  4 24  1  0
  4 25  1  0
  5 26  1  0
  8 27  1  0
  9 28  1  0
 10 29  1  0
 13 30  1  0
 14 31  1  0
 15 32  1  0
 17 33  1  0
 18 34  1  0
 35 36  1  0
 36 37  1  0
 37 38  1  0
 38 36  1  0
 35 39  1  0
 36 40  1  0
 37 41  1  0
 37 42  1  0
 38 43  1  0
 38 44  1  0
  6 35  1  6
M  CHG  1   5   1
M  END
>  <attachment_point>  (225) 
26

>  <score>  (225) 
<NA>

$$$$
CAT-4j
     RDKit          3D

 46 49  0  0  1  0  0  0  0  0999 V2000
   11.7106   -2.3098    1.2658 C   0  0  0  0  0  0  0  0  0  0  0  0
   13.0313   -2.6523    0.7225 N   0  0  0  0  0  0  0  0  0  0  0  0
   14.2010   -2.6281    1.3773 C   0  0  0  0  0  0  0  0  0  0  0  0
   14.3777   -2.3568    2.6732 N   0  0  0  0  0  0  0  0  0  0  0  0
   15.2217   -2.9197    0.5738 N   0  0  0  0  0  0  0  0  0  0  0  0
   14.7965   -3.2519   -0.7875 C   0  0  1  0  0  0  0  0  0  0  0  0
   15.3794   -2.2443   -1.7949 C   0  0  0  0  0  0  0  0  0  0  0  0
   15.9522   -2.6550   -3.0208 C   0  0  0  0  0  0  0  0  0  0  0  0
   16.4340   -1.6937   -3.9273 C   0  0  0  0  0  0  0  0  0  0  0  0
   16.3364   -0.3224   -3.6308 C   0  0  0  0  0  0  0  0  0  0  0  0
   15.7943    0.1250   -2.4073 C   0  0  0  0  0  0  0  0  0  0  0  0
   15.6711    1.5693   -2.0915 C   0  0  0  0  0  0  0  0  0  0  0  0
   15.3832    2.0354   -0.7903 C   0  0  0  0  0  0  0  0  0  0  0  0
   15.3534    3.4188   -0.5357 C   0  0  0  0  0  0  0  0  0  0  0  0
   15.5968    4.3049   -1.5946 C   0  0  0  0  0  0  0  0  0  0  0  0
   15.8275    3.8920   -2.8511 N   0  0  0  0  0  0  0  0  0  0  0  0
   15.8598    2.5642   -3.0762 C   0  0  0  0  0  0  0  0  0  0  0  0
   15.3327   -0.8573   -1.5012 C   0  0  0  0  0  0  0  0  0  0  0  0
   13.2767   -3.0094   -0.6368 C   0  0  0  0  0  0  0  0  0  0  0  0
   12.3981   -3.0674   -1.5055 O   0  0  0  0  0  0  0  0  0  0  0  0
    0.0000    0.0000    0.0000 H   0  0  0  0  0  0  0  0  0  0  0  0
    0.0000    0.0000    0.0000 H   0  0  0  0  0  0  0  0  0  0  0  0
    0.0000    0.0000    0.0000 H   0  0  0  0  0  0  0  0  0  0  0  0
    0.0000    0.0000    0.0000 H   0  0  0  0  0  0  0  0  0  0  0  0
    0.0000    0.0000    0.0000 H   0  0  0  0  0  0  0  0  0  0  0  0
    0.0000    0.0000    0.0000 H   0  0  0  0  0  0  0  0  0  0  0  0
    0.0000    0.0000    0.0000 H   0  0  0  0  0  0  0  0  0  0  0  0
    0.0000    0.0000    0.0000 H   0  0  0  0  0  0  0  0  0  0  0  0
    0.0000    0.0000    0.0000 H   0  0  0  0  0  0  0  0  0  0  0  0
    0.0000    0.0000    0.0000 H   0  0  0  0  0  0  0  0  0  0  0  0
    0.0000    0.0000    0.0000 H   0  0  0  0  0  0  0  0  0  0  0  0
    0.0000    0.0000    0.0000 H   0  0  0  0  0  0  0  0  0  0  0  0
    0.0000    0.0000    0.0000 H   0  0  0  0  0  0  0  0  0  0  0  0
    0.0000    0.0000    0.0000 H   0  0  0  0  0  0  0  0  0  0  0  0
    7.0061   -1.5398   -0.3729 N   0  0  0  0  0  0  0  0  0  0  0  0
    6.0961   -2.5843   -0.6368 C   0  0  0  0  0  0  0  0  0  0  0  0
    6.4444   -3.7614   -0.9317 O   0  0  0  0  0  0  0  0  0  0  0  0
    4.6426   -2.3065   -0.5698 C   0  0  0  0  0  0  0  0  0  0  0  0
    4.0808   -1.0872   -0.2647 C   0  0  0  0  0  0  0  0  0  0  0  0
    2.7090   -1.2101   -0.2982 C   0  0  0  0  0  0  0  0  0  0  0  0
    2.5086   -2.5328   -0.6307 C   0  0  0  0  0  0  0  0  0  0  0  0
    3.6618   -3.1265   -0.7775 O   0  0  0  0  0  0  0  0  0  0  0  0
    6.6750   -0.5714   -0.1304 H   0  0  0  0  0  0  0  0  0  0  0  0
    4.6127   -0.1666   -0.0327 H   0  0  0  0  0  0  0  0  0  0  0  0
    1.9582   -0.4475   -0.1081 H   0  0  0  0  0  0  0  0  0  0  0  0
    1.5085   -2.9749   -0.7435 H   0  0  0  0  0  0  0  0  0  0  0  0
  1  2  1  0
  2  3  1  0
  2 19  1  0
  3  4  1  0
  3  5  2  0
  5  6  1  0
  6  7  1  0
  6 19  1  0
  7  8  2  0
  7 18  1  0
  8  9  1  0
  9 10  2  0
 10 11  1  0
 11 12  1  0
 11 18  2  0
 12 13  2  0
 12 17  1  0
 13 14  1  0
 14 15  2  0
 15 16  1  0
 16 17  2  0
 19 20  2  0
  1 21  1  0
  1 22  1  0
  1 23  1  0
  4 24  1  0
  4 25  1  0
  5 26  1  0
  8 27  1  0
  9 28  1  0
 10 29  1  0
 13 30  1  0
 14 31  1  0
 15 32  1  0
 17 33  1  0
 18 34  1  0
 35 36  1  0
 36 37  2  0
 36 38  1  0
 38 39  2  0
 39 40  1  0
 40 41  2  0
 41 42  1  0
 42 38  1  0
 35 43  1  0
 39 44  1  0
 40 45  1  0
 41 46  1  0
  6 35  1  6
M  CHG  1   5   1
M  END
>  <attachment_point>  (226) 
26

>  <score>  (226) 
<NA>

$$$$
CAT-4j
     RDKit          3D

 39 41  0  0  1  0  0  0  0  0999 V2000
   11.7106   -2.3098    1.2658 C   0  0  0  0  0  0  0  0  0  0  0  0
   13.0313   -2.6523    0.7225 N   0  0  0  0  0  0  0  0  0  0  0  0
   14.2010   -2.6281    1.3773 C   0  0  0  0  0  0  0  0  0  0  0  0
   14.3777   -2.3568    2.6732 N   0  0  0  0  0  0  0  0  0  0  0  0
   15.2217   -2.9197    0.5738 N   0  0  0  0  0  0  0  0  0  0  0  0
   14.7965   -3.2519   -0.7875 C   0  0  1  0  0  0  0  0  0  0  0  0
   15.3794   -2.2443   -1.7949 C   0  0  0  0  0  0  0  0  0  0  0  0
   15.9522   -2.6550   -3.0208 C   0  0  0  0  0  0  0  0  0  0  0  0
   16.4340   -1.6937   -3.9273 C   0  0  0  0  0  0  0  0  0  0  0  0
   16.3364   -0.3224   -3.6308 C   0  0  0  0  0  0  0  0  0  0  0  0
   15.7943    0.1250   -2.4073 C   0  0  0  0  0  0  0  0  0  0  0  0
   15.6711    1.5693   -2.0915 C   0  0  0  0  0  0  0  0  0  0  0  0
   15.3832    2.0354   -0.7903 C   0  0  0  0  0  0  0  0  0  0  0  0
   15.3534    3.4188   -0.5357 C   0  0  0  0  0  0  0  0  0  0  0  0
   15.5968    4.3049   -1.5946 C   0  0  0  0  0  0  0  0  0  0  0  0
   15.8275    3.8920   -2.8511 N   0  0  0  0  0  0  0  0  0  0  0  0
   15.8598    2.5642   -3.0762 C   0  0  0  0  0  0  0  0  0  0  0  0
   15.3327   -0.8573   -1.5012 C   0  0  0  0  0  0  0  0  0  0  0  0
   13.2767   -3.0094   -0.6368 C   0  0  0  0  0  0  0  0  0  0  0  0
   12.3981   -3.0674   -1.5055 O   0  0  0  0  0  0  0  0  0  0  0  0
    0.0000    0.0000    0.0000 H   0  0  0  0  0  0  0  0  0  0  0  0
    0.0000    0.0000    0.0000 H   0  0  0  0  0  0  0  0  0  0  0  0
    0.0000    0.0000    0.0000 H   0  0  0  0  0  0  0  0  0  0  0  0
    0.0000    0.0000    0.0000 H   0  0  0  0  0  0  0  0  0  0  0  0
    0.0000    0.0000    0.0000 H   0  0  0  0  0  0  0  0  0  0  0  0
    0.0000    0.0000    0.0000 H   0  0  0  0  0  0  0  0  0  0  0  0
    0.0000    0.0000    0.0000 H   0  0  0  0  0  0  0  0  0  0  0  0
    0.0000    0.0000    0.0000 H   0  0  0  0  0  0  0  0  0  0  0  0
    0.0000    0.0000    0.0000 H   0  0  0  0  0  0  0  0  0  0  0  0
    0.0000    0.0000    0.0000 H   0  0  0  0  0  0  0  0  0  0  0  0
    0.0000    0.0000    0.0000 H   0  0  0  0  0  0  0  0  0  0  0  0
    0.0000    0.0000    0.0000 H   0  0  0  0  0  0  0  0  0  0  0  0
    0.0000    0.0000    0.0000 H   0  0  0  0  0  0  0  0  0  0  0  0
    0.0000    0.0000    0.0000 H   0  0  0  0  0  0  0  0  0  0  0  0
    6.8259   -1.5002   -0.3633 C   0  0  0  0  0  0  0  0  0  0  0  0
    6.3477   -2.4731   -0.8890 N   0  0  0  0  0  0  0  0  0  0  0  0
    5.0697   -2.8066   -1.1352 O   0  0  0  0  0  0  0  0  0  0  0  0
    6.7767   -0.6197    0.0840 H   0  0  0  0  0  0  0  0  0  0  0  0
    4.4883   -2.2069   -1.6701 H   0  0  0  0  0  0  0  0  0  0  0  0
  1  2  1  0
  2  3  1  0
  2 19  1  0
  3  4  1  0
  3  5  2  0
  5  6  1  0
  6  7  1  1
  6 19  1  0
  7  8  2  0
  7 18  1  0
  8  9  1  0
  9 10  2  0
 10 11  1  0
 11 12  1  0
 11 18  2  0
 12 13  2  0
 12 17  1  0
 13 14  1  0
 14 15  2  0
 15 16  1  0
 16 17  2  0
 19 20  2  0
  1 21  1  0
  1 22  1  0
  1 23  1  0
  4 24  1  0
  4 25  1  0
  5 26  1  0
  8 27  1  0
  9 28  1  0
 10 29  1  0
 13 30  1  0
 14 31  1  0
 15 32  1  0
 17 33  1  0
 18 34  1  0
 35 36  2  3
 36 37  1  0
 35 38  1  0
 37 39  1  0
  6 35  1  0
M  CHG  1   5   1
M  END
>  <attachment_point>  (227) 
26

>  <score>  (227) 
<NA>

$$$$
CAT-4j
     RDKit          3D

 58 61  0  0  1  0  0  0  0  0999 V2000
   11.7106   -2.3098    1.2658 C   0  0  0  0  0  0  0  0  0  0  0  0
   13.0313   -2.6523    0.7225 N   0  0  0  0  0  0  0  0  0  0  0  0
   14.2010   -2.6281    1.3773 C   0  0  0  0  0  0  0  0  0  0  0  0
   14.3777   -2.3568    2.6732 N   0  0  0  0  0  0  0  0  0  0  0  0
   15.2217   -2.9197    0.5738 N   0  0  0  0  0  0  0  0  0  0  0  0
   14.7965   -3.2519   -0.7875 C   0  0  1  0  0  0  0  0  0  0  0  0
   15.3794   -2.2443   -1.7949 C   0  0  0  0  0  0  0  0  0  0  0  0
   15.9522   -2.6550   -3.0208 C   0  0  0  0  0  0  0  0  0  0  0  0
   16.4340   -1.6937   -3.9273 C   0  0  0  0  0  0  0  0  0  0  0  0
   16.3364   -0.3224   -3.6308 C   0  0  0  0  0  0  0  0  0  0  0  0
   15.7943    0.1250   -2.4073 C   0  0  0  0  0  0  0  0  0  0  0  0
   15.6711    1.5693   -2.0915 C   0  0  0  0  0  0  0  0  0  0  0  0
   15.3832    2.0354   -0.7903 C   0  0  0  0  0  0  0  0  0  0  0  0
   15.3534    3.4188   -0.5357 C   0  0  0  0  0  0  0  0  0  0  0  0
   15.5968    4.3049   -1.5946 C   0  0  0  0  0  0  0  0  0  0  0  0
   15.8275    3.8920   -2.8511 N   0  0  0  0  0  0  0  0  0  0  0  0
   15.8598    2.5642   -3.0762 C   0  0  0  0  0  0  0  0  0  0  0  0
   15.3327   -0.8573   -1.5012 C   0  0  0  0  0  0  0  0  0  0  0  0
   13.2767   -3.0094   -0.6368 C   0  0  0  0  0  0  0  0  0  0  0  0
   12.3981   -3.0674   -1.5055 O   0  0  0  0  0  0  0  0  0  0  0  0
    0.0000    0.0000    0.0000 H   0  0  0  0  0  0  0  0  0  0  0  0
    0.0000    0.0000    0.0000 H   0  0  0  0  0  0  0  0  0  0  0  0
    0.0000    0.0000    0.0000 H   0  0  0  0  0  0  0  0  0  0  0  0
    0.0000    0.0000    0.0000 H   0  0  0  0  0  0  0  0  0  0  0  0
    0.0000    0.0000    0.0000 H   0  0  0  0  0  0  0  0  0  0  0  0
    0.0000    0.0000    0.0000 H   0  0  0  0  0  0  0  0  0  0  0  0
    0.0000    0.0000    0.0000 H   0  0  0  0  0  0  0  0  0  0  0  0
    0.0000    0.0000    0.0000 H   0  0  0  0  0  0  0  0  0  0  0  0
    0.0000    0.0000    0.0000 H   0  0  0  0  0  0  0  0  0  0  0  0
    0.0000    0.0000    0.0000 H   0  0  0  0  0  0  0  0  0  0  0  0
    0.0000    0.0000    0.0000 H   0  0  0  0  0  0  0  0  0  0  0  0
    0.0000    0.0000    0.0000 H   0  0  0  0  0  0  0  0  0  0  0  0
    0.0000    0.0000    0.0000 H   0  0  0  0  0  0  0  0  0  0  0  0
    0.0000    0.0000    0.0000 H   0  0  0  0  0  0  0  0  0  0  0  0
    7.0112   -1.5409   -0.3731 O   0  0  0  0  0  0  0  0  0  0  0  0
    6.8391   -0.1402   -0.4826 C   0  0  0  0  0  0  0  0  0  0  0  0
    5.3667    0.2048   -0.4063 C   0  0  0  0  0  0  0  0  0  0  0  0
    4.7824   -0.2491    0.8985 C   0  0  0  0  0  0  0  0  0  0  0  0
    5.3923    0.3365    2.0540 N   0  0  0  0  0  0  0  0  0  0  0  0
    4.7219   -0.1993    3.2265 C   0  0  0  0  0  0  0  0  0  0  0  0
    5.3141    0.3105    4.5123 C   0  0  0  0  0  0  0  0  0  0  0  0
    5.1661    1.7138    4.5258 O   0  0  0  0  0  0  0  0  0  0  0  0
    5.9456    2.1716    3.4453 C   0  0  0  0  0  0  0  0  0  0  0  0
    5.3217    1.7601    2.1240 C   0  0  0  0  0  0  0  0  0  0  0  0
    7.1755    0.1298   -1.5099 H   0  0  0  0  0  0  0  0  0  0  0  0
    7.4346    0.3130    0.3082 H   0  0  0  0  0  0  0  0  0  0  0  0
    5.1698    1.2372   -0.6721 H   0  0  0  0  0  0  0  0  0  0  0  0
    4.8723   -0.4260   -1.2034 H   0  0  0  0  0  0  0  0  0  0  0  0
    3.7012   -0.0164    0.9198 H   0  0  0  0  0  0  0  0  0  0  0  0
    4.9321   -1.3478    0.9652 H   0  0  0  0  0  0  0  0  0  0  0  0
    4.7292   -1.3109    3.2463 H   0  0  0  0  0  0  0  0  0  0  0  0
    3.6685    0.1559    3.1678 H   0  0  0  0  0  0  0  0  0  0  0  0
    4.7597   -0.1472    5.3406 H   0  0  0  0  0  0  0  0  0  0  0  0
    6.3938    0.0952    4.5707 H   0  0  0  0  0  0  0  0  0  0  0  0
    6.9433    1.6653    3.5158 H   0  0  0  0  0  0  0  0  0  0  0  0
    6.1089    3.2609    3.4841 H   0  0  0  0  0  0  0  0  0  0  0  0
    5.8938    2.2872    1.3382 H   0  0  0  0  0  0  0  0  0  0  0  0
    4.2400    2.0510    2.1336 H   0  0  0  0  0  0  0  0  0  0  0  0
  1  2  1  0
  2  3  1  0
  2 19  1  0
  3  4  1  0
  3  5  2  0
  5  6  1  0
  6  7  1  0
  6 19  1  0
  7  8  2  0
  7 18  1  0
  8  9  1  0
  9 10  2  0
 10 11  1  0
 11 12  1  0
 11 18  2  0
 12 13  2  0
 12 17  1  0
 13 14  1  0
 14 15  2  0
 15 16  1  0
 16 17  2  0
 19 20  2  0
  1 21  1  0
  1 22  1  0
  1 23  1  0
  4 24  1  0
  4 25  1  0
  5 26  1  0
  8 27  1  0
  9 28  1  0
 10 29  1  0
 13 30  1  0
 14 31  1  0
 15 32  1  0
 17 33  1  0
 18 34  1  0
 35 36  1  0
 36 37  1  0
 37 38  1  0
 38 39  1  0
 39 40  1  0
 40 41  1  0
 41 42  1  0
 42 43  1  0
 43 44  1  0
 44 39  1  0
 36 45  1  0
 36 46  1  0
 37 47  1  0
 37 48  1  0
 38 49  1  0
 38 50  1  0
 40 51  1  0
 40 52  1  0
 41 53  1  0
 41 54  1  0
 43 55  1  0
 43 56  1  0
 44 57  1  0
 44 58  1  0
  6 35  1  6
M  CHG  1   5   1
M  END
>  <attachment_point>  (228) 
26

>  <score>  (228) 
<NA>

$$$$
CAT-4j
     RDKit          3D

 51 54  0  0  1  0  0  0  0  0999 V2000
   11.7106   -2.3098    1.2658 C   0  0  0  0  0  0  0  0  0  0  0  0
   13.0313   -2.6523    0.7225 N   0  0  0  0  0  0  0  0  0  0  0  0
   14.2010   -2.6281    1.3773 C   0  0  0  0  0  0  0  0  0  0  0  0
   14.3777   -2.3568    2.6732 N   0  0  0  0  0  0  0  0  0  0  0  0
   15.2217   -2.9197    0.5738 N   0  0  0  0  0  0  0  0  0  0  0  0
   14.7965   -3.2519   -0.7875 C   0  0  1  0  0  0  0  0  0  0  0  0
   15.3794   -2.2443   -1.7949 C   0  0  0  0  0  0  0  0  0  0  0  0
   15.9522   -2.6550   -3.0208 C   0  0  0  0  0  0  0  0  0  0  0  0
   16.4340   -1.6937   -3.9273 C   0  0  0  0  0  0  0  0  0  0  0  0
   16.3364   -0.3224   -3.6308 C   0  0  0  0  0  0  0  0  0  0  0  0
   15.7943    0.1250   -2.4073 C   0  0  0  0  0  0  0  0  0  0  0  0
   15.6711    1.5693   -2.0915 C   0  0  0  0  0  0  0  0  0  0  0  0
   15.3832    2.0354   -0.7903 C   0  0  0  0  0  0  0  0  0  0  0  0
   15.3534    3.4188   -0.5357 C   0  0  0  0  0  0  0  0  0  0  0  0
   15.5968    4.3049   -1.5946 C   0  0  0  0  0  0  0  0  0  0  0  0
   15.8275    3.8920   -2.8511 N   0  0  0  0  0  0  0  0  0  0  0  0
   15.8598    2.5642   -3.0762 C   0  0  0  0  0  0  0  0  0  0  0  0
   15.3327   -0.8573   -1.5012 C   0  0  0  0  0  0  0  0  0  0  0  0
   13.2767   -3.0094   -0.6368 C   0  0  0  0  0  0  0  0  0  0  0  0
   12.3981   -3.0674   -1.5055 O   0  0  0  0  0  0  0  0  0  0  0  0
    0.0000    0.0000    0.0000 H   0  0  0  0  0  0  0  0  0  0  0  0
    0.0000    0.0000    0.0000 H   0  0  0  0  0  0  0  0  0  0  0  0
    0.0000    0.0000    0.0000 H   0  0  0  0  0  0  0  0  0  0  0  0
    0.0000    0.0000    0.0000 H   0  0  0  0  0  0  0  0  0  0  0  0
    0.0000    0.0000    0.0000 H   0  0  0  0  0  0  0  0  0  0  0  0
    0.0000    0.0000    0.0000 H   0  0  0  0  0  0  0  0  0  0  0  0
    0.0000    0.0000    0.0000 H   0  0  0  0  0  0  0  0  0  0  0  0
    0.0000    0.0000    0.0000 H   0  0  0  0  0  0  0  0  0  0  0  0
    0.0000    0.0000    0.0000 H   0  0  0  0  0  0  0  0  0  0  0  0
    0.0000    0.0000    0.0000 H   0  0  0  0  0  0  0  0  0  0  0  0
    0.0000    0.0000    0.0000 H   0  0  0  0  0  0  0  0  0  0  0  0
    0.0000    0.0000    0.0000 H   0  0  0  0  0  0  0  0  0  0  0  0
    0.0000    0.0000    0.0000 H   0  0  0  0  0  0  0  0  0  0  0  0
    0.0000    0.0000    0.0000 H   0  0  0  0  0  0  0  0  0  0  0  0
    6.9146   -1.5197   -0.3680 C   0  0  0  0  0  0  0  0  0  0  0  0
    6.4267   -1.0269    0.7820 C   0  0  0  0  0  0  0  0  0  0  0  0
    5.0570   -0.7258    0.8551 C   0  0  0  0  0  0  0  0  0  0  0  0
    4.2523   -0.9400   -0.2422 C   0  0  0  0  0  0  0  0  0  0  0  0
    2.8218   -0.6051   -0.1058 C   0  0  0  0  0  0  0  0  0  0  0  0
    1.9631   -1.7050    0.3828 C   0  0  0  0  0  0  0  0  0  0  0  0
    4.8121   -1.4458   -1.3875 C   0  0  0  0  0  0  0  0  0  0  0  0
    6.1654   -1.7467   -1.4698 C   0  0  0  0  0  0  0  0  0  0  0  0
    7.0641   -0.8627    1.6349 H   0  0  0  0  0  0  0  0  0  0  0  0
    4.7251   -0.3337    1.8032 H   0  0  0  0  0  0  0  0  0  0  0  0
    2.7400    0.2626    0.5786 H   0  0  0  0  0  0  0  0  0  0  0  0
    2.4526   -0.2580   -1.1025 H   0  0  0  0  0  0  0  0  0  0  0  0
    2.4046   -2.1593    1.2997 H   0  0  0  0  0  0  0  0  0  0  0  0
    1.7316   -2.4918   -0.3442 H   0  0  0  0  0  0  0  0  0  0  0  0
    0.9893   -1.2736    0.7065 H   0  0  0  0  0  0  0  0  0  0  0  0
    4.1775   -1.6070   -2.2303 H   0  0  0  0  0  0  0  0  0  0  0  0
    6.5998   -2.1406   -2.3629 H   0  0  0  0  0  0  0  0  0  0  0  0
  1  2  1  0
  2  3  1  0
  2 19  1  0
  3  4  1  0
  3  5  2  0
  5  6  1  0
  6  7  1  1
  6 19  1  0
  7  8  2  0
  7 18  1  0
  8  9  1  0
  9 10  2  0
 10 11  1  0
 11 12  1  0
 11 18  2  0
 12 13  2  0
 12 17  1  0
 13 14  1  0
 14 15  2  0
 15 16  1  0
 16 17  2  0
 19 20  2  0
  1 21  1  0
  1 22  1  0
  1 23  1  0
  4 24  1  0
  4 25  1  0
  5 26  1  0
  8 27  1  0
  9 28  1  0
 10 29  1  0
 13 30  1  0
 14 31  1  0
 15 32  1  0
 17 33  1  0
 18 34  1  0
 35 36  2  0
 36 37  1  0
 37 38  2  0
 38 39  1  0
 39 40  1  0
 38 41  1  0
 41 42  2  0
 42 35  1  0
 36 43  1  0
 37 44  1  0
 39 45  1  0
 39 46  1  0
 40 47  1  0
 40 48  1  0
 40 49  1  0
 41 50  1  0
 42 51  1  0
  6 35  1  0
M  CHG  1   5   1
M  END
>  <attachment_point>  (229) 
26

>  <score>  (229) 
<NA>

$$$$
CAT-4j
     RDKit          3D

 45 47  0  0  1  0  0  0  0  0999 V2000
   11.7106   -2.3098    1.2658 C   0  0  0  0  0  0  0  0  0  0  0  0
   13.0313   -2.6523    0.7225 N   0  0  0  0  0  0  0  0  0  0  0  0
   14.2010   -2.6281    1.3773 C   0  0  0  0  0  0  0  0  0  0  0  0
   14.3777   -2.3568    2.6732 N   0  0  0  0  0  0  0  0  0  0  0  0
   15.2217   -2.9197    0.5738 N   0  0  0  0  0  0  0  0  0  0  0  0
   14.7965   -3.2519   -0.7875 C   0  0  1  0  0  0  0  0  0  0  0  0
   15.3794   -2.2443   -1.7949 C   0  0  0  0  0  0  0  0  0  0  0  0
   15.9522   -2.6550   -3.0208 C   0  0  0  0  0  0  0  0  0  0  0  0
   16.4340   -1.6937   -3.9273 C   0  0  0  0  0  0  0  0  0  0  0  0
   16.3364   -0.3224   -3.6308 C   0  0  0  0  0  0  0  0  0  0  0  0
   15.7943    0.1250   -2.4073 C   0  0  0  0  0  0  0  0  0  0  0  0
   15.6711    1.5693   -2.0915 C   0  0  0  0  0  0  0  0  0  0  0  0
   15.3832    2.0354   -0.7903 C   0  0  0  0  0  0  0  0  0  0  0  0
   15.3534    3.4188   -0.5357 C   0  0  0  0  0  0  0  0  0  0  0  0
   15.5968    4.3049   -1.5946 C   0  0  0  0  0  0  0  0  0  0  0  0
   15.8275    3.8920   -2.8511 N   0  0  0  0  0  0  0  0  0  0  0  0
   15.8598    2.5642   -3.0762 C   0  0  0  0  0  0  0  0  0  0  0  0
   15.3327   -0.8573   -1.5012 C   0  0  0  0  0  0  0  0  0  0  0  0
   13.2767   -3.0094   -0.6368 C   0  0  0  0  0  0  0  0  0  0  0  0
   12.3981   -3.0674   -1.5055 O   0  0  0  0  0  0  0  0  0  0  0  0
    0.0000    0.0000    0.0000 H   0  0  0  0  0  0  0  0  0  0  0  0
    0.0000    0.0000    0.0000 H   0  0  0  0  0  0  0  0  0  0  0  0
    0.0000    0.0000    0.0000 H   0  0  0  0  0  0  0  0  0  0  0  0
    0.0000    0.0000    0.0000 H   0  0  0  0  0  0  0  0  0  0  0  0
    0.0000    0.0000    0.0000 H   0  0  0  0  0  0  0  0  0  0  0  0
    0.0000    0.0000    0.0000 H   0  0  0  0  0  0  0  0  0  0  0  0
    0.0000    0.0000    0.0000 H   0  0  0  0  0  0  0  0  0  0  0  0
    0.0000    0.0000    0.0000 H   0  0  0  0  0  0  0  0  0  0  0  0
    0.0000    0.0000    0.0000 H   0  0  0  0  0  0  0  0  0  0  0  0
    0.0000    0.0000    0.0000 H   0  0  0  0  0  0  0  0  0  0  0  0
    0.0000    0.0000    0.0000 H   0  0  0  0  0  0  0  0  0  0  0  0
    0.0000    0.0000    0.0000 H   0  0  0  0  0  0  0  0  0  0  0  0
    0.0000    0.0000    0.0000 H   0  0  0  0  0  0  0  0  0  0  0  0
    0.0000    0.0000    0.0000 H   0  0  0  0  0  0  0  0  0  0  0  0
    6.9792   -1.5339   -0.3714 N   0  0  0  0  0  0  0  0  0  0  0  0
    6.6018   -0.2006   -0.1165 C   0  0  0  0  0  0  0  0  0  0  0  0
    7.4412    0.7356    0.0493 O   0  0  0  0  0  0  0  0  0  0  0  0
    5.1767    0.1110   -0.0410 C   0  0  0  0  0  0  0  0  0  0  0  0
    4.9721    1.5837    0.2380 C   0  0  0  0  0  0  0  0  0  0  0  0
    6.2659   -2.2580   -0.4989 H   0  0  0  0  0  0  0  0  0  0  0  0
    4.5916   -0.2032   -0.9275 H   0  0  0  0  0  0  0  0  0  0  0  0
    4.7615   -0.4599    0.8404 H   0  0  0  0  0  0  0  0  0  0  0  0
    4.3852    2.0526   -0.6008 H   0  0  0  0  0  0  0  0  0  0  0  0
    5.9534    2.1378    0.2200 H   0  0  0  0  0  0  0  0  0  0  0  0
    4.4911    1.7561    1.2157 H   0  0  0  0  0  0  0  0  0  0  0  0
  1  2  1  0
  2  3  1  0
  2 19  1  0
  3  4  1  0
  3  5  2  0
  5  6  1  0
  6  7  1  0
  6 19  1  0
  7  8  2  0
  7 18  1  0
  8  9  1  0
  9 10  2  0
 10 11  1  0
 11 12  1  0
 11 18  2  0
 12 13  2  0
 12 17  1  0
 13 14  1  0
 14 15  2  0
 15 16  1  0
 16 17  2  0
 19 20  2  0
  1 21  1  0
  1 22  1  0
  1 23  1  0
  4 24  1  0
  4 25  1  0
  5 26  1  0
  8 27  1  0
  9 28  1  0
 10 29  1  0
 13 30  1  0
 14 31  1  0
 15 32  1  0
 17 33  1  0
 18 34  1  0
 35 36  1  0
 36 37  2  0
 36 38  1  0
 38 39  1  0
 35 40  1  0
 38 41  1  0
 38 42  1  0
 39 43  1  0
 39 44  1  0
 39 45  1  0
  6 35  1  6
M  CHG  1   5   1
M  END
>  <attachment_point>  (230) 
26

>  <score>  (230) 
<NA>

$$$$
CAT-4j
     RDKit          3D

 48 51  0  0  1  0  0  0  0  0999 V2000
   11.7106   -2.3098    1.2658 C   0  0  0  0  0  0  0  0  0  0  0  0
   13.0313   -2.6523    0.7225 N   0  0  0  0  0  0  0  0  0  0  0  0
   14.2010   -2.6281    1.3773 C   0  0  0  0  0  0  0  0  0  0  0  0
   14.3777   -2.3568    2.6732 N   0  0  0  0  0  0  0  0  0  0  0  0
   15.2217   -2.9197    0.5738 N   0  0  0  0  0  0  0  0  0  0  0  0
   14.7965   -3.2519   -0.7875 C   0  0  1  0  0  0  0  0  0  0  0  0
   15.3794   -2.2443   -1.7949 C   0  0  0  0  0  0  0  0  0  0  0  0
   15.9522   -2.6550   -3.0208 C   0  0  0  0  0  0  0  0  0  0  0  0
   16.4340   -1.6937   -3.9273 C   0  0  0  0  0  0  0  0  0  0  0  0
   16.3364   -0.3224   -3.6308 C   0  0  0  0  0  0  0  0  0  0  0  0
   15.7943    0.1250   -2.4073 C   0  0  0  0  0  0  0  0  0  0  0  0
   15.6711    1.5693   -2.0915 C   0  0  0  0  0  0  0  0  0  0  0  0
   15.3832    2.0354   -0.7903 C   0  0  0  0  0  0  0  0  0  0  0  0
   15.3534    3.4188   -0.5357 C   0  0  0  0  0  0  0  0  0  0  0  0
   15.5968    4.3049   -1.5946 C   0  0  0  0  0  0  0  0  0  0  0  0
   15.8275    3.8920   -2.8511 N   0  0  0  0  0  0  0  0  0  0  0  0
   15.8598    2.5642   -3.0762 C   0  0  0  0  0  0  0  0  0  0  0  0
   15.3327   -0.8573   -1.5012 C   0  0  0  0  0  0  0  0  0  0  0  0
   13.2767   -3.0094   -0.6368 C   0  0  0  0  0  0  0  0  0  0  0  0
   12.3981   -3.0674   -1.5055 O   0  0  0  0  0  0  0  0  0  0  0  0
    0.0000    0.0000    0.0000 H   0  0  0  0  0  0  0  0  0  0  0  0
    0.0000    0.0000    0.0000 H   0  0  0  0  0  0  0  0  0  0  0  0
    0.0000    0.0000    0.0000 H   0  0  0  0  0  0  0  0  0  0  0  0
    0.0000    0.0000    0.0000 H   0  0  0  0  0  0  0  0  0  0  0  0
    0.0000    0.0000    0.0000 H   0  0  0  0  0  0  0  0  0  0  0  0
    0.0000    0.0000    0.0000 H   0  0  0  0  0  0  0  0  0  0  0  0
    0.0000    0.0000    0.0000 H   0  0  0  0  0  0  0  0  0  0  0  0
    0.0000    0.0000    0.0000 H   0  0  0  0  0  0  0  0  0  0  0  0
    0.0000    0.0000    0.0000 H   0  0  0  0  0  0  0  0  0  0  0  0
    0.0000    0.0000    0.0000 H   0  0  0  0  0  0  0  0  0  0  0  0
    0.0000    0.0000    0.0000 H   0  0  0  0  0  0  0  0  0  0  0  0
    0.0000    0.0000    0.0000 H   0  0  0  0  0  0  0  0  0  0  0  0
    0.0000    0.0000    0.0000 H   0  0  0  0  0  0  0  0  0  0  0  0
    0.0000    0.0000    0.0000 H   0  0  0  0  0  0  0  0  0  0  0  0
    6.9606   -1.5298   -0.3705 C   0  0  0  0  0  0  0  0  0  0  0  0
    6.0418   -2.5179   -0.5182 C   0  0  0  0  0  0  0  0  0  0  0  0
    4.6885   -2.2305   -0.4479 C   0  0  0  0  0  0  0  0  0  0  0  0
    4.2781   -0.9268   -0.2255 C   0  0  0  0  0  0  0  0  0  0  0  0
    5.2498    0.0442   -0.0815 C   0  0  0  0  0  0  0  0  0  0  0  0
    4.8540    1.3789    0.1458 O   0  0  0  0  0  0  0  0  0  0  0  0
    5.8306    2.3926    0.2967 C   0  0  0  0  0  0  0  0  0  0  0  0
    6.5582   -0.2647   -0.1546 N   0  0  0  0  0  0  0  0  0  0  0  0
    6.3989   -3.5389   -0.6929 H   0  0  0  0  0  0  0  0  0  0  0  0
    3.9441   -3.0159   -0.5650 H   0  0  0  0  0  0  0  0  0  0  0  0
    3.2308   -0.6479   -0.1617 H   0  0  0  0  0  0  0  0  0  0  0  0
    6.5955    2.3275   -0.4997 H   0  0  0  0  0  0  0  0  0  0  0  0
    6.2846    2.3573    1.3235 H   0  0  0  0  0  0  0  0  0  0  0  0
    5.2976    3.3755    0.2024 H   0  0  0  0  0  0  0  0  0  0  0  0
  1  2  1  0
  2  3  1  0
  2 19  1  0
  3  4  1  0
  3  5  2  0
  5  6  1  0
  6  7  1  1
  6 19  1  0
  7  8  2  0
  7 18  1  0
  8  9  1  0
  9 10  2  0
 10 11  1  0
 11 12  1  0
 11 18  2  0
 12 13  2  0
 12 17  1  0
 13 14  1  0
 14 15  2  0
 15 16  1  0
 16 17  2  0
 19 20  2  0
  1 21  1  0
  1 22  1  0
  1 23  1  0
  4 24  1  0
  4 25  1  0
  5 26  1  0
  8 27  1  0
  9 28  1  0
 10 29  1  0
 13 30  1  0
 14 31  1  0
 15 32  1  0
 17 33  1  0
 18 34  1  0
 35 36  2  0
 36 37  1  0
 37 38  2  0
 38 39  1  0
 39 40  1  0
 40 41  1  0
 39 42  2  0
 42 35  1  0
 36 43  1  0
 37 44  1  0
 38 45  1  0
 41 46  1  0
 41 47  1  0
 41 48  1  0
  6 35  1  0
M  CHG  1   5   1
M  END
>  <attachment_point>  (231) 
26

>  <score>  (231) 
<NA>

$$$$
CAT-4j
     RDKit          3D

 56 59  0  0  1  0  0  0  0  0999 V2000
   11.7106   -2.3098    1.2658 C   0  0  0  0  0  0  0  0  0  0  0  0
   13.0313   -2.6523    0.7225 N   0  0  0  0  0  0  0  0  0  0  0  0
   14.2010   -2.6281    1.3773 C   0  0  0  0  0  0  0  0  0  0  0  0
   14.3777   -2.3568    2.6732 N   0  0  0  0  0  0  0  0  0  0  0  0
   15.2217   -2.9197    0.5738 N   0  0  0  0  0  0  0  0  0  0  0  0
   14.7965   -3.2519   -0.7875 C   0  0  1  0  0  0  0  0  0  0  0  0
   15.3794   -2.2443   -1.7949 C   0  0  0  0  0  0  0  0  0  0  0  0
   15.9522   -2.6550   -3.0208 C   0  0  0  0  0  0  0  0  0  0  0  0
   16.4340   -1.6937   -3.9273 C   0  0  0  0  0  0  0  0  0  0  0  0
   16.3364   -0.3224   -3.6308 C   0  0  0  0  0  0  0  0  0  0  0  0
   15.7943    0.1250   -2.4073 C   0  0  0  0  0  0  0  0  0  0  0  0
   15.6711    1.5693   -2.0915 C   0  0  0  0  0  0  0  0  0  0  0  0
   15.3832    2.0354   -0.7903 C   0  0  0  0  0  0  0  0  0  0  0  0
   15.3534    3.4188   -0.5357 C   0  0  0  0  0  0  0  0  0  0  0  0
   15.5968    4.3049   -1.5946 C   0  0  0  0  0  0  0  0  0  0  0  0
   15.8275    3.8920   -2.8511 N   0  0  0  0  0  0  0  0  0  0  0  0
   15.8598    2.5642   -3.0762 C   0  0  0  0  0  0  0  0  0  0  0  0
   15.3327   -0.8573   -1.5012 C   0  0  0  0  0  0  0  0  0  0  0  0
   13.2767   -3.0094   -0.6368 C   0  0  0  0  0  0  0  0  0  0  0  0
   12.3981   -3.0674   -1.5055 O   0  0  0  0  0  0  0  0  0  0  0  0
    0.0000    0.0000    0.0000 H   0  0  0  0  0  0  0  0  0  0  0  0
    0.0000    0.0000    0.0000 H   0  0  0  0  0  0  0  0  0  0  0  0
    0.0000    0.0000    0.0000 H   0  0  0  0  0  0  0  0  0  0  0  0
    0.0000    0.0000    0.0000 H   0  0  0  0  0  0  0  0  0  0  0  0
    0.0000    0.0000    0.0000 H   0  0  0  0  0  0  0  0  0  0  0  0
    0.0000    0.0000    0.0000 H   0  0  0  0  0  0  0  0  0  0  0  0
    0.0000    0.0000    0.0000 H   0  0  0  0  0  0  0  0  0  0  0  0
    0.0000    0.0000    0.0000 H   0  0  0  0  0  0  0  0  0  0  0  0
    0.0000    0.0000    0.0000 H   0  0  0  0  0  0  0  0  0  0  0  0
    0.0000    0.0000    0.0000 H   0  0  0  0  0  0  0  0  0  0  0  0
    0.0000    0.0000    0.0000 H   0  0  0  0  0  0  0  0  0  0  0  0
    0.0000    0.0000    0.0000 H   0  0  0  0  0  0  0  0  0  0  0  0
    0.0000    0.0000    0.0000 H   0  0  0  0  0  0  0  0  0  0  0  0
    0.0000    0.0000    0.0000 H   0  0  0  0  0  0  0  0  0  0  0  0
    7.0237   -1.5436   -0.3738 N   0  0  0  0  0  0  0  0  0  0  0  0
    6.8620   -0.5033    0.6405 C   0  0  0  0  0  0  0  0  0  0  0  0
    7.7113    0.6494    0.1850 C   0  0  0  0  0  0  0  0  0  0  0  0
    7.0742    1.2662   -0.9789 N   0  0  0  0  0  0  0  0  0  0  0  0
    7.9952    2.3274   -1.3761 C   0  0  0  0  0  0  0  0  0  0  0  0
    7.3945    3.2690   -2.3767 C   0  0  0  0  0  0  0  0  0  0  0  0
    8.3962    4.1475   -2.7800 O   0  0  0  0  0  0  0  0  0  0  0  0
    6.9960    0.2671   -2.0403 C   0  0  0  0  0  0  0  0  0  0  0  0
    6.4165   -1.0343   -1.5796 C   0  0  0  0  0  0  0  0  0  0  0  0
    5.8104   -0.1677    0.7158 H   0  0  0  0  0  0  0  0  0  0  0  0
    7.2391   -0.9395    1.5784 H   0  0  0  0  0  0  0  0  0  0  0  0
    7.8934    1.4003    0.9687 H   0  0  0  0  0  0  0  0  0  0  0  0
    8.6605    0.2057   -0.2028 H   0  0  0  0  0  0  0  0  0  0  0  0
    8.1835    2.9037   -0.4314 H   0  0  0  0  0  0  0  0  0  0  0  0
    8.9811    1.9425   -1.6926 H   0  0  0  0  0  0  0  0  0  0  0  0
    6.5983    3.8788   -1.9033 H   0  0  0  0  0  0  0  0  0  0  0  0
    7.0627    2.7118   -3.2625 H   0  0  0  0  0  0  0  0  0  0  0  0
    9.2882    3.7885   -2.5774 H   0  0  0  0  0  0  0  0  0  0  0  0
    8.0059    0.0769   -2.4413 H   0  0  0  0  0  0  0  0  0  0  0  0
    6.3521    0.6450   -2.8536 H   0  0  0  0  0  0  0  0  0  0  0  0
    6.6029   -1.7913   -2.3711 H   0  0  0  0  0  0  0  0  0  0  0  0
    5.3198   -1.0054   -1.4252 H   0  0  0  0  0  0  0  0  0  0  0  0
  1  2  1  0
  2  3  1  0
  2 19  1  0
  3  4  1  0
  3  5  2  0
  5  6  1  0
  6  7  1  0
  6 19  1  0
  7  8  2  0
  7 18  1  0
  8  9  1  0
  9 10  2  0
 10 11  1  0
 11 12  1  0
 11 18  2  0
 12 13  2  0
 12 17  1  0
 13 14  1  0
 14 15  2  0
 15 16  1  0
 16 17  2  0
 19 20  2  0
  1 21  1  0
  1 22  1  0
  1 23  1  0
  4 24  1  0
  4 25  1  0
  5 26  1  0
  8 27  1  0
  9 28  1  0
 10 29  1  0
 13 30  1  0
 14 31  1  0
 15 32  1  0
 17 33  1  0
 18 34  1  0
 35 36  1  0
 36 37  1  0
 37 38  1  0
 38 39  1  0
 39 40  1  0
 40 41  1  0
 38 42  1  0
 42 43  1  0
 43 35  1  0
 36 44  1  0
 36 45  1  0
 37 46  1  0
 37 47  1  0
 39 48  1  0
 39 49  1  0
 40 50  1  0
 40 51  1  0
 41 52  1  0
 42 53  1  0
 42 54  1  0
 43 55  1  0
 43 56  1  0
  6 35  1  6
M  CHG  1   5   1
M  END
>  <attachment_point>  (232) 
26

>  <score>  (232) 
<NA>

$$$$
CAT-4j
     RDKit          3D

 49 52  0  0  1  0  0  0  0  0999 V2000
   11.7106   -2.3098    1.2658 C   0  0  0  0  0  0  0  0  0  0  0  0
   13.0313   -2.6523    0.7225 N   0  0  0  0  0  0  0  0  0  0  0  0
   14.2010   -2.6281    1.3773 C   0  0  0  0  0  0  0  0  0  0  0  0
   14.3777   -2.3568    2.6732 N   0  0  0  0  0  0  0  0  0  0  0  0
   15.2217   -2.9197    0.5738 N   0  0  0  0  0  0  0  0  0  0  0  0
   14.7965   -3.2519   -0.7875 C   0  0  1  0  0  0  0  0  0  0  0  0
   15.3794   -2.2443   -1.7949 C   0  0  0  0  0  0  0  0  0  0  0  0
   15.9522   -2.6550   -3.0208 C   0  0  0  0  0  0  0  0  0  0  0  0
   16.4340   -1.6937   -3.9273 C   0  0  0  0  0  0  0  0  0  0  0  0
   16.3364   -0.3224   -3.6308 C   0  0  0  0  0  0  0  0  0  0  0  0
   15.7943    0.1250   -2.4073 C   0  0  0  0  0  0  0  0  0  0  0  0
   15.6711    1.5693   -2.0915 C   0  0  0  0  0  0  0  0  0  0  0  0
   15.3832    2.0354   -0.7903 C   0  0  0  0  0  0  0  0  0  0  0  0
   15.3534    3.4188   -0.5357 C   0  0  0  0  0  0  0  0  0  0  0  0
   15.5968    4.3049   -1.5946 C   0  0  0  0  0  0  0  0  0  0  0  0
   15.8275    3.8920   -2.8511 N   0  0  0  0  0  0  0  0  0  0  0  0
   15.8598    2.5642   -3.0762 C   0  0  0  0  0  0  0  0  0  0  0  0
   15.3327   -0.8573   -1.5012 C   0  0  0  0  0  0  0  0  0  0  0  0
   13.2767   -3.0094   -0.6368 C   0  0  0  0  0  0  0  0  0  0  0  0
   12.3981   -3.0674   -1.5055 O   0  0  0  0  0  0  0  0  0  0  0  0
    0.0000    0.0000    0.0000 H   0  0  0  0  0  0  0  0  0  0  0  0
    0.0000    0.0000    0.0000 H   0  0  0  0  0  0  0  0  0  0  0  0
    0.0000    0.0000    0.0000 H   0  0  0  0  0  0  0  0  0  0  0  0
    0.0000    0.0000    0.0000 H   0  0  0  0  0  0  0  0  0  0  0  0
    0.0000    0.0000    0.0000 H   0  0  0  0  0  0  0  0  0  0  0  0
    0.0000    0.0000    0.0000 H   0  0  0  0  0  0  0  0  0  0  0  0
    0.0000    0.0000    0.0000 H   0  0  0  0  0  0  0  0  0  0  0  0
    0.0000    0.0000    0.0000 H   0  0  0  0  0  0  0  0  0  0  0  0
    0.0000    0.0000    0.0000 H   0  0  0  0  0  0  0  0  0  0  0  0
    0.0000    0.0000    0.0000 H   0  0  0  0  0  0  0  0  0  0  0  0
    0.0000    0.0000    0.0000 H   0  0  0  0  0  0  0  0  0  0  0  0
    0.0000    0.0000    0.0000 H   0  0  0  0  0  0  0  0  0  0  0  0
    0.0000    0.0000    0.0000 H   0  0  0  0  0  0  0  0  0  0  0  0
    0.0000    0.0000    0.0000 H   0  0  0  0  0  0  0  0  0  0  0  0
    6.9106   -1.5188   -0.3678 N   0  0  0  0  0  0  0  0  0  0  0  0
    6.4821   -2.6916    0.3681 C   0  0  0  0  0  0  0  0  0  0  0  0
    6.7736   -3.9459   -0.3390 C   0  0  0  0  0  0  0  0  0  0  0  0
    5.8407   -4.4801   -1.2074 C   0  0  0  0  0  0  0  0  0  0  0  0
    6.1658   -5.6534   -1.8406 C   0  0  0  0  0  0  0  0  0  0  0  0
    7.3705   -6.2985   -1.6383 C   0  0  0  0  0  0  0  0  0  0  0  0
    8.2635   -5.7605   -0.7888 N   0  0  0  0  0  0  0  0  0  0  0  0
    7.9811   -4.6101   -0.1483 C   0  0  0  0  0  0  0  0  0  0  0  0
    7.0860   -0.7059    0.2686 H   0  0  0  0  0  0  0  0  0  0  0  0
    6.9656   -2.6667    1.3770 H   0  0  0  0  0  0  0  0  0  0  0  0
    5.4083   -2.6048    0.5040 H   0  0  0  0  0  0  0  0  0  0  0  0
    4.8873   -3.9620   -1.3623 H   0  0  0  0  0  0  0  0  0  0  0  0
    5.4551   -6.0805   -2.5161 H   0  0  0  0  0  0  0  0  0  0  0  0
    7.6076   -7.2221   -2.1470 H   0  0  0  0  0  0  0  0  0  0  0  0
    8.7008   -4.1576    0.5493 H   0  0  0  0  0  0  0  0  0  0  0  0
  1  2  1  0
  2  3  1  0
  2 19  1  0
  3  4  1  0
  3  5  2  0
  5  6  1  0
  6  7  1  0
  6 19  1  0
  7  8  2  0
  7 18  1  0
  8  9  1  0
  9 10  2  0
 10 11  1  0
 11 12  1  0
 11 18  2  0
 12 13  2  0
 12 17  1  0
 13 14  1  0
 14 15  2  0
 15 16  1  0
 16 17  2  0
 19 20  2  0
  1 21  1  0
  1 22  1  0
  1 23  1  0
  4 24  1  0
  4 25  1  0
  5 26  1  0
  8 27  1  0
  9 28  1  0
 10 29  1  0
 13 30  1  0
 14 31  1  0
 15 32  1  0
 17 33  1  0
 18 34  1  0
 35 36  1  0
 36 37  1  0
 37 38  2  0
 38 39  1  0
 39 40  2  0
 40 41  1  0
 41 42  2  0
 42 37  1  0
 35 43  1  0
 36 44  1  0
 36 45  1  0
 38 46  1  0
 39 47  1  0
 40 48  1  0
 42 49  1  0
  6 35  1  6
M  CHG  1   5   1
M  END
>  <attachment_point>  (233) 
26

>  <score>  (233) 
<NA>

$$$$
CAT-4j
     RDKit          3D

 44 46  0  0  1  0  0  0  0  0999 V2000
   11.7106   -2.3098    1.2658 C   0  0  0  0  0  0  0  0  0  0  0  0
   13.0313   -2.6523    0.7225 N   0  0  0  0  0  0  0  0  0  0  0  0
   14.2010   -2.6281    1.3773 C   0  0  0  0  0  0  0  0  0  0  0  0
   14.3777   -2.3568    2.6732 N   0  0  0  0  0  0  0  0  0  0  0  0
   15.2217   -2.9197    0.5738 N   0  0  0  0  0  0  0  0  0  0  0  0
   14.7965   -3.2519   -0.7875 C   0  0  1  0  0  0  0  0  0  0  0  0
   15.3794   -2.2443   -1.7949 C   0  0  0  0  0  0  0  0  0  0  0  0
   15.9522   -2.6550   -3.0208 C   0  0  0  0  0  0  0  0  0  0  0  0
   16.4340   -1.6937   -3.9273 C   0  0  0  0  0  0  0  0  0  0  0  0
   16.3364   -0.3224   -3.6308 C   0  0  0  0  0  0  0  0  0  0  0  0
   15.7943    0.1250   -2.4073 C   0  0  0  0  0  0  0  0  0  0  0  0
   15.6711    1.5693   -2.0915 C   0  0  0  0  0  0  0  0  0  0  0  0
   15.3832    2.0354   -0.7903 C   0  0  0  0  0  0  0  0  0  0  0  0
   15.3534    3.4188   -0.5357 C   0  0  0  0  0  0  0  0  0  0  0  0
   15.5968    4.3049   -1.5946 C   0  0  0  0  0  0  0  0  0  0  0  0
   15.8275    3.8920   -2.8511 N   0  0  0  0  0  0  0  0  0  0  0  0
   15.8598    2.5642   -3.0762 C   0  0  0  0  0  0  0  0  0  0  0  0
   15.3327   -0.8573   -1.5012 C   0  0  0  0  0  0  0  0  0  0  0  0
   13.2767   -3.0094   -0.6368 C   0  0  0  0  0  0  0  0  0  0  0  0
   12.3981   -3.0674   -1.5055 O   0  0  0  0  0  0  0  0  0  0  0  0
    0.0000    0.0000    0.0000 H   0  0  0  0  0  0  0  0  0  0  0  0
    0.0000    0.0000    0.0000 H   0  0  0  0  0  0  0  0  0  0  0  0
    0.0000    0.0000    0.0000 H   0  0  0  0  0  0  0  0  0  0  0  0
    0.0000    0.0000    0.0000 H   0  0  0  0  0  0  0  0  0  0  0  0
    0.0000    0.0000    0.0000 H   0  0  0  0  0  0  0  0  0  0  0  0
    0.0000    0.0000    0.0000 H   0  0  0  0  0  0  0  0  0  0  0  0
    0.0000    0.0000    0.0000 H   0  0  0  0  0  0  0  0  0  0  0  0
    0.0000    0.0000    0.0000 H   0  0  0  0  0  0  0  0  0  0  0  0
    0.0000    0.0000    0.0000 H   0  0  0  0  0  0  0  0  0  0  0  0
    0.0000    0.0000    0.0000 H   0  0  0  0  0  0  0  0  0  0  0  0
    0.0000    0.0000    0.0000 H   0  0  0  0  0  0  0  0  0  0  0  0
    0.0000    0.0000    0.0000 H   0  0  0  0  0  0  0  0  0  0  0  0
    0.0000    0.0000    0.0000 H   0  0  0  0  0  0  0  0  0  0  0  0
    0.0000    0.0000    0.0000 H   0  0  0  0  0  0  0  0  0  0  0  0
    6.8996   -1.5164   -0.3672 C   0  0  0  0  0  0  0  0  0  0  0  0
    6.6197   -0.2578   -0.3338 C   0  0  0  0  0  0  0  0  0  0  0  0
    5.2547    0.2257   -0.2584 C   0  0  0  0  0  0  0  0  0  0  0  0
    4.3264   -0.6203   -0.2252 O   0  0  0  0  0  0  0  0  0  0  0  0
    4.9244    1.6095   -0.2206 N   0  0  0  0  0  0  0  0  0  0  0  0
    3.6360    1.9671   -0.1509 O   0  0  0  0  0  0  0  0  0  0  0  0
    6.2588   -2.3343   -0.3478 H   0  0  0  0  0  0  0  0  0  0  0  0
    7.4096    0.5098   -0.3614 H   0  0  0  0  0  0  0  0  0  0  0  0
    5.6933    2.2922   -0.2484 H   0  0  0  0  0  0  0  0  0  0  0  0
    3.1485    1.2712    0.3501 H   0  0  0  0  0  0  0  0  0  0  0  0
  1  2  1  0
  2  3  1  0
  2 19  1  0
  3  4  1  0
  3  5  2  0
  5  6  1  0
  6  7  1  1
  6 19  1  0
  7  8  2  0
  7 18  1  0
  8  9  1  0
  9 10  2  0
 10 11  1  0
 11 12  1  0
 11 18  2  0
 12 13  2  0
 12 17  1  0
 13 14  1  0
 14 15  2  0
 15 16  1  0
 16 17  2  0
 19 20  2  0
  1 21  1  0
  1 22  1  0
  1 23  1  0
  4 24  1  0
  4 25  1  0
  5 26  1  0
  8 27  1  0
  9 28  1  0
 10 29  1  0
 13 30  1  0
 14 31  1  0
 15 32  1  0
 17 33  1  0
 18 34  1  0
 35 36  2  3
 36 37  1  0
 37 38  2  0
 37 39  1  0
 39 40  1  0
 35 41  1  0
 36 42  1  0
 39 43  1  0
 40 44  1  0
  6 35  1  0
M  CHG  1   5   1
M  END
>  <attachment_point>  (234) 
26

>  <score>  (234) 
<NA>

$$$$
CAT-4j
     RDKit          3D

 49 51  0  0  1  0  0  0  0  0999 V2000
   11.7106   -2.3098    1.2658 C   0  0  0  0  0  0  0  0  0  0  0  0
   13.0313   -2.6523    0.7225 N   0  0  0  0  0  0  0  0  0  0  0  0
   14.2010   -2.6281    1.3773 C   0  0  0  0  0  0  0  0  0  0  0  0
   14.3777   -2.3568    2.6732 N   0  0  0  0  0  0  0  0  0  0  0  0
   15.2217   -2.9197    0.5738 N   0  0  0  0  0  0  0  0  0  0  0  0
   14.7965   -3.2519   -0.7875 C   0  0  1  0  0  0  0  0  0  0  0  0
   15.3794   -2.2443   -1.7949 C   0  0  0  0  0  0  0  0  0  0  0  0
   15.9522   -2.6550   -3.0208 C   0  0  0  0  0  0  0  0  0  0  0  0
   16.4340   -1.6937   -3.9273 C   0  0  0  0  0  0  0  0  0  0  0  0
   16.3364   -0.3224   -3.6308 C   0  0  0  0  0  0  0  0  0  0  0  0
   15.7943    0.1250   -2.4073 C   0  0  0  0  0  0  0  0  0  0  0  0
   15.6711    1.5693   -2.0915 C   0  0  0  0  0  0  0  0  0  0  0  0
   15.3832    2.0354   -0.7903 C   0  0  0  0  0  0  0  0  0  0  0  0
   15.3534    3.4188   -0.5357 C   0  0  0  0  0  0  0  0  0  0  0  0
   15.5968    4.3049   -1.5946 C   0  0  0  0  0  0  0  0  0  0  0  0
   15.8275    3.8920   -2.8511 N   0  0  0  0  0  0  0  0  0  0  0  0
   15.8598    2.5642   -3.0762 C   0  0  0  0  0  0  0  0  0  0  0  0
   15.3327   -0.8573   -1.5012 C   0  0  0  0  0  0  0  0  0  0  0  0
   13.2767   -3.0094   -0.6368 C   0  0  0  0  0  0  0  0  0  0  0  0
   12.3981   -3.0674   -1.5055 O   0  0  0  0  0  0  0  0  0  0  0  0
    0.0000    0.0000    0.0000 H   0  0  0  0  0  0  0  0  0  0  0  0
    0.0000    0.0000    0.0000 H   0  0  0  0  0  0  0  0  0  0  0  0
    0.0000    0.0000    0.0000 H   0  0  0  0  0  0  0  0  0  0  0  0
    0.0000    0.0000    0.0000 H   0  0  0  0  0  0  0  0  0  0  0  0
    0.0000    0.0000    0.0000 H   0  0  0  0  0  0  0  0  0  0  0  0
    0.0000    0.0000    0.0000 H   0  0  0  0  0  0  0  0  0  0  0  0
    0.0000    0.0000    0.0000 H   0  0  0  0  0  0  0  0  0  0  0  0
    0.0000    0.0000    0.0000 H   0  0  0  0  0  0  0  0  0  0  0  0
    0.0000    0.0000    0.0000 H   0  0  0  0  0  0  0  0  0  0  0  0
    0.0000    0.0000    0.0000 H   0  0  0  0  0  0  0  0  0  0  0  0
    0.0000    0.0000    0.0000 H   0  0  0  0  0  0  0  0  0  0  0  0
    0.0000    0.0000    0.0000 H   0  0  0  0  0  0  0  0  0  0  0  0
    0.0000    0.0000    0.0000 H   0  0  0  0  0  0  0  0  0  0  0  0
    0.0000    0.0000    0.0000 H   0  0  0  0  0  0  0  0  0  0  0  0
    6.9816   -1.5344   -0.3716 C   0  0  0  0  0  0  0  0  0  0  0  0
    6.5149   -0.6652    0.4083 O   0  0  0  0  0  0  0  0  0  0  0  0
    6.0526   -2.2217   -1.2003 N   0  0  0  0  0  0  0  0  0  0  0  0
    4.6429   -1.8928   -1.1064 C   0  0  0  0  0  0  0  0  0  0  0  0
    3.8541   -2.7516   -2.0812 C   0  0  0  0  0  0  0  0  0  0  0  0
    4.0474   -4.0751   -1.7576 O   0  0  0  0  0  0  0  0  0  0  0  0
    3.3781   -4.9520   -2.5764 C   0  0  0  0  0  0  0  0  0  0  0  0
    6.3630   -2.9659   -1.8826 H   0  0  0  0  0  0  0  0  0  0  0  0
    4.2520   -1.9761   -0.0891 H   0  0  0  0  0  0  0  0  0  0  0  0
    4.4853   -0.8360   -1.4466 H   0  0  0  0  0  0  0  0  0  0  0  0
    2.8065   -2.4441   -2.1508 H   0  0  0  0  0  0  0  0  0  0  0  0
    4.2920   -2.6014   -3.1025 H   0  0  0  0  0  0  0  0  0  0  0  0
    2.2779   -4.8092   -2.5637 H   0  0  0  0  0  0  0  0  0  0  0  0
    3.6175   -5.9866   -2.2420 H   0  0  0  0  0  0  0  0  0  0  0  0
    3.6969   -4.8917   -3.6468 H   0  0  0  0  0  0  0  0  0  0  0  0
  1  2  1  0
  2  3  1  0
  2 19  1  0
  3  4  1  0
  3  5  2  0
  5  6  1  0
  6  7  1  0
  6 19  1  0
  7  8  2  0
  7 18  1  0
  8  9  1  0
  9 10  2  0
 10 11  1  0
 11 12  1  0
 11 18  2  0
 12 13  2  0
 12 17  1  0
 13 14  1  0
 14 15  2  0
 15 16  1  0
 16 17  2  0
 19 20  2  0
  1 21  1  0
  1 22  1  0
  1 23  1  0
  4 24  1  0
  4 25  1  0
  5 26  1  0
  8 27  1  0
  9 28  1  0
 10 29  1  0
 13 30  1  0
 14 31  1  0
 15 32  1  0
 17 33  1  0
 18 34  1  0
 35 36  2  0
 35 37  1  0
 37 38  1  0
 38 39  1  0
 39 40  1  0
 40 41  1  0
 37 42  1  0
 38 43  1  0
 38 44  1  0
 39 45  1  0
 39 46  1  0
 41 47  1  0
 41 48  1  0
 41 49  1  0
  6 35  1  6
M  CHG  1   5   1
M  END
>  <attachment_point>  (235) 
26

>  <score>  (235) 
<NA>

$$$$
CAT-4j
     RDKit          3D

 43 46  0  0  1  0  0  0  0  0999 V2000
   11.7106   -2.3098    1.2658 C   0  0  0  0  0  0  0  0  0  0  0  0
   13.0313   -2.6523    0.7225 N   0  0  0  0  0  0  0  0  0  0  0  0
   14.2010   -2.6281    1.3773 C   0  0  0  0  0  0  0  0  0  0  0  0
   14.3777   -2.3568    2.6732 N   0  0  0  0  0  0  0  0  0  0  0  0
   15.2217   -2.9197    0.5738 N   0  0  0  0  0  0  0  0  0  0  0  0
   14.7965   -3.2519   -0.7875 C   0  0  1  0  0  0  0  0  0  0  0  0
   15.3794   -2.2443   -1.7949 C   0  0  0  0  0  0  0  0  0  0  0  0
   15.9522   -2.6550   -3.0208 C   0  0  0  0  0  0  0  0  0  0  0  0
   16.4340   -1.6937   -3.9273 C   0  0  0  0  0  0  0  0  0  0  0  0
   16.3364   -0.3224   -3.6308 C   0  0  0  0  0  0  0  0  0  0  0  0
   15.7943    0.1250   -2.4073 C   0  0  0  0  0  0  0  0  0  0  0  0
   15.6711    1.5693   -2.0915 C   0  0  0  0  0  0  0  0  0  0  0  0
   15.3832    2.0354   -0.7903 C   0  0  0  0  0  0  0  0  0  0  0  0
   15.3534    3.4188   -0.5357 C   0  0  0  0  0  0  0  0  0  0  0  0
   15.5968    4.3049   -1.5946 C   0  0  0  0  0  0  0  0  0  0  0  0
   15.8275    3.8920   -2.8511 N   0  0  0  0  0  0  0  0  0  0  0  0
   15.8598    2.5642   -3.0762 C   0  0  0  0  0  0  0  0  0  0  0  0
   15.3327   -0.8573   -1.5012 C   0  0  0  0  0  0  0  0  0  0  0  0
   13.2767   -3.0094   -0.6368 C   0  0  0  0  0  0  0  0  0  0  0  0
   12.3981   -3.0674   -1.5055 O   0  0  0  0  0  0  0  0  0  0  0  0
    0.0000    0.0000    0.0000 H   0  0  0  0  0  0  0  0  0  0  0  0
    0.0000    0.0000    0.0000 H   0  0  0  0  0  0  0  0  0  0  0  0
    0.0000    0.0000    0.0000 H   0  0  0  0  0  0  0  0  0  0  0  0
    0.0000    0.0000    0.0000 H   0  0  0  0  0  0  0  0  0  0  0  0
    0.0000    0.0000    0.0000 H   0  0  0  0  0  0  0  0  0  0  0  0
    0.0000    0.0000    0.0000 H   0  0  0  0  0  0  0  0  0  0  0  0
    0.0000    0.0000    0.0000 H   0  0  0  0  0  0  0  0  0  0  0  0
    0.0000    0.0000    0.0000 H   0  0  0  0  0  0  0  0  0  0  0  0
    0.0000    0.0000    0.0000 H   0  0  0  0  0  0  0  0  0  0  0  0
    0.0000    0.0000    0.0000 H   0  0  0  0  0  0  0  0  0  0  0  0
    0.0000    0.0000    0.0000 H   0  0  0  0  0  0  0  0  0  0  0  0
    0.0000    0.0000    0.0000 H   0  0  0  0  0  0  0  0  0  0  0  0
    0.0000    0.0000    0.0000 H   0  0  0  0  0  0  0  0  0  0  0  0
    0.0000    0.0000    0.0000 H   0  0  0  0  0  0  0  0  0  0  0  0
    6.9708   -1.5320   -0.3710 C   0  0  0  0  0  0  0  0  0  0  0  0
    6.0793   -2.0956   -1.2543 C   0  0  0  0  0  0  0  0  0  0  0  0
    4.7478   -1.7702   -1.1430 C   0  0  0  0  0  0  0  0  0  0  0  0
    4.3148   -0.9048   -0.1758 N   0  0  0  0  0  0  0  0  0  0  0  0
    5.2035   -0.3702    0.6713 C   0  0  0  0  0  0  0  0  0  0  0  0
    6.4952   -0.6806    0.5699 N   0  0  0  0  0  0  0  0  0  0  0  0
    6.4230   -2.7845   -2.0243 H   0  0  0  0  0  0  0  0  0  0  0  0
    4.0311   -2.1978   -1.8218 H   0  0  0  0  0  0  0  0  0  0  0  0
    4.8688    0.3062    1.4280 H   0  0  0  0  0  0  0  0  0  0  0  0
  1  2  1  0
  2  3  1  0
  2 19  1  0
  3  4  1  0
  3  5  2  0
  5  6  1  0
  6  7  1  1
  6 19  1  0
  7  8  2  0
  7 18  1  0
  8  9  1  0
  9 10  2  0
 10 11  1  0
 11 12  1  0
 11 18  2  0
 12 13  2  0
 12 17  1  0
 13 14  1  0
 14 15  2  0
 15 16  1  0
 16 17  2  0
 19 20  2  0
  1 21  1  0
  1 22  1  0
  1 23  1  0
  4 24  1  0
  4 25  1  0
  5 26  1  0
  8 27  1  0
  9 28  1  0
 10 29  1  0
 13 30  1  0
 14 31  1  0
 15 32  1  0
 17 33  1  0
 18 34  1  0
 35 36  2  0
 36 37  1  0
 37 38  2  0
 38 39  1  0
 39 40  2  0
 40 35  1  0
 36 41  1  0
 37 42  1  0
 39 43  1  0
  6 35  1  0
M  CHG  1   5   1
M  END
>  <attachment_point>  (236) 
26

>  <score>  (236) 
<NA>

$$$$
CAT-4j
     RDKit          3D

 45 48  0  0  1  0  0  0  0  0999 V2000
   11.7106   -2.3098    1.2658 C   0  0  0  0  0  0  0  0  0  0  0  0
   13.0313   -2.6523    0.7225 N   0  0  0  0  0  0  0  0  0  0  0  0
   14.2010   -2.6281    1.3773 C   0  0  0  0  0  0  0  0  0  0  0  0
   14.3777   -2.3568    2.6732 N   0  0  0  0  0  0  0  0  0  0  0  0
   15.2217   -2.9197    0.5738 N   0  0  0  0  0  0  0  0  0  0  0  0
   14.7965   -3.2519   -0.7875 C   0  0  1  0  0  0  0  0  0  0  0  0
   15.3794   -2.2443   -1.7949 C   0  0  0  0  0  0  0  0  0  0  0  0
   15.9522   -2.6550   -3.0208 C   0  0  0  0  0  0  0  0  0  0  0  0
   16.4340   -1.6937   -3.9273 C   0  0  0  0  0  0  0  0  0  0  0  0
   16.3364   -0.3224   -3.6308 C   0  0  0  0  0  0  0  0  0  0  0  0
   15.7943    0.1250   -2.4073 C   0  0  0  0  0  0  0  0  0  0  0  0
   15.6711    1.5693   -2.0915 C   0  0  0  0  0  0  0  0  0  0  0  0
   15.3832    2.0354   -0.7903 C   0  0  0  0  0  0  0  0  0  0  0  0
   15.3534    3.4188   -0.5357 C   0  0  0  0  0  0  0  0  0  0  0  0
   15.5968    4.3049   -1.5946 C   0  0  0  0  0  0  0  0  0  0  0  0
   15.8275    3.8920   -2.8511 N   0  0  0  0  0  0  0  0  0  0  0  0
   15.8598    2.5642   -3.0762 C   0  0  0  0  0  0  0  0  0  0  0  0
   15.3327   -0.8573   -1.5012 C   0  0  0  0  0  0  0  0  0  0  0  0
   13.2767   -3.0094   -0.6368 C   0  0  0  0  0  0  0  0  0  0  0  0
   12.3981   -3.0674   -1.5055 O   0  0  0  0  0  0  0  0  0  0  0  0
    0.0000    0.0000    0.0000 H   0  0  0  0  0  0  0  0  0  0  0  0
    0.0000    0.0000    0.0000 H   0  0  0  0  0  0  0  0  0  0  0  0
    0.0000    0.0000    0.0000 H   0  0  0  0  0  0  0  0  0  0  0  0
    0.0000    0.0000    0.0000 H   0  0  0  0  0  0  0  0  0  0  0  0
    0.0000    0.0000    0.0000 H   0  0  0  0  0  0  0  0  0  0  0  0
    0.0000    0.0000    0.0000 H   0  0  0  0  0  0  0  0  0  0  0  0
    0.0000    0.0000    0.0000 H   0  0  0  0  0  0  0  0  0  0  0  0
    0.0000    0.0000    0.0000 H   0  0  0  0  0  0  0  0  0  0  0  0
    0.0000    0.0000    0.0000 H   0  0  0  0  0  0  0  0  0  0  0  0
    0.0000    0.0000    0.0000 H   0  0  0  0  0  0  0  0  0  0  0  0
    0.0000    0.0000    0.0000 H   0  0  0  0  0  0  0  0  0  0  0  0
    0.0000    0.0000    0.0000 H   0  0  0  0  0  0  0  0  0  0  0  0
    0.0000    0.0000    0.0000 H   0  0  0  0  0  0  0  0  0  0  0  0
    0.0000    0.0000    0.0000 H   0  0  0  0  0  0  0  0  0  0  0  0
    6.9966   -1.5377   -0.3724 C   0  0  0  0  0  0  0  0  0  0  0  0
    6.7735   -0.0502   -0.4967 C   0  0  0  0  0  0  0  0  0  0  0  0
    6.5709    0.6800   -1.6189 C   0  0  0  0  0  0  0  0  0  0  0  0
    6.3934    1.9979   -1.4986 C   0  0  0  0  0  0  0  0  0  0  0  0
    6.4295    2.5203   -0.2332 C   0  0  0  0  0  0  0  0  0  0  0  0
    6.7103    1.1481    0.7363 S   0  0  0  0  0  0  0  0  0  0  0  0
    6.5914   -1.8352    0.6395 H   0  0  0  0  0  0  0  0  0  0  0  0
    6.3926   -2.0267   -1.1649 H   0  0  0  0  0  0  0  0  0  0  0  0
    6.5587    0.1635   -2.6012 H   0  0  0  0  0  0  0  0  0  0  0  0
    6.2203    2.6890   -2.3482 H   0  0  0  0  0  0  0  0  0  0  0  0
    6.3096    3.5623    0.0950 H   0  0  0  0  0  0  0  0  0  0  0  0
  1  2  1  0
  2  3  1  0
  2 19  1  0
  3  4  1  0
  3  5  2  0
  5  6  1  0
  6  7  1  0
  6 19  1  0
  7  8  2  0
  7 18  1  0
  8  9  1  0
  9 10  2  0
 10 11  1  0
 11 12  1  0
 11 18  2  0
 12 13  2  0
 12 17  1  0
 13 14  1  0
 14 15  2  0
 15 16  1  0
 16 17  2  0
 19 20  2  0
  1 21  1  0
  1 22  1  0
  1 23  1  0
  4 24  1  0
  4 25  1  0
  5 26  1  0
  8 27  1  0
  9 28  1  0
 10 29  1  0
 13 30  1  0
 14 31  1  0
 15 32  1  0
 17 33  1  0
 18 34  1  0
 35 36  1  0
 36 37  2  0
 37 38  1  0
 38 39  2  0
 39 40  1  0
 40 36  1  0
 35 41  1  0
 35 42  1  0
 37 43  1  0
 38 44  1  0
 39 45  1  0
  6 35  1  6
M  CHG  1   5   1
M  END
>  <attachment_point>  (237) 
26

>  <score>  (237) 
<NA>

$$$$
CAT-4j
     RDKit          3D

 57 60  0  0  1  0  0  0  0  0999 V2000
   11.7106   -2.3098    1.2658 C   0  0  0  0  0  0  0  0  0  0  0  0
   13.0313   -2.6523    0.7225 N   0  0  0  0  0  0  0  0  0  0  0  0
   14.2010   -2.6281    1.3773 C   0  0  0  0  0  0  0  0  0  0  0  0
   14.3777   -2.3568    2.6732 N   0  0  0  0  0  0  0  0  0  0  0  0
   15.2217   -2.9197    0.5738 N   0  0  0  0  0  0  0  0  0  0  0  0
   14.7965   -3.2519   -0.7875 C   0  0  1  0  0  0  0  0  0  0  0  0
   15.3794   -2.2443   -1.7949 C   0  0  0  0  0  0  0  0  0  0  0  0
   15.9522   -2.6550   -3.0208 C   0  0  0  0  0  0  0  0  0  0  0  0
   16.4340   -1.6937   -3.9273 C   0  0  0  0  0  0  0  0  0  0  0  0
   16.3364   -0.3224   -3.6308 C   0  0  0  0  0  0  0  0  0  0  0  0
   15.7943    0.1250   -2.4073 C   0  0  0  0  0  0  0  0  0  0  0  0
   15.6711    1.5693   -2.0915 C   0  0  0  0  0  0  0  0  0  0  0  0
   15.3832    2.0354   -0.7903 C   0  0  0  0  0  0  0  0  0  0  0  0
   15.3534    3.4188   -0.5357 C   0  0  0  0  0  0  0  0  0  0  0  0
   15.5968    4.3049   -1.5946 C   0  0  0  0  0  0  0  0  0  0  0  0
   15.8275    3.8920   -2.8511 N   0  0  0  0  0  0  0  0  0  0  0  0
   15.8598    2.5642   -3.0762 C   0  0  0  0  0  0  0  0  0  0  0  0
   15.3327   -0.8573   -1.5012 C   0  0  0  0  0  0  0  0  0  0  0  0
   13.2767   -3.0094   -0.6368 C   0  0  0  0  0  0  0  0  0  0  0  0
   12.3981   -3.0674   -1.5055 O   0  0  0  0  0  0  0  0  0  0  0  0
    0.0000    0.0000    0.0000 H   0  0  0  0  0  0  0  0  0  0  0  0
    0.0000    0.0000    0.0000 H   0  0  0  0  0  0  0  0  0  0  0  0
    0.0000    0.0000    0.0000 H   0  0  0  0  0  0  0  0  0  0  0  0
    0.0000    0.0000    0.0000 H   0  0  0  0  0  0  0  0  0  0  0  0
    0.0000    0.0000    0.0000 H   0  0  0  0  0  0  0  0  0  0  0  0
    0.0000    0.0000    0.0000 H   0  0  0  0  0  0  0  0  0  0  0  0
    0.0000    0.0000    0.0000 H   0  0  0  0  0  0  0  0  0  0  0  0
    0.0000    0.0000    0.0000 H   0  0  0  0  0  0  0  0  0  0  0  0
    0.0000    0.0000    0.0000 H   0  0  0  0  0  0  0  0  0  0  0  0
    0.0000    0.0000    0.0000 H   0  0  0  0  0  0  0  0  0  0  0  0
    0.0000    0.0000    0.0000 H   0  0  0  0  0  0  0  0  0  0  0  0
    0.0000    0.0000    0.0000 H   0  0  0  0  0  0  0  0  0  0  0  0
    0.0000    0.0000    0.0000 H   0  0  0  0  0  0  0  0  0  0  0  0
    0.0000    0.0000    0.0000 H   0  0  0  0  0  0  0  0  0  0  0  0
    6.9736   -1.5326   -0.3711 C   0  0  0  0  0  0  0  0  0  0  0  0
    6.5128   -0.2383   -0.3211 C   0  0  0  0  0  0  0  0  0  0  0  0
    5.1574   -0.0373   -0.2510 C   0  0  0  0  0  0  0  0  0  0  0  0
    4.2853   -1.1257   -0.2319 C   0  0  0  0  0  0  0  0  0  0  0  0
    2.8409   -0.7934   -0.1545 C   0  0  0  0  0  0  0  0  0  0  0  0
    1.9763   -2.0198   -0.1387 C   0  0  0  0  0  0  0  0  0  0  0  0
    2.5075   -0.0101   -1.4169 C   0  0  0  0  0  0  0  0  0  0  0  0
    2.6048    0.0367    1.0659 C   0  0  0  0  0  0  0  0  0  0  0  0
    4.7790   -2.4022   -0.2831 C   0  0  0  0  0  0  0  0  0  0  0  0
    6.1394   -2.6325   -0.3542 C   0  0  0  0  0  0  0  0  0  0  0  0
    7.2191    0.5730   -0.3380 H   0  0  0  0  0  0  0  0  0  0  0  0
    4.7718    0.9926   -0.2101 H   0  0  0  0  0  0  0  0  0  0  0  0
    2.1734   -2.7077   -0.9605 H   0  0  0  0  0  0  0  0  0  0  0  0
    0.9157   -1.6597   -0.2825 H   0  0  0  0  0  0  0  0  0  0  0  0
    1.9670   -2.5233    0.8674 H   0  0  0  0  0  0  0  0  0  0  0  0
    3.4079    0.5420   -1.7307 H   0  0  0  0  0  0  0  0  0  0  0  0
    2.1361   -0.7146   -2.1704 H   0  0  0  0  0  0  0  0  0  0  0  0
    1.7227    0.7121   -1.1357 H   0  0  0  0  0  0  0  0  0  0  0  0
    1.9530    0.9043    0.7541 H   0  0  0  0  0  0  0  0  0  0  0  0
    3.5360    0.4504    1.5047 H   0  0  0  0  0  0  0  0  0  0  0  0
    1.9985   -0.5164    1.8272 H   0  0  0  0  0  0  0  0  0  0  0  0
    4.0592   -3.2160   -0.2656 H   0  0  0  0  0  0  0  0  0  0  0  0
    6.5236   -3.6420   -0.3944 H   0  0  0  0  0  0  0  0  0  0  0  0
  1  2  1  0
  2  3  1  0
  2 19  1  0
  3  4  1  0
  3  5  2  0
  5  6  1  0
  6  7  1  1
  6 19  1  0
  7  8  2  0
  7 18  1  0
  8  9  1  0
  9 10  2  0
 10 11  1  0
 11 12  1  0
 11 18  2  0
 12 13  2  0
 12 17  1  0
 13 14  1  0
 14 15  2  0
 15 16  1  0
 16 17  2  0
 19 20  2  0
  1 21  1  0
  1 22  1  0
  1 23  1  0
  4 24  1  0
  4 25  1  0
  5 26  1  0
  8 27  1  0
  9 28  1  0
 10 29  1  0
 13 30  1  0
 14 31  1  0
 15 32  1  0
 17 33  1  0
 18 34  1  0
 35 36  2  0
 36 37  1  0
 37 38  2  0
 38 39  1  0
 39 40  1  0
 39 41  1  0
 39 42  1  0
 38 43  1  0
 43 44  2  0
 44 35  1  0
 36 45  1  0
 37 46  1  0
 40 47  1  0
 40 48  1  0
 40 49  1  0
 41 50  1  0
 41 51  1  0
 41 52  1  0
 42 53  1  0
 42 54  1  0
 42 55  1  0
 43 56  1  0
 44 57  1  0
  6 35  1  0
M  CHG  1   5   1
M  END
>  <attachment_point>  (238) 
26

>  <score>  (238) 
<NA>

$$$$
CAT-4j
     RDKit          3D

 45 48  0  0  1  0  0  0  0  0999 V2000
   11.7106   -2.3098    1.2658 C   0  0  0  0  0  0  0  0  0  0  0  0
   13.0313   -2.6523    0.7225 N   0  0  0  0  0  0  0  0  0  0  0  0
   14.2010   -2.6281    1.3773 C   0  0  0  0  0  0  0  0  0  0  0  0
   14.3777   -2.3568    2.6732 N   0  0  0  0  0  0  0  0  0  0  0  0
   15.2217   -2.9197    0.5738 N   0  0  0  0  0  0  0  0  0  0  0  0
   14.7965   -3.2519   -0.7875 C   0  0  1  0  0  0  0  0  0  0  0  0
   15.3794   -2.2443   -1.7949 C   0  0  0  0  0  0  0  0  0  0  0  0
   15.9522   -2.6550   -3.0208 C   0  0  0  0  0  0  0  0  0  0  0  0
   16.4340   -1.6937   -3.9273 C   0  0  0  0  0  0  0  0  0  0  0  0
   16.3364   -0.3224   -3.6308 C   0  0  0  0  0  0  0  0  0  0  0  0
   15.7943    0.1250   -2.4073 C   0  0  0  0  0  0  0  0  0  0  0  0
   15.6711    1.5693   -2.0915 C   0  0  0  0  0  0  0  0  0  0  0  0
   15.3832    2.0354   -0.7903 C   0  0  0  0  0  0  0  0  0  0  0  0
   15.3534    3.4188   -0.5357 C   0  0  0  0  0  0  0  0  0  0  0  0
   15.5968    4.3049   -1.5946 C   0  0  0  0  0  0  0  0  0  0  0  0
   15.8275    3.8920   -2.8511 N   0  0  0  0  0  0  0  0  0  0  0  0
   15.8598    2.5642   -3.0762 C   0  0  0  0  0  0  0  0  0  0  0  0
   15.3327   -0.8573   -1.5012 C   0  0  0  0  0  0  0  0  0  0  0  0
   13.2767   -3.0094   -0.6368 C   0  0  0  0  0  0  0  0  0  0  0  0
   12.3981   -3.0674   -1.5055 O   0  0  0  0  0  0  0  0  0  0  0  0
    0.0000    0.0000    0.0000 H   0  0  0  0  0  0  0  0  0  0  0  0
    0.0000    0.0000    0.0000 H   0  0  0  0  0  0  0  0  0  0  0  0
    0.0000    0.0000    0.0000 H   0  0  0  0  0  0  0  0  0  0  0  0
    0.0000    0.0000    0.0000 H   0  0  0  0  0  0  0  0  0  0  0  0
    0.0000    0.0000    0.0000 H   0  0  0  0  0  0  0  0  0  0  0  0
    0.0000    0.0000    0.0000 H   0  0  0  0  0  0  0  0  0  0  0  0
    0.0000    0.0000    0.0000 H   0  0  0  0  0  0  0  0  0  0  0  0
    0.0000    0.0000    0.0000 H   0  0  0  0  0  0  0  0  0  0  0  0
    0.0000    0.0000    0.0000 H   0  0  0  0  0  0  0  0  0  0  0  0
    0.0000    0.0000    0.0000 H   0  0  0  0  0  0  0  0  0  0  0  0
    0.0000    0.0000    0.0000 H   0  0  0  0  0  0  0  0  0  0  0  0
    0.0000    0.0000    0.0000 H   0  0  0  0  0  0  0  0  0  0  0  0
    0.0000    0.0000    0.0000 H   0  0  0  0  0  0  0  0  0  0  0  0
    0.0000    0.0000    0.0000 H   0  0  0  0  0  0  0  0  0  0  0  0
    6.9460   -1.5266   -0.3697 C   0  0  0  0  0  0  0  0  0  0  0  0
    6.4986   -0.2644   -0.6214 C   0  0  0  0  0  0  0  0  0  0  0  0
    5.1436    0.0502   -0.5531 C   0  0  0  0  0  0  0  0  0  0  0  0
    4.2380   -0.9369   -0.2240 C   0  0  0  0  0  0  0  0  0  0  0  0
    4.6819   -2.2192    0.0328 C   0  0  0  0  0  0  0  0  0  0  0  0
    3.4962   -3.6355    0.4931 Br  0  0  0  0  0  0  0  0  0  0  0  0
    6.0422   -2.4979   -0.0444 C   0  0  0  0  0  0  0  0  0  0  0  0
    7.1752    0.5323   -0.8813 H   0  0  0  0  0  0  0  0  0  0  0  0
    4.7702    1.0397   -0.7482 H   0  0  0  0  0  0  0  0  0  0  0  0
    3.1767   -0.6944   -0.1697 H   0  0  0  0  0  0  0  0  0  0  0  0
    6.4334   -3.4932    0.1499 H   0  0  0  0  0  0  0  0  0  0  0  0
  1  2  1  0
  2  3  1  0
  2 19  1  0
  3  4  1  0
  3  5  2  0
  5  6  1  0
  6  7  1  1
  6 19  1  0
  7  8  2  0
  7 18  1  0
  8  9  1  0
  9 10  2  0
 10 11  1  0
 11 12  1  0
 11 18  2  0
 12 13  2  0
 12 17  1  0
 13 14  1  0
 14 15  2  0
 15 16  1  0
 16 17  2  0
 19 20  2  0
  1 21  1  0
  1 22  1  0
  1 23  1  0
  4 24  1  0
  4 25  1  0
  5 26  1  0
  8 27  1  0
  9 28  1  0
 10 29  1  0
 13 30  1  0
 14 31  1  0
 15 32  1  0
 17 33  1  0
 18 34  1  0
 35 36  2  0
 36 37  1  0
 37 38  2  0
 38 39  1  0
 39 40  1  0
 39 41  2  0
 41 35  1  0
 36 42  1  0
 37 43  1  0
 38 44  1  0
 41 45  1  0
  6 35  1  0
M  CHG  1   5   1
M  END
>  <attachment_point>  (239) 
26

>  <score>  (239) 
<NA>

$$$$
CAT-4j
     RDKit          3D

 55 58  0  0  1  0  0  0  0  0999 V2000
   11.7106   -2.3098    1.2658 C   0  0  0  0  0  0  0  0  0  0  0  0
   13.0313   -2.6523    0.7225 N   0  0  0  0  0  0  0  0  0  0  0  0
   14.2010   -2.6281    1.3773 C   0  0  0  0  0  0  0  0  0  0  0  0
   14.3777   -2.3568    2.6732 N   0  0  0  0  0  0  0  0  0  0  0  0
   15.2217   -2.9197    0.5738 N   0  0  0  0  0  0  0  0  0  0  0  0
   14.7965   -3.2519   -0.7875 C   0  0  1  0  0  0  0  0  0  0  0  0
   15.3794   -2.2443   -1.7949 C   0  0  0  0  0  0  0  0  0  0  0  0
   15.9522   -2.6550   -3.0208 C   0  0  0  0  0  0  0  0  0  0  0  0
   16.4340   -1.6937   -3.9273 C   0  0  0  0  0  0  0  0  0  0  0  0
   16.3364   -0.3224   -3.6308 C   0  0  0  0  0  0  0  0  0  0  0  0
   15.7943    0.1250   -2.4073 C   0  0  0  0  0  0  0  0  0  0  0  0
   15.6711    1.5693   -2.0915 C   0  0  0  0  0  0  0  0  0  0  0  0
   15.3832    2.0354   -0.7903 C   0  0  0  0  0  0  0  0  0  0  0  0
   15.3534    3.4188   -0.5357 C   0  0  0  0  0  0  0  0  0  0  0  0
   15.5968    4.3049   -1.5946 C   0  0  0  0  0  0  0  0  0  0  0  0
   15.8275    3.8920   -2.8511 N   0  0  0  0  0  0  0  0  0  0  0  0
   15.8598    2.5642   -3.0762 C   0  0  0  0  0  0  0  0  0  0  0  0
   15.3327   -0.8573   -1.5012 C   0  0  0  0  0  0  0  0  0  0  0  0
   13.2767   -3.0094   -0.6368 C   0  0  0  0  0  0  0  0  0  0  0  0
   12.3981   -3.0674   -1.5055 O   0  0  0  0  0  0  0  0  0  0  0  0
    0.0000    0.0000    0.0000 H   0  0  0  0  0  0  0  0  0  0  0  0
    0.0000    0.0000    0.0000 H   0  0  0  0  0  0  0  0  0  0  0  0
    0.0000    0.0000    0.0000 H   0  0  0  0  0  0  0  0  0  0  0  0
    0.0000    0.0000    0.0000 H   0  0  0  0  0  0  0  0  0  0  0  0
    0.0000    0.0000    0.0000 H   0  0  0  0  0  0  0  0  0  0  0  0
    0.0000    0.0000    0.0000 H   0  0  0  0  0  0  0  0  0  0  0  0
    0.0000    0.0000    0.0000 H   0  0  0  0  0  0  0  0  0  0  0  0
    0.0000    0.0000    0.0000 H   0  0  0  0  0  0  0  0  0  0  0  0
    0.0000    0.0000    0.0000 H   0  0  0  0  0  0  0  0  0  0  0  0
    0.0000    0.0000    0.0000 H   0  0  0  0  0  0  0  0  0  0  0  0
    0.0000    0.0000    0.0000 H   0  0  0  0  0  0  0  0  0  0  0  0
    0.0000    0.0000    0.0000 H   0  0  0  0  0  0  0  0  0  0  0  0
    0.0000    0.0000    0.0000 H   0  0  0  0  0  0  0  0  0  0  0  0
    0.0000    0.0000    0.0000 H   0  0  0  0  0  0  0  0  0  0  0  0
    6.9323   -1.5235   -0.3689 N   0  0  0  0  0  0  0  0  0  0  0  0
    6.6107   -0.1904   -0.0829 C   0  0  0  0  0  0  0  0  0  0  0  0
    7.5856    0.6191    0.0832 O   0  0  0  0  0  0  0  0  0  0  0  0
    5.1972    0.2654    0.0232 C   0  0  0  0  0  0  0  0  0  0  0  0
    4.4279    0.0464   -1.2475 C   0  0  0  0  0  0  0  0  0  0  0  0
    3.0440    0.5996   -1.0672 C   0  0  0  0  0  0  0  0  0  0  0  0
    2.7534    1.0596    0.3268 C   0  0  0  0  0  0  0  0  0  0  0  0
    3.1212    0.0375    1.3645 C   0  0  0  0  0  0  0  0  0  0  0  0
    4.5493   -0.3839    1.2163 C   0  0  0  0  0  0  0  0  0  0  0  0
    6.2969   -2.2788   -0.5258 H   0  0  0  0  0  0  0  0  0  0  0  0
    5.2186    1.3583    0.2136 H   0  0  0  0  0  0  0  0  0  0  0  0
    4.4555   -0.9876   -1.6170 H   0  0  0  0  0  0  0  0  0  0  0  0
    4.9274    0.6706   -2.0351 H   0  0  0  0  0  0  0  0  0  0  0  0
    2.8382    1.4709   -1.7467 H   0  0  0  0  0  0  0  0  0  0  0  0
    2.2863   -0.1762   -1.3790 H   0  0  0  0  0  0  0  0  0  0  0  0
    3.2817    2.0050    0.5470 H   0  0  0  0  0  0  0  0  0  0  0  0
    1.6604    1.2359    0.4078 H   0  0  0  0  0  0  0  0  0  0  0  0
    2.8952    0.4907    2.3640 H   0  0  0  0  0  0  0  0  0  0  0  0
    2.4114   -0.8243    1.2669 H   0  0  0  0  0  0  0  0  0  0  0  0
    4.6166   -1.4905    1.1880 H   0  0  0  0  0  0  0  0  0  0  0  0
    5.0973   -0.0513    2.1244 H   0  0  0  0  0  0  0  0  0  0  0  0
  1  2  1  0
  2  3  1  0
  2 19  1  0
  3  4  1  0
  3  5  2  0
  5  6  1  0
  6  7  1  0
  6 19  1  0
  7  8  2  0
  7 18  1  0
  8  9  1  0
  9 10  2  0
 10 11  1  0
 11 12  1  0
 11 18  2  0
 12 13  2  0
 12 17  1  0
 13 14  1  0
 14 15  2  0
 15 16  1  0
 16 17  2  0
 19 20  2  0
  1 21  1  0
  1 22  1  0
  1 23  1  0
  4 24  1  0
  4 25  1  0
  5 26  1  0
  8 27  1  0
  9 28  1  0
 10 29  1  0
 13 30  1  0
 14 31  1  0
 15 32  1  0
 17 33  1  0
 18 34  1  0
 35 36  1  0
 36 37  2  0
 36 38  1  0
 38 39  1  0
 39 40  1  0
 40 41  1  0
 41 42  1  0
 42 43  1  0
 43 38  1  0
 35 44  1  0
 38 45  1  0
 39 46  1  0
 39 47  1  0
 40 48  1  0
 40 49  1  0
 41 50  1  0
 41 51  1  0
 42 52  1  0
 42 53  1  0
 43 54  1  0
 43 55  1  0
  6 35  1  6
M  CHG  1   5   1
M  END
>  <attachment_point>  (240) 
26

>  <score>  (240) 
<NA>

$$$$
CAT-4j
     RDKit          3D

 46 49  0  0  1  0  0  0  0  0999 V2000
   11.7106   -2.3098    1.2658 C   0  0  0  0  0  0  0  0  0  0  0  0
   13.0313   -2.6523    0.7225 N   0  0  0  0  0  0  0  0  0  0  0  0
   14.2010   -2.6281    1.3773 C   0  0  0  0  0  0  0  0  0  0  0  0
   14.3777   -2.3568    2.6732 N   0  0  0  0  0  0  0  0  0  0  0  0
   15.2217   -2.9197    0.5738 N   0  0  0  0  0  0  0  0  0  0  0  0
   14.7965   -3.2519   -0.7875 C   0  0  1  0  0  0  0  0  0  0  0  0
   15.3794   -2.2443   -1.7949 C   0  0  0  0  0  0  0  0  0  0  0  0
   15.9522   -2.6550   -3.0208 C   0  0  0  0  0  0  0  0  0  0  0  0
   16.4340   -1.6937   -3.9273 C   0  0  0  0  0  0  0  0  0  0  0  0
   16.3364   -0.3224   -3.6308 C   0  0  0  0  0  0  0  0  0  0  0  0
   15.7943    0.1250   -2.4073 C   0  0  0  0  0  0  0  0  0  0  0  0
   15.6711    1.5693   -2.0915 C   0  0  0  0  0  0  0  0  0  0  0  0
   15.3832    2.0354   -0.7903 C   0  0  0  0  0  0  0  0  0  0  0  0
   15.3534    3.4188   -0.5357 C   0  0  0  0  0  0  0  0  0  0  0  0
   15.5968    4.3049   -1.5946 C   0  0  0  0  0  0  0  0  0  0  0  0
   15.8275    3.8920   -2.8511 N   0  0  0  0  0  0  0  0  0  0  0  0
   15.8598    2.5642   -3.0762 C   0  0  0  0  0  0  0  0  0  0  0  0
   15.3327   -0.8573   -1.5012 C   0  0  0  0  0  0  0  0  0  0  0  0
   13.2767   -3.0094   -0.6368 C   0  0  0  0  0  0  0  0  0  0  0  0
   12.3981   -3.0674   -1.5055 O   0  0  0  0  0  0  0  0  0  0  0  0
    0.0000    0.0000    0.0000 H   0  0  0  0  0  0  0  0  0  0  0  0
    0.0000    0.0000    0.0000 H   0  0  0  0  0  0  0  0  0  0  0  0
    0.0000    0.0000    0.0000 H   0  0  0  0  0  0  0  0  0  0  0  0
    0.0000    0.0000    0.0000 H   0  0  0  0  0  0  0  0  0  0  0  0
    0.0000    0.0000    0.0000 H   0  0  0  0  0  0  0  0  0  0  0  0
    0.0000    0.0000    0.0000 H   0  0  0  0  0  0  0  0  0  0  0  0
    0.0000    0.0000    0.0000 H   0  0  0  0  0  0  0  0  0  0  0  0
    0.0000    0.0000    0.0000 H   0  0  0  0  0  0  0  0  0  0  0  0
    0.0000    0.0000    0.0000 H   0  0  0  0  0  0  0  0  0  0  0  0
    0.0000    0.0000    0.0000 H   0  0  0  0  0  0  0  0  0  0  0  0
    0.0000    0.0000    0.0000 H   0  0  0  0  0  0  0  0  0  0  0  0
    0.0000    0.0000    0.0000 H   0  0  0  0  0  0  0  0  0  0  0  0
    0.0000    0.0000    0.0000 H   0  0  0  0  0  0  0  0  0  0  0  0
    0.0000    0.0000    0.0000 H   0  0  0  0  0  0  0  0  0  0  0  0
    6.9543   -1.5284   -0.3701 O   0  0  0  0  0  0  0  0  0  0  0  0
    6.1630   -2.6705   -0.5416 C   0  0  0  0  0  0  0  0  0  0  0  0
    5.7514   -3.4315    0.5326 C   0  0  0  0  0  0  0  0  0  0  0  0
    4.9717   -4.5546    0.3494 C   0  0  0  0  0  0  0  0  0  0  0  0
    4.5642   -4.9754   -0.9049 C   0  0  0  0  0  0  0  0  0  0  0  0
    3.7977   -6.0814   -1.0724 F   0  0  0  0  0  0  0  0  0  0  0  0
    4.9845   -4.2029   -1.9692 C   0  0  0  0  0  0  0  0  0  0  0  0
    5.7648   -3.0772   -1.7975 C   0  0  0  0  0  0  0  0  0  0  0  0
    6.0719   -3.1008    1.5214 H   0  0  0  0  0  0  0  0  0  0  0  0
    4.6518   -5.1481    1.1981 H   0  0  0  0  0  0  0  0  0  0  0  0
    4.6775   -4.5119   -2.9705 H   0  0  0  0  0  0  0  0  0  0  0  0
    6.0921   -2.4752   -2.6303 H   0  0  0  0  0  0  0  0  0  0  0  0
  1  2  1  0
  2  3  1  0
  2 19  1  0
  3  4  1  0
  3  5  2  0
  5  6  1  0
  6  7  1  0
  6 19  1  0
  7  8  2  0
  7 18  1  0
  8  9  1  0
  9 10  2  0
 10 11  1  0
 11 12  1  0
 11 18  2  0
 12 13  2  0
 12 17  1  0
 13 14  1  0
 14 15  2  0
 15 16  1  0
 16 17  2  0
 19 20  2  0
  1 21  1  0
  1 22  1  0
  1 23  1  0
  4 24  1  0
  4 25  1  0
  5 26  1  0
  8 27  1  0
  9 28  1  0
 10 29  1  0
 13 30  1  0
 14 31  1  0
 15 32  1  0
 17 33  1  0
 18 34  1  0
 35 36  1  0
 36 37  2  0
 37 38  1  0
 38 39  2  0
 39 40  1  0
 39 41  1  0
 41 42  2  0
 42 36  1  0
 37 43  1  0
 38 44  1  0
 41 45  1  0
 42 46  1  0
  6 35  1  6
M  CHG  1   5   1
M  END
>  <attachment_point>  (241) 
26

>  <score>  (241) 
<NA>

$$$$
CAT-4j
     RDKit          3D

 46 49  0  0  1  0  0  0  0  0999 V2000
   11.7106   -2.3098    1.2658 C   0  0  0  0  0  0  0  0  0  0  0  0
   13.0313   -2.6523    0.7225 N   0  0  0  0  0  0  0  0  0  0  0  0
   14.2010   -2.6281    1.3773 C   0  0  0  0  0  0  0  0  0  0  0  0
   14.3777   -2.3568    2.6732 N   0  0  0  0  0  0  0  0  0  0  0  0
   15.2217   -2.9197    0.5738 N   0  0  0  0  0  0  0  0  0  0  0  0
   14.7965   -3.2519   -0.7875 C   0  0  1  0  0  0  0  0  0  0  0  0
   15.3794   -2.2443   -1.7949 C   0  0  0  0  0  0  0  0  0  0  0  0
   15.9522   -2.6550   -3.0208 C   0  0  0  0  0  0  0  0  0  0  0  0
   16.4340   -1.6937   -3.9273 C   0  0  0  0  0  0  0  0  0  0  0  0
   16.3364   -0.3224   -3.6308 C   0  0  0  0  0  0  0  0  0  0  0  0
   15.7943    0.1250   -2.4073 C   0  0  0  0  0  0  0  0  0  0  0  0
   15.6711    1.5693   -2.0915 C   0  0  0  0  0  0  0  0  0  0  0  0
   15.3832    2.0354   -0.7903 C   0  0  0  0  0  0  0  0  0  0  0  0
   15.3534    3.4188   -0.5357 C   0  0  0  0  0  0  0  0  0  0  0  0
   15.5968    4.3049   -1.5946 C   0  0  0  0  0  0  0  0  0  0  0  0
   15.8275    3.8920   -2.8511 N   0  0  0  0  0  0  0  0  0  0  0  0
   15.8598    2.5642   -3.0762 C   0  0  0  0  0  0  0  0  0  0  0  0
   15.3327   -0.8573   -1.5012 C   0  0  0  0  0  0  0  0  0  0  0  0
   13.2767   -3.0094   -0.6368 C   0  0  0  0  0  0  0  0  0  0  0  0
   12.3981   -3.0674   -1.5055 O   0  0  0  0  0  0  0  0  0  0  0  0
    0.0000    0.0000    0.0000 H   0  0  0  0  0  0  0  0  0  0  0  0
    0.0000    0.0000    0.0000 H   0  0  0  0  0  0  0  0  0  0  0  0
    0.0000    0.0000    0.0000 H   0  0  0  0  0  0  0  0  0  0  0  0
    0.0000    0.0000    0.0000 H   0  0  0  0  0  0  0  0  0  0  0  0
    0.0000    0.0000    0.0000 H   0  0  0  0  0  0  0  0  0  0  0  0
    0.0000    0.0000    0.0000 H   0  0  0  0  0  0  0  0  0  0  0  0
    0.0000    0.0000    0.0000 H   0  0  0  0  0  0  0  0  0  0  0  0
    0.0000    0.0000    0.0000 H   0  0  0  0  0  0  0  0  0  0  0  0
    0.0000    0.0000    0.0000 H   0  0  0  0  0  0  0  0  0  0  0  0
    0.0000    0.0000    0.0000 H   0  0  0  0  0  0  0  0  0  0  0  0
    0.0000    0.0000    0.0000 H   0  0  0  0  0  0  0  0  0  0  0  0
    0.0000    0.0000    0.0000 H   0  0  0  0  0  0  0  0  0  0  0  0
    0.0000    0.0000    0.0000 H   0  0  0  0  0  0  0  0  0  0  0  0
    0.0000    0.0000    0.0000 H   0  0  0  0  0  0  0  0  0  0  0  0
    6.8398   -1.5032   -0.3640 C   0  0  0  0  0  0  0  0  0  0  0  0
    5.7302   -1.2401   -0.2981 C   0  0  0  0  0  0  0  0  0  0  0  0
    4.3594   -0.8900   -0.2121 C   0  0  0  0  0  0  0  0  0  0  0  0
    3.4012   -1.6486   -0.8496 C   0  0  0  0  0  0  0  0  0  0  0  0
    2.0691   -1.3195   -0.7744 C   0  0  0  0  0  0  0  0  0  0  0  0
    1.6984   -0.2153   -0.0498 C   0  0  0  0  0  0  0  0  0  0  0  0
    2.6495    0.5284    0.5766 C   0  0  0  0  0  0  0  0  0  0  0  0
    3.9370    0.1881    0.4884 N   0  0  0  0  0  0  0  0  0  0  0  0
    3.7526   -2.5167   -1.4119 H   0  0  0  0  0  0  0  0  0  0  0  0
    1.3135   -1.9240   -1.2814 H   0  0  0  0  0  0  0  0  0  0  0  0
    0.6375    0.0040   -0.0197 H   0  0  0  0  0  0  0  0  0  0  0  0
    2.3255    1.3931    1.1400 H   0  0  0  0  0  0  0  0  0  0  0  0
  1  2  1  0
  2  3  1  0
  2 19  1  0
  3  4  1  0
  3  5  2  0
  5  6  1  0
  6  7  1  0
  6 19  1  0
  7  8  2  0
  7 18  1  0
  8  9  1  0
  9 10  2  0
 10 11  1  0
 11 12  1  0
 11 18  2  0
 12 13  2  0
 12 17  1  0
 13 14  1  0
 14 15  2  0
 15 16  1  0
 16 17  2  0
 19 20  2  0
  1 21  1  0
  1 22  1  0
  1 23  1  0
  4 24  1  0
  4 25  1  0
  5 26  1  0
  8 27  1  0
  9 28  1  0
 10 29  1  0
 13 30  1  0
 14 31  1  0
 15 32  1  0
 17 33  1  0
 18 34  1  0
 35 36  3  0
 36 37  1  0
 37 38  2  0
 38 39  1  0
 39 40  2  0
 40 41  1  0
 41 42  2  0
 42 37  1  0
 38 43  1  0
 39 44  1  0
 40 45  1  0
 41 46  1  0
  6 35  1  6
M  CHG  1   5   1
M  END
>  <attachment_point>  (242) 
26

>  <score>  (242) 
<NA>

$$$$
CAT-4j
     RDKit          3D

 52 55  0  0  1  0  0  0  0  0999 V2000
   11.7106   -2.3098    1.2658 C   0  0  0  0  0  0  0  0  0  0  0  0
   13.0313   -2.6523    0.7225 N   0  0  0  0  0  0  0  0  0  0  0  0
   14.2010   -2.6281    1.3773 C   0  0  0  0  0  0  0  0  0  0  0  0
   14.3777   -2.3568    2.6732 N   0  0  0  0  0  0  0  0  0  0  0  0
   15.2217   -2.9197    0.5738 N   0  0  0  0  0  0  0  0  0  0  0  0
   14.7965   -3.2519   -0.7875 C   0  0  1  0  0  0  0  0  0  0  0  0
   15.3794   -2.2443   -1.7949 C   0  0  0  0  0  0  0  0  0  0  0  0
   15.9522   -2.6550   -3.0208 C   0  0  0  0  0  0  0  0  0  0  0  0
   16.4340   -1.6937   -3.9273 C   0  0  0  0  0  0  0  0  0  0  0  0
   16.3364   -0.3224   -3.6308 C   0  0  0  0  0  0  0  0  0  0  0  0
   15.7943    0.1250   -2.4073 C   0  0  0  0  0  0  0  0  0  0  0  0
   15.6711    1.5693   -2.0915 C   0  0  0  0  0  0  0  0  0  0  0  0
   15.3832    2.0354   -0.7903 C   0  0  0  0  0  0  0  0  0  0  0  0
   15.3534    3.4188   -0.5357 C   0  0  0  0  0  0  0  0  0  0  0  0
   15.5968    4.3049   -1.5946 C   0  0  0  0  0  0  0  0  0  0  0  0
   15.8275    3.8920   -2.8511 N   0  0  0  0  0  0  0  0  0  0  0  0
   15.8598    2.5642   -3.0762 C   0  0  0  0  0  0  0  0  0  0  0  0
   15.3327   -0.8573   -1.5012 C   0  0  0  0  0  0  0  0  0  0  0  0
   13.2767   -3.0094   -0.6368 C   0  0  0  0  0  0  0  0  0  0  0  0
   12.3981   -3.0674   -1.5055 O   0  0  0  0  0  0  0  0  0  0  0  0
    0.0000    0.0000    0.0000 H   0  0  0  0  0  0  0  0  0  0  0  0
    0.0000    0.0000    0.0000 H   0  0  0  0  0  0  0  0  0  0  0  0
    0.0000    0.0000    0.0000 H   0  0  0  0  0  0  0  0  0  0  0  0
    0.0000    0.0000    0.0000 H   0  0  0  0  0  0  0  0  0  0  0  0
    0.0000    0.0000    0.0000 H   0  0  0  0  0  0  0  0  0  0  0  0
    0.0000    0.0000    0.0000 H   0  0  0  0  0  0  0  0  0  0  0  0
    0.0000    0.0000    0.0000 H   0  0  0  0  0  0  0  0  0  0  0  0
    0.0000    0.0000    0.0000 H   0  0  0  0  0  0  0  0  0  0  0  0
    0.0000    0.0000    0.0000 H   0  0  0  0  0  0  0  0  0  0  0  0
    0.0000    0.0000    0.0000 H   0  0  0  0  0  0  0  0  0  0  0  0
    0.0000    0.0000    0.0000 H   0  0  0  0  0  0  0  0  0  0  0  0
    0.0000    0.0000    0.0000 H   0  0  0  0  0  0  0  0  0  0  0  0
    0.0000    0.0000    0.0000 H   0  0  0  0  0  0  0  0  0  0  0  0
    0.0000    0.0000    0.0000 H   0  0  0  0  0  0  0  0  0  0  0  0
    6.8304   -1.5012   -0.3635 C   0  0  0  0  0  0  0  0  0  0  0  0
    6.8000   -1.0641    0.9704 N   0  0  0  0  0  0  0  0  0  0  0  0
    7.6284    0.0583    1.2800 C   0  0  0  0  0  0  0  0  0  0  0  0
    9.1055   -0.2566    1.0552 C   0  0  0  0  0  0  0  0  0  0  0  0
    9.4480   -1.3155    1.9862 N   0  0  0  0  0  0  0  0  0  0  0  0
    8.6718   -2.4823    1.6485 C   0  0  0  0  0  0  0  0  0  0  0  0
    7.1933   -2.1541    1.8455 C   0  0  0  0  0  0  0  0  0  0  0  0
    6.6138   -2.5255   -0.5808 H   0  0  0  0  0  0  0  0  0  0  0  0
    6.8570   -0.7794   -1.1510 H   0  0  0  0  0  0  0  0  0  0  0  0
    7.3369    0.9987    0.8135 H   0  0  0  0  0  0  0  0  0  0  0  0
    7.5390    0.2218    2.3931 H   0  0  0  0  0  0  0  0  0  0  0  0
    9.2501   -0.5448    0.0007 H   0  0  0  0  0  0  0  0  0  0  0  0
    9.6802    0.6653    1.3018 H   0  0  0  0  0  0  0  0  0  0  0  0
    9.1270   -0.9817    2.9343 H   0  0  0  0  0  0  0  0  0  0  0  0
    8.8503   -2.6962    0.5754 H   0  0  0  0  0  0  0  0  0  0  0  0
    8.8882   -3.3408    2.2992 H   0  0  0  0  0  0  0  0  0  0  0  0
    6.5548   -3.0466    1.7389 H   0  0  0  0  0  0  0  0  0  0  0  0
    7.0915   -1.7512    2.8957 H   0  0  0  0  0  0  0  0  0  0  0  0
  1  2  1  0
  2  3  1  0
  2 19  1  0
  3  4  1  0
  3  5  2  0
  5  6  1  0
  6  7  1  0
  6 19  1  0
  7  8  2  0
  7 18  1  0
  8  9  1  0
  9 10  2  0
 10 11  1  0
 11 12  1  0
 11 18  2  0
 12 13  2  0
 12 17  1  0
 13 14  1  0
 14 15  2  0
 15 16  1  0
 16 17  2  0
 19 20  2  0
  1 21  1  0
  1 22  1  0
  1 23  1  0
  4 24  1  0
  4 25  1  0
  5 26  1  0
  8 27  1  0
  9 28  1  0
 10 29  1  0
 13 30  1  0
 14 31  1  0
 15 32  1  0
 17 33  1  0
 18 34  1  0
 35 36  1  0
 36 37  1  0
 37 38  1  0
 38 39  1  0
 39 40  1  0
 40 41  1  0
 41 36  1  0
 35 42  1  0
 35 43  1  0
 37 44  1  0
 37 45  1  0
 38 46  1  0
 38 47  1  0
 39 48  1  0
 40 49  1  0
 40 50  1  0
 41 51  1  0
 41 52  1  0
  6 35  1  6
M  CHG  1   5   1
M  END
>  <attachment_point>  (243) 
26

>  <score>  (243) 
<NA>

$$$$
CAT-4j
     RDKit          3D

 54 57  0  0  1  0  0  0  0  0999 V2000
   11.7106   -2.3098    1.2658 C   0  0  0  0  0  0  0  0  0  0  0  0
   13.0313   -2.6523    0.7225 N   0  0  0  0  0  0  0  0  0  0  0  0
   14.2010   -2.6281    1.3773 C   0  0  0  0  0  0  0  0  0  0  0  0
   14.3777   -2.3568    2.6732 N   0  0  0  0  0  0  0  0  0  0  0  0
   15.2217   -2.9197    0.5738 N   0  0  0  0  0  0  0  0  0  0  0  0
   14.7965   -3.2519   -0.7875 C   0  0  1  0  0  0  0  0  0  0  0  0
   15.3794   -2.2443   -1.7949 C   0  0  0  0  0  0  0  0  0  0  0  0
   15.9522   -2.6550   -3.0208 C   0  0  0  0  0  0  0  0  0  0  0  0
   16.4340   -1.6937   -3.9273 C   0  0  0  0  0  0  0  0  0  0  0  0
   16.3364   -0.3224   -3.6308 C   0  0  0  0  0  0  0  0  0  0  0  0
   15.7943    0.1250   -2.4073 C   0  0  0  0  0  0  0  0  0  0  0  0
   15.6711    1.5693   -2.0915 C   0  0  0  0  0  0  0  0  0  0  0  0
   15.3832    2.0354   -0.7903 C   0  0  0  0  0  0  0  0  0  0  0  0
   15.3534    3.4188   -0.5357 C   0  0  0  0  0  0  0  0  0  0  0  0
   15.5968    4.3049   -1.5946 C   0  0  0  0  0  0  0  0  0  0  0  0
   15.8275    3.8920   -2.8511 N   0  0  0  0  0  0  0  0  0  0  0  0
   15.8598    2.5642   -3.0762 C   0  0  0  0  0  0  0  0  0  0  0  0
   15.3327   -0.8573   -1.5012 C   0  0  0  0  0  0  0  0  0  0  0  0
   13.2767   -3.0094   -0.6368 C   0  0  0  0  0  0  0  0  0  0  0  0
   12.3981   -3.0674   -1.5055 O   0  0  0  0  0  0  0  0  0  0  0  0
    0.0000    0.0000    0.0000 H   0  0  0  0  0  0  0  0  0  0  0  0
    0.0000    0.0000    0.0000 H   0  0  0  0  0  0  0  0  0  0  0  0
    0.0000    0.0000    0.0000 H   0  0  0  0  0  0  0  0  0  0  0  0
    0.0000    0.0000    0.0000 H   0  0  0  0  0  0  0  0  0  0  0  0
    0.0000    0.0000    0.0000 H   0  0  0  0  0  0  0  0  0  0  0  0
    0.0000    0.0000    0.0000 H   0  0  0  0  0  0  0  0  0  0  0  0
    0.0000    0.0000    0.0000 H   0  0  0  0  0  0  0  0  0  0  0  0
    0.0000    0.0000    0.0000 H   0  0  0  0  0  0  0  0  0  0  0  0
    0.0000    0.0000    0.0000 H   0  0  0  0  0  0  0  0  0  0  0  0
    0.0000    0.0000    0.0000 H   0  0  0  0  0  0  0  0  0  0  0  0
    0.0000    0.0000    0.0000 H   0  0  0  0  0  0  0  0  0  0  0  0
    0.0000    0.0000    0.0000 H   0  0  0  0  0  0  0  0  0  0  0  0
    0.0000    0.0000    0.0000 H   0  0  0  0  0  0  0  0  0  0  0  0
    0.0000    0.0000    0.0000 H   0  0  0  0  0  0  0  0  0  0  0  0
    7.0654   -1.5528   -0.3760 N   0  0  0  0  0  0  0  0  0  0  0  0
    6.4984   -1.4146    0.9730 C   0  0  0  0  0  0  0  0  0  0  0  0
    7.2594   -0.2946    1.6145 C   0  0  0  0  0  0  0  0  0  0  0  0
    6.7892    0.9714    1.4757 C   0  0  0  0  0  0  0  0  0  0  0  0
    7.4662    2.0390    2.0557 C   0  0  0  0  0  0  0  0  0  0  0  0
    8.6199    1.8186    2.7756 C   0  0  0  0  0  0  0  0  0  0  0  0
    9.3236    2.8560    3.3688 O   0  0  0  0  0  0  0  0  0  0  0  0
    8.8858    4.1961    3.2610 C   0  0  0  0  0  0  0  0  0  0  0  0
    9.0886    0.5278    2.9100 C   0  0  0  0  0  0  0  0  0  0  0  0
    8.4041   -0.5358    2.3259 C   0  0  0  0  0  0  0  0  0  0  0  0
    6.3206   -1.8937   -1.0224 H   0  0  0  0  0  0  0  0  0  0  0  0
    5.4386   -1.1892    0.8414 H   0  0  0  0  0  0  0  0  0  0  0  0
    6.6598   -2.3485    1.5593 H   0  0  0  0  0  0  0  0  0  0  0  0
    5.8913    1.2104    0.9242 H   0  0  0  0  0  0  0  0  0  0  0  0
    7.0876    3.0621    1.9445 H   0  0  0  0  0  0  0  0  0  0  0  0
    7.9460    4.3230    3.8585 H   0  0  0  0  0  0  0  0  0  0  0  0
    9.6978    4.8679    3.6047 H   0  0  0  0  0  0  0  0  0  0  0  0
    8.6177    4.3860    2.2038 H   0  0  0  0  0  0  0  0  0  0  0  0
    9.9988    0.3111    3.4724 H   0  0  0  0  0  0  0  0  0  0  0  0
    8.7931   -1.5266    2.4480 H   0  0  0  0  0  0  0  0  0  0  0  0
  1  2  1  0
  2  3  1  0
  2 19  1  0
  3  4  1  0
  3  5  2  0
  5  6  1  0
  6  7  1  0
  6 19  1  0
  7  8  2  0
  7 18  1  0
  8  9  1  0
  9 10  2  0
 10 11  1  0
 11 12  1  0
 11 18  2  0
 12 13  2  0
 12 17  1  0
 13 14  1  0
 14 15  2  0
 15 16  1  0
 16 17  2  0
 19 20  2  0
  1 21  1  0
  1 22  1  0
  1 23  1  0
  4 24  1  0
  4 25  1  0
  5 26  1  0
  8 27  1  0
  9 28  1  0
 10 29  1  0
 13 30  1  0
 14 31  1  0
 15 32  1  0
 17 33  1  0
 18 34  1  0
 35 36  1  0
 36 37  1  0
 37 38  2  0
 38 39  1  0
 39 40  2  0
 40 41  1  0
 41 42  1  0
 40 43  1  0
 43 44  2  0
 44 37  1  0
 35 45  1  0
 36 46  1  0
 36 47  1  0
 38 48  1  0
 39 49  1  0
 42 50  1  0
 42 51  1  0
 42 52  1  0
 43 53  1  0
 44 54  1  0
  6 35  1  6
M  CHG  1   5   1
M  END
>  <attachment_point>  (244) 
26

>  <score>  (244) 
<NA>

$$$$
CAT-4j
     RDKit          3D

 47 50  0  0  1  0  0  0  0  0999 V2000
   11.7106   -2.3098    1.2658 C   0  0  0  0  0  0  0  0  0  0  0  0
   13.0313   -2.6523    0.7225 N   0  0  0  0  0  0  0  0  0  0  0  0
   14.2010   -2.6281    1.3773 C   0  0  0  0  0  0  0  0  0  0  0  0
   14.3777   -2.3568    2.6732 N   0  0  0  0  0  0  0  0  0  0  0  0
   15.2217   -2.9197    0.5738 N   0  0  0  0  0  0  0  0  0  0  0  0
   14.7965   -3.2519   -0.7875 C   0  0  1  0  0  0  0  0  0  0  0  0
   15.3794   -2.2443   -1.7949 C   0  0  0  0  0  0  0  0  0  0  0  0
   15.9522   -2.6550   -3.0208 C   0  0  0  0  0  0  0  0  0  0  0  0
   16.4340   -1.6937   -3.9273 C   0  0  0  0  0  0  0  0  0  0  0  0
   16.3364   -0.3224   -3.6308 C   0  0  0  0  0  0  0  0  0  0  0  0
   15.7943    0.1250   -2.4073 C   0  0  0  0  0  0  0  0  0  0  0  0
   15.6711    1.5693   -2.0915 C   0  0  0  0  0  0  0  0  0  0  0  0
   15.3832    2.0354   -0.7903 C   0  0  0  0  0  0  0  0  0  0  0  0
   15.3534    3.4188   -0.5357 C   0  0  0  0  0  0  0  0  0  0  0  0
   15.5968    4.3049   -1.5946 C   0  0  0  0  0  0  0  0  0  0  0  0
   15.8275    3.8920   -2.8511 N   0  0  0  0  0  0  0  0  0  0  0  0
   15.8598    2.5642   -3.0762 C   0  0  0  0  0  0  0  0  0  0  0  0
   15.3327   -0.8573   -1.5012 C   0  0  0  0  0  0  0  0  0  0  0  0
   13.2767   -3.0094   -0.6368 C   0  0  0  0  0  0  0  0  0  0  0  0
   12.3981   -3.0674   -1.5055 O   0  0  0  0  0  0  0  0  0  0  0  0
    0.0000    0.0000    0.0000 H   0  0  0  0  0  0  0  0  0  0  0  0
    0.0000    0.0000    0.0000 H   0  0  0  0  0  0  0  0  0  0  0  0
    0.0000    0.0000    0.0000 H   0  0  0  0  0  0  0  0  0  0  0  0
    0.0000    0.0000    0.0000 H   0  0  0  0  0  0  0  0  0  0  0  0
    0.0000    0.0000    0.0000 H   0  0  0  0  0  0  0  0  0  0  0  0
    0.0000    0.0000    0.0000 H   0  0  0  0  0  0  0  0  0  0  0  0
    0.0000    0.0000    0.0000 H   0  0  0  0  0  0  0  0  0  0  0  0
    0.0000    0.0000    0.0000 H   0  0  0  0  0  0  0  0  0  0  0  0
    0.0000    0.0000    0.0000 H   0  0  0  0  0  0  0  0  0  0  0  0
    0.0000    0.0000    0.0000 H   0  0  0  0  0  0  0  0  0  0  0  0
    0.0000    0.0000    0.0000 H   0  0  0  0  0  0  0  0  0  0  0  0
    0.0000    0.0000    0.0000 H   0  0  0  0  0  0  0  0  0  0  0  0
    0.0000    0.0000    0.0000 H   0  0  0  0  0  0  0  0  0  0  0  0
    0.0000    0.0000    0.0000 H   0  0  0  0  0  0  0  0  0  0  0  0
    6.9742   -1.5328   -0.3712 C   0  0  0  0  0  0  0  0  0  0  0  0
    6.0212   -2.4552   -0.5623 N   0  0  0  0  0  0  0  0  0  0  0  0
    4.7096   -2.1597   -0.4910 C   0  0  0  0  0  0  0  0  0  0  0  0
    4.3872   -0.8475   -0.2086 C   0  0  0  0  0  0  0  0  0  0  0  0
    5.3456    0.1281   -0.0062 C   0  0  0  0  0  0  0  0  0  0  0  0
    6.6944   -0.2112   -0.0871 C   0  0  0  0  0  0  0  0  0  0  0  0
    7.7661    0.7934    0.1207 C   0  0  0  0  0  0  0  0  0  0  0  0
    3.9209   -2.8872   -0.6414 H   0  0  0  0  0  0  0  0  0  0  0  0
    3.3490   -0.5938   -0.1480 H   0  0  0  0  0  0  0  0  0  0  0  0
    5.0963    1.1565    0.2150 H   0  0  0  0  0  0  0  0  0  0  0  0
    8.0938    0.8692    1.1722 H   0  0  0  0  0  0  0  0  0  0  0  0
    7.4244    1.8224   -0.1680 H   0  0  0  0  0  0  0  0  0  0  0  0
    8.6468    0.5883   -0.5250 H   0  0  0  0  0  0  0  0  0  0  0  0
  1  2  1  0
  2  3  1  0
  2 19  1  0
  3  4  1  0
  3  5  2  0
  5  6  1  0
  6  7  1  1
  6 19  1  0
  7  8  2  0
  7 18  1  0
  8  9  1  0
  9 10  2  0
 10 11  1  0
 11 12  1  0
 11 18  2  0
 12 13  2  0
 12 17  1  0
 13 14  1  0
 14 15  2  0
 15 16  1  0
 16 17  2  0
 19 20  2  0
  1 21  1  0
  1 22  1  0
  1 23  1  0
  4 24  1  0
  4 25  1  0
  5 26  1  0
  8 27  1  0
  9 28  1  0
 10 29  1  0
 13 30  1  0
 14 31  1  0
 15 32  1  0
 17 33  1  0
 18 34  1  0
 35 36  2  0
 36 37  1  0
 37 38  2  0
 38 39  1  0
 39 40  2  0
 40 41  1  0
 40 35  1  0
 37 42  1  0
 38 43  1  0
 39 44  1  0
 41 45  1  0
 41 46  1  0
 41 47  1  0
  6 35  1  0
M  CHG  1   5   1
M  END
>  <attachment_point>  (245) 
26

>  <score>  (245) 
<NA>

$$$$
CAT-4j
     RDKit          3D

 47 49  0  0  1  0  0  0  0  0999 V2000
   11.7106   -2.3098    1.2658 C   0  0  0  0  0  0  0  0  0  0  0  0
   13.0313   -2.6523    0.7225 N   0  0  0  0  0  0  0  0  0  0  0  0
   14.2010   -2.6281    1.3773 C   0  0  0  0  0  0  0  0  0  0  0  0
   14.3777   -2.3568    2.6732 N   0  0  0  0  0  0  0  0  0  0  0  0
   15.2217   -2.9197    0.5738 N   0  0  0  0  0  0  0  0  0  0  0  0
   14.7965   -3.2519   -0.7875 C   0  0  1  0  0  0  0  0  0  0  0  0
   15.3794   -2.2443   -1.7949 C   0  0  0  0  0  0  0  0  0  0  0  0
   15.9522   -2.6550   -3.0208 C   0  0  0  0  0  0  0  0  0  0  0  0
   16.4340   -1.6937   -3.9273 C   0  0  0  0  0  0  0  0  0  0  0  0
   16.3364   -0.3224   -3.6308 C   0  0  0  0  0  0  0  0  0  0  0  0
   15.7943    0.1250   -2.4073 C   0  0  0  0  0  0  0  0  0  0  0  0
   15.6711    1.5693   -2.0915 C   0  0  0  0  0  0  0  0  0  0  0  0
   15.3832    2.0354   -0.7903 C   0  0  0  0  0  0  0  0  0  0  0  0
   15.3534    3.4188   -0.5357 C   0  0  0  0  0  0  0  0  0  0  0  0
   15.5968    4.3049   -1.5946 C   0  0  0  0  0  0  0  0  0  0  0  0
   15.8275    3.8920   -2.8511 N   0  0  0  0  0  0  0  0  0  0  0  0
   15.8598    2.5642   -3.0762 C   0  0  0  0  0  0  0  0  0  0  0  0
   15.3327   -0.8573   -1.5012 C   0  0  0  0  0  0  0  0  0  0  0  0
   13.2767   -3.0094   -0.6368 C   0  0  0  0  0  0  0  0  0  0  0  0
   12.3981   -3.0674   -1.5055 O   0  0  0  0  0  0  0  0  0  0  0  0
    0.0000    0.0000    0.0000 H   0  0  0  0  0  0  0  0  0  0  0  0
    0.0000    0.0000    0.0000 H   0  0  0  0  0  0  0  0  0  0  0  0
    0.0000    0.0000    0.0000 H   0  0  0  0  0  0  0  0  0  0  0  0
    0.0000    0.0000    0.0000 H   0  0  0  0  0  0  0  0  0  0  0  0
    0.0000    0.0000    0.0000 H   0  0  0  0  0  0  0  0  0  0  0  0
    0.0000    0.0000    0.0000 H   0  0  0  0  0  0  0  0  0  0  0  0
    0.0000    0.0000    0.0000 H   0  0  0  0  0  0  0  0  0  0  0  0
    0.0000    0.0000    0.0000 H   0  0  0  0  0  0  0  0  0  0  0  0
    0.0000    0.0000    0.0000 H   0  0  0  0  0  0  0  0  0  0  0  0
    0.0000    0.0000    0.0000 H   0  0  0  0  0  0  0  0  0  0  0  0
    0.0000    0.0000    0.0000 H   0  0  0  0  0  0  0  0  0  0  0  0
    0.0000    0.0000    0.0000 H   0  0  0  0  0  0  0  0  0  0  0  0
    0.0000    0.0000    0.0000 H   0  0  0  0  0  0  0  0  0  0  0  0
    0.0000    0.0000    0.0000 H   0  0  0  0  0  0  0  0  0  0  0  0
    7.0104   -1.5407   -0.3731 C   0  0  0  0  0  0  0  0  0  0  0  0
    6.6425   -0.7497    0.8578 C   0  0  0  0  0  0  0  0  0  0  0  0
    7.3900    0.5780    0.8911 C   0  0  0  0  0  0  0  0  0  0  0  0
    6.9568    1.2708    2.1337 C   0  0  0  0  0  0  0  0  0  0  0  0
    7.4243    0.9256    3.2435 O   0  0  0  0  0  0  0  0  0  0  0  0
    6.0341    2.3124    2.1355 O   0  0  0  0  0  0  0  0  0  0  0  0
    6.6043   -0.9589   -1.2460 H   0  0  0  0  0  0  0  0  0  0  0  0
    6.3916   -2.4699   -0.3470 H   0  0  0  0  0  0  0  0  0  0  0  0
    5.5513   -0.4648    0.8024 H   0  0  0  0  0  0  0  0  0  0  0  0
    6.8089   -1.2801    1.7901 H   0  0  0  0  0  0  0  0  0  0  0  0
    8.4768    0.4086    0.9723 H   0  0  0  0  0  0  0  0  0  0  0  0
    7.1016    1.1720    0.0124 H   0  0  0  0  0  0  0  0  0  0  0  0
    5.3236    2.3969    2.8779 H   0  0  0  0  0  0  0  0  0  0  0  0
  1  2  1  0
  2  3  1  0
  2 19  1  0
  3  4  1  0
  3  5  2  0
  5  6  1  0
  6  7  1  0
  6 19  1  0
  7  8  2  0
  7 18  1  0
  8  9  1  0
  9 10  2  0
 10 11  1  0
 11 12  1  0
 11 18  2  0
 12 13  2  0
 12 17  1  0
 13 14  1  0
 14 15  2  0
 15 16  1  0
 16 17  2  0
 19 20  2  0
  1 21  1  0
  1 22  1  0
  1 23  1  0
  4 24  1  0
  4 25  1  0
  5 26  1  0
  8 27  1  0
  9 28  1  0
 10 29  1  0
 13 30  1  0
 14 31  1  0
 15 32  1  0
 17 33  1  0
 18 34  1  0
 35 36  1  0
 36 37  1  0
 37 38  1  0
 38 39  2  0
 38 40  1  0
 35 41  1  0
 35 42  1  0
 36 43  1  0
 36 44  1  0
 37 45  1  0
 37 46  1  0
 40 47  1  0
  6 35  1  6
M  CHG  1   5   1
M  END
>  <attachment_point>  (246) 
26

>  <score>  (246) 
<NA>

$$$$
CAT-4j
     RDKit          3D

 47 50  0  0  1  0  0  0  0  0999 V2000
   11.7106   -2.3098    1.2658 C   0  0  0  0  0  0  0  0  0  0  0  0
   13.0313   -2.6523    0.7225 N   0  0  0  0  0  0  0  0  0  0  0  0
   14.2010   -2.6281    1.3773 C   0  0  0  0  0  0  0  0  0  0  0  0
   14.3777   -2.3568    2.6732 N   0  0  0  0  0  0  0  0  0  0  0  0
   15.2217   -2.9197    0.5738 N   0  0  0  0  0  0  0  0  0  0  0  0
   14.7965   -3.2519   -0.7875 C   0  0  1  0  0  0  0  0  0  0  0  0
   15.3794   -2.2443   -1.7949 C   0  0  0  0  0  0  0  0  0  0  0  0
   15.9522   -2.6550   -3.0208 C   0  0  0  0  0  0  0  0  0  0  0  0
   16.4340   -1.6937   -3.9273 C   0  0  0  0  0  0  0  0  0  0  0  0
   16.3364   -0.3224   -3.6308 C   0  0  0  0  0  0  0  0  0  0  0  0
   15.7943    0.1250   -2.4073 C   0  0  0  0  0  0  0  0  0  0  0  0
   15.6711    1.5693   -2.0915 C   0  0  0  0  0  0  0  0  0  0  0  0
   15.3832    2.0354   -0.7903 C   0  0  0  0  0  0  0  0  0  0  0  0
   15.3534    3.4188   -0.5357 C   0  0  0  0  0  0  0  0  0  0  0  0
   15.5968    4.3049   -1.5946 C   0  0  0  0  0  0  0  0  0  0  0  0
   15.8275    3.8920   -2.8511 N   0  0  0  0  0  0  0  0  0  0  0  0
   15.8598    2.5642   -3.0762 C   0  0  0  0  0  0  0  0  0  0  0  0
   15.3327   -0.8573   -1.5012 C   0  0  0  0  0  0  0  0  0  0  0  0
   13.2767   -3.0094   -0.6368 C   0  0  0  0  0  0  0  0  0  0  0  0
   12.3981   -3.0674   -1.5055 O   0  0  0  0  0  0  0  0  0  0  0  0
    0.0000    0.0000    0.0000 H   0  0  0  0  0  0  0  0  0  0  0  0
    0.0000    0.0000    0.0000 H   0  0  0  0  0  0  0  0  0  0  0  0
    0.0000    0.0000    0.0000 H   0  0  0  0  0  0  0  0  0  0  0  0
    0.0000    0.0000    0.0000 H   0  0  0  0  0  0  0  0  0  0  0  0
    0.0000    0.0000    0.0000 H   0  0  0  0  0  0  0  0  0  0  0  0
    0.0000    0.0000    0.0000 H   0  0  0  0  0  0  0  0  0  0  0  0
    0.0000    0.0000    0.0000 H   0  0  0  0  0  0  0  0  0  0  0  0
    0.0000    0.0000    0.0000 H   0  0  0  0  0  0  0  0  0  0  0  0
    0.0000    0.0000    0.0000 H   0  0  0  0  0  0  0  0  0  0  0  0
    0.0000    0.0000    0.0000 H   0  0  0  0  0  0  0  0  0  0  0  0
    0.0000    0.0000    0.0000 H   0  0  0  0  0  0  0  0  0  0  0  0
    0.0000    0.0000    0.0000 H   0  0  0  0  0  0  0  0  0  0  0  0
    0.0000    0.0000    0.0000 H   0  0  0  0  0  0  0  0  0  0  0  0
    0.0000    0.0000    0.0000 H   0  0  0  0  0  0  0  0  0  0  0  0
    6.9176   -1.5203   -0.3682 C   0  0  0  0  0  0  0  0  0  0  0  0
    6.0018   -2.1995    0.3239 C   0  0  0  0  0  0  0  0  0  0  0  0
    6.1762   -3.4034    1.1659 C   0  0  0  0  0  0  0  0  0  0  0  0
    4.8119   -1.5567    0.1088 N   0  0  0  0  0  0  0  0  0  0  0  0
    5.0458   -0.5318   -0.6899 O   0  0  0  0  0  0  0  0  0  0  0  0
    6.3344   -0.4871   -0.9981 C   0  0  0  0  0  0  0  0  0  0  0  0
    7.0239    0.5052   -1.8703 C   0  0  0  0  0  0  0  0  0  0  0  0
    5.6120   -3.3374    2.1276 H   0  0  0  0  0  0  0  0  0  0  0  0
    7.2625   -3.4776    1.4329 H   0  0  0  0  0  0  0  0  0  0  0  0
    5.9330   -4.3479    0.6277 H   0  0  0  0  0  0  0  0  0  0  0  0
    6.3218    1.1030   -2.4754 H   0  0  0  0  0  0  0  0  0  0  0  0
    7.5820    1.2121   -1.1968 H   0  0  0  0  0  0  0  0  0  0  0  0
    7.7589   -0.0127   -2.5129 H   0  0  0  0  0  0  0  0  0  0  0  0
  1  2  1  0
  2  3  1  0
  2 19  1  0
  3  4  1  0
  3  5  2  0
  5  6  1  0
  6  7  1  1
  6 19  1  0
  7  8  2  0
  7 18  1  0
  8  9  1  0
  9 10  2  0
 10 11  1  0
 11 12  1  0
 11 18  2  0
 12 13  2  0
 12 17  1  0
 13 14  1  0
 14 15  2  0
 15 16  1  0
 16 17  2  0
 19 20  2  0
  1 21  1  0
  1 22  1  0
  1 23  1  0
  4 24  1  0
  4 25  1  0
  5 26  1  0
  8 27  1  0
  9 28  1  0
 10 29  1  0
 13 30  1  0
 14 31  1  0
 15 32  1  0
 17 33  1  0
 18 34  1  0
 35 36  1  0
 36 37  1  0
 36 38  2  0
 38 39  1  0
 39 40  1  0
 40 41  1  0
 40 35  2  0
 37 42  1  0
 37 43  1  0
 37 44  1  0
 41 45  1  0
 41 46  1  0
 41 47  1  0
  6 35  1  0
M  CHG  1   5   1
M  END
>  <attachment_point>  (247) 
26

>  <score>  (247) 
<NA>

$$$$
CAT-4j
     RDKit          3D

 54 57  0  0  1  0  0  0  0  0999 V2000
   11.7106   -2.3098    1.2658 C   0  0  0  0  0  0  0  0  0  0  0  0
   13.0313   -2.6523    0.7225 N   0  0  0  0  0  0  0  0  0  0  0  0
   14.2010   -2.6281    1.3773 C   0  0  0  0  0  0  0  0  0  0  0  0
   14.3777   -2.3568    2.6732 N   0  0  0  0  0  0  0  0  0  0  0  0
   15.2217   -2.9197    0.5738 N   0  0  0  0  0  0  0  0  0  0  0  0
   14.7965   -3.2519   -0.7875 C   0  0  1  0  0  0  0  0  0  0  0  0
   15.3794   -2.2443   -1.7949 C   0  0  0  0  0  0  0  0  0  0  0  0
   15.9522   -2.6550   -3.0208 C   0  0  0  0  0  0  0  0  0  0  0  0
   16.4340   -1.6937   -3.9273 C   0  0  0  0  0  0  0  0  0  0  0  0
   16.3364   -0.3224   -3.6308 C   0  0  0  0  0  0  0  0  0  0  0  0
   15.7943    0.1250   -2.4073 C   0  0  0  0  0  0  0  0  0  0  0  0
   15.6711    1.5693   -2.0915 C   0  0  0  0  0  0  0  0  0  0  0  0
   15.3832    2.0354   -0.7903 C   0  0  0  0  0  0  0  0  0  0  0  0
   15.3534    3.4188   -0.5357 C   0  0  0  0  0  0  0  0  0  0  0  0
   15.5968    4.3049   -1.5946 C   0  0  0  0  0  0  0  0  0  0  0  0
   15.8275    3.8920   -2.8511 N   0  0  0  0  0  0  0  0  0  0  0  0
   15.8598    2.5642   -3.0762 C   0  0  0  0  0  0  0  0  0  0  0  0
   15.3327   -0.8573   -1.5012 C   0  0  0  0  0  0  0  0  0  0  0  0
   13.2767   -3.0094   -0.6368 C   0  0  0  0  0  0  0  0  0  0  0  0
   12.3981   -3.0674   -1.5055 O   0  0  0  0  0  0  0  0  0  0  0  0
    0.0000    0.0000    0.0000 H   0  0  0  0  0  0  0  0  0  0  0  0
    0.0000    0.0000    0.0000 H   0  0  0  0  0  0  0  0  0  0  0  0
    0.0000    0.0000    0.0000 H   0  0  0  0  0  0  0  0  0  0  0  0
    0.0000    0.0000    0.0000 H   0  0  0  0  0  0  0  0  0  0  0  0
    0.0000    0.0000    0.0000 H   0  0  0  0  0  0  0  0  0  0  0  0
    0.0000    0.0000    0.0000 H   0  0  0  0  0  0  0  0  0  0  0  0
    0.0000    0.0000    0.0000 H   0  0  0  0  0  0  0  0  0  0  0  0
    0.0000    0.0000    0.0000 H   0  0  0  0  0  0  0  0  0  0  0  0
    0.0000    0.0000    0.0000 H   0  0  0  0  0  0  0  0  0  0  0  0
    0.0000    0.0000    0.0000 H   0  0  0  0  0  0  0  0  0  0  0  0
    0.0000    0.0000    0.0000 H   0  0  0  0  0  0  0  0  0  0  0  0
    0.0000    0.0000    0.0000 H   0  0  0  0  0  0  0  0  0  0  0  0
    0.0000    0.0000    0.0000 H   0  0  0  0  0  0  0  0  0  0  0  0
    0.0000    0.0000    0.0000 H   0  0  0  0  0  0  0  0  0  0  0  0
    7.0240   -1.5437   -0.3738 N   0  0  0  0  0  0  0  0  0  0  0  0
    6.7164   -0.6190    0.7027 C   0  0  0  0  0  0  0  0  0  0  0  0
    7.5164    0.6222    0.5239 C   0  0  0  0  0  0  0  0  0  0  0  0
    8.1726    0.7536   -0.7554 N   0  0  0  0  0  0  0  0  0  0  0  0
    9.3105    1.5734   -0.8267 C   0  0  0  0  0  0  0  0  0  0  0  0
    9.8150    2.2727    0.3593 C   0  0  0  0  0  0  0  0  0  0  0  0
    9.8905    1.6992   -1.9230 O   0  0  0  0  0  0  0  0  0  0  0  0
    7.7201    0.0895   -1.9573 C   0  0  0  0  0  0  0  0  0  0  0  0
    6.6105   -0.8461   -1.6008 C   0  0  0  0  0  0  0  0  0  0  0  0
    5.6324   -0.3522    0.5809 H   0  0  0  0  0  0  0  0  0  0  0  0
    6.9088   -1.0850    1.6869 H   0  0  0  0  0  0  0  0  0  0  0  0
    6.8788    1.5254    0.6475 H   0  0  0  0  0  0  0  0  0  0  0  0
    8.3084    0.6516    1.3021 H   0  0  0  0  0  0  0  0  0  0  0  0
    8.9870    2.6987    0.9921 H   0  0  0  0  0  0  0  0  0  0  0  0
   10.5012    1.6499    0.9776 H   0  0  0  0  0  0  0  0  0  0  0  0
   10.4111    3.1459    0.0321 H   0  0  0  0  0  0  0  0  0  0  0  0
    8.5788   -0.4258   -2.4712 H   0  0  0  0  0  0  0  0  0  0  0  0
    7.3705    0.8621   -2.7024 H   0  0  0  0  0  0  0  0  0  0  0  0
    5.7042   -0.2351   -1.3960 H   0  0  0  0  0  0  0  0  0  0  0  0
    6.3754   -1.5930   -2.3768 H   0  0  0  0  0  0  0  0  0  0  0  0
  1  2  1  0
  2  3  1  0
  2 19  1  0
  3  4  1  0
  3  5  2  0
  5  6  1  0
  6  7  1  0
  6 19  1  0
  7  8  2  0
  7 18  1  0
  8  9  1  0
  9 10  2  0
 10 11  1  0
 11 12  1  0
 11 18  2  0
 12 13  2  0
 12 17  1  0
 13 14  1  0
 14 15  2  0
 15 16  1  0
 16 17  2  0
 19 20  2  0
  1 21  1  0
  1 22  1  0
  1 23  1  0
  4 24  1  0
  4 25  1  0
  5 26  1  0
  8 27  1  0
  9 28  1  0
 10 29  1  0
 13 30  1  0
 14 31  1  0
 15 32  1  0
 17 33  1  0
 18 34  1  0
 35 36  1  0
 36 37  1  0
 37 38  1  0
 38 39  1  0
 39 40  1  0
 39 41  2  0
 38 42  1  0
 42 43  1  0
 43 35  1  0
 36 44  1  0
 36 45  1  0
 37 46  1  0
 37 47  1  0
 40 48  1  0
 40 49  1  0
 40 50  1  0
 42 51  1  0
 42 52  1  0
 43 53  1  0
 43 54  1  0
  6 35  1  6
M  CHG  1   5   1
M  END
>  <attachment_point>  (248) 
26

>  <score>  (248) 
<NA>

$$$$
CAT-4j
     RDKit          3D

 45 48  0  0  1  0  0  0  0  0999 V2000
   11.7106   -2.3098    1.2658 C   0  0  0  0  0  0  0  0  0  0  0  0
   13.0313   -2.6523    0.7225 N   0  0  0  0  0  0  0  0  0  0  0  0
   14.2010   -2.6281    1.3773 C   0  0  0  0  0  0  0  0  0  0  0  0
   14.3777   -2.3568    2.6732 N   0  0  0  0  0  0  0  0  0  0  0  0
   15.2217   -2.9197    0.5738 N   0  0  0  0  0  0  0  0  0  0  0  0
   14.7965   -3.2519   -0.7875 C   0  0  1  0  0  0  0  0  0  0  0  0
   15.3794   -2.2443   -1.7949 C   0  0  0  0  0  0  0  0  0  0  0  0
   15.9522   -2.6550   -3.0208 C   0  0  0  0  0  0  0  0  0  0  0  0
   16.4340   -1.6937   -3.9273 C   0  0  0  0  0  0  0  0  0  0  0  0
   16.3364   -0.3224   -3.6308 C   0  0  0  0  0  0  0  0  0  0  0  0
   15.7943    0.1250   -2.4073 C   0  0  0  0  0  0  0  0  0  0  0  0
   15.6711    1.5693   -2.0915 C   0  0  0  0  0  0  0  0  0  0  0  0
   15.3832    2.0354   -0.7903 C   0  0  0  0  0  0  0  0  0  0  0  0
   15.3534    3.4188   -0.5357 C   0  0  0  0  0  0  0  0  0  0  0  0
   15.5968    4.3049   -1.5946 C   0  0  0  0  0  0  0  0  0  0  0  0
   15.8275    3.8920   -2.8511 N   0  0  0  0  0  0  0  0  0  0  0  0
   15.8598    2.5642   -3.0762 C   0  0  0  0  0  0  0  0  0  0  0  0
   15.3327   -0.8573   -1.5012 C   0  0  0  0  0  0  0  0  0  0  0  0
   13.2767   -3.0094   -0.6368 C   0  0  0  0  0  0  0  0  0  0  0  0
   12.3981   -3.0674   -1.5055 O   0  0  0  0  0  0  0  0  0  0  0  0
    0.0000    0.0000    0.0000 H   0  0  0  0  0  0  0  0  0  0  0  0
    0.0000    0.0000    0.0000 H   0  0  0  0  0  0  0  0  0  0  0  0
    0.0000    0.0000    0.0000 H   0  0  0  0  0  0  0  0  0  0  0  0
    0.0000    0.0000    0.0000 H   0  0  0  0  0  0  0  0  0  0  0  0
    0.0000    0.0000    0.0000 H   0  0  0  0  0  0  0  0  0  0  0  0
    0.0000    0.0000    0.0000 H   0  0  0  0  0  0  0  0  0  0  0  0
    0.0000    0.0000    0.0000 H   0  0  0  0  0  0  0  0  0  0  0  0
    0.0000    0.0000    0.0000 H   0  0  0  0  0  0  0  0  0  0  0  0
    0.0000    0.0000    0.0000 H   0  0  0  0  0  0  0  0  0  0  0  0
    0.0000    0.0000    0.0000 H   0  0  0  0  0  0  0  0  0  0  0  0
    0.0000    0.0000    0.0000 H   0  0  0  0  0  0  0  0  0  0  0  0
    0.0000    0.0000    0.0000 H   0  0  0  0  0  0  0  0  0  0  0  0
    0.0000    0.0000    0.0000 H   0  0  0  0  0  0  0  0  0  0  0  0
    0.0000    0.0000    0.0000 H   0  0  0  0  0  0  0  0  0  0  0  0
    6.9944   -1.5372   -0.3723 N   0  0  0  0  0  0  0  0  0  0  0  0
    6.4032   -0.3722   -0.1075 C   0  0  0  0  0  0  0  0  0  0  0  0
    5.0471   -0.5758   -0.1484 C   0  0  0  0  0  0  0  0  0  0  0  0
    4.8538   -1.8957   -0.4452 N   0  0  0  0  0  0  0  0  0  0  0  0
    6.0571   -2.4820   -0.5818 C   0  0  0  0  0  0  0  0  0  0  0  0
    6.2446   -3.9193   -0.9066 C   0  0  0  0  0  0  0  0  0  0  0  0
    6.8846    0.5520    0.0992 H   0  0  0  0  0  0  0  0  0  0  0  0
    4.2264    0.1044    0.0081 H   0  0  0  0  0  0  0  0  0  0  0  0
    6.3148   -4.0233   -2.0024 H   0  0  0  0  0  0  0  0  0  0  0  0
    7.1150   -4.3574   -0.3762 H   0  0  0  0  0  0  0  0  0  0  0  0
    5.3579   -4.4913   -0.5685 H   0  0  0  0  0  0  0  0  0  0  0  0
  1  2  1  0
  2  3  1  0
  2 19  1  0
  3  4  1  0
  3  5  2  0
  5  6  1  0
  6  7  1  0
  6 19  1  0
  7  8  2  0
  7 18  1  0
  8  9  1  0
  9 10  2  0
 10 11  1  0
 11 12  1  0
 11 18  2  0
 12 13  2  0
 12 17  1  0
 13 14  1  0
 14 15  2  0
 15 16  1  0
 16 17  2  0
 19 20  2  0
  1 21  1  0
  1 22  1  0
  1 23  1  0
  4 24  1  0
  4 25  1  0
  5 26  1  0
  8 27  1  0
  9 28  1  0
 10 29  1  0
 13 30  1  0
 14 31  1  0
 15 32  1  0
 17 33  1  0
 18 34  1  0
 35 36  1  0
 36 37  2  0
 37 38  1  0
 38 39  2  0
 39 40  1  0
 39 35  1  0
 36 41  1  0
 37 42  1  0
 40 43  1  0
 40 44  1  0
 40 45  1  0
  6 35  1  6
M  CHG  1   5   1
M  END
>  <attachment_point>  (249) 
26

>  <score>  (249) 
<NA>

$$$$
CAT-4j
     RDKit          3D

 55 58  0  0  1  0  0  0  0  0999 V2000
   11.7106   -2.3098    1.2658 C   0  0  0  0  0  0  0  0  0  0  0  0
   13.0313   -2.6523    0.7225 N   0  0  0  0  0  0  0  0  0  0  0  0
   14.2010   -2.6281    1.3773 C   0  0  0  0  0  0  0  0  0  0  0  0
   14.3777   -2.3568    2.6732 N   0  0  0  0  0  0  0  0  0  0  0  0
   15.2217   -2.9197    0.5738 N   0  0  0  0  0  0  0  0  0  0  0  0
   14.7965   -3.2519   -0.7875 C   0  0  1  0  0  0  0  0  0  0  0  0
   15.3794   -2.2443   -1.7949 C   0  0  0  0  0  0  0  0  0  0  0  0
   15.9522   -2.6550   -3.0208 C   0  0  0  0  0  0  0  0  0  0  0  0
   16.4340   -1.6937   -3.9273 C   0  0  0  0  0  0  0  0  0  0  0  0
   16.3364   -0.3224   -3.6308 C   0  0  0  0  0  0  0  0  0  0  0  0
   15.7943    0.1250   -2.4073 C   0  0  0  0  0  0  0  0  0  0  0  0
   15.6711    1.5693   -2.0915 C   0  0  0  0  0  0  0  0  0  0  0  0
   15.3832    2.0354   -0.7903 C   0  0  0  0  0  0  0  0  0  0  0  0
   15.3534    3.4188   -0.5357 C   0  0  0  0  0  0  0  0  0  0  0  0
   15.5968    4.3049   -1.5946 C   0  0  0  0  0  0  0  0  0  0  0  0
   15.8275    3.8920   -2.8511 N   0  0  0  0  0  0  0  0  0  0  0  0
   15.8598    2.5642   -3.0762 C   0  0  0  0  0  0  0  0  0  0  0  0
   15.3327   -0.8573   -1.5012 C   0  0  0  0  0  0  0  0  0  0  0  0
   13.2767   -3.0094   -0.6368 C   0  0  0  0  0  0  0  0  0  0  0  0
   12.3981   -3.0674   -1.5055 O   0  0  0  0  0  0  0  0  0  0  0  0
    0.0000    0.0000    0.0000 H   0  0  0  0  0  0  0  0  0  0  0  0
    0.0000    0.0000    0.0000 H   0  0  0  0  0  0  0  0  0  0  0  0
    0.0000    0.0000    0.0000 H   0  0  0  0  0  0  0  0  0  0  0  0
    0.0000    0.0000    0.0000 H   0  0  0  0  0  0  0  0  0  0  0  0
    0.0000    0.0000    0.0000 H   0  0  0  0  0  0  0  0  0  0  0  0
    0.0000    0.0000    0.0000 H   0  0  0  0  0  0  0  0  0  0  0  0
    0.0000    0.0000    0.0000 H   0  0  0  0  0  0  0  0  0  0  0  0
    0.0000    0.0000    0.0000 H   0  0  0  0  0  0  0  0  0  0  0  0
    0.0000    0.0000    0.0000 H   0  0  0  0  0  0  0  0  0  0  0  0
    0.0000    0.0000    0.0000 H   0  0  0  0  0  0  0  0  0  0  0  0
    0.0000    0.0000    0.0000 H   0  0  0  0  0  0  0  0  0  0  0  0
    0.0000    0.0000    0.0000 H   0  0  0  0  0  0  0  0  0  0  0  0
    0.0000    0.0000    0.0000 H   0  0  0  0  0  0  0  0  0  0  0  0
    0.0000    0.0000    0.0000 H   0  0  0  0  0  0  0  0  0  0  0  0
    6.9834   -1.5348   -0.3717 N   0  0  0  0  0  0  0  0  0  0  0  0
    6.9126   -0.5872    0.7127 C   0  0  0  0  0  0  0  0  0  0  0  0
    7.6564    0.6337    0.2240 C   0  0  0  0  0  0  0  0  0  0  0  0
    6.9059    1.2470   -0.8264 N   0  0  0  0  0  0  0  0  0  0  0  0
    5.7519    1.9756   -0.3783 C   0  0  0  0  0  0  0  0  0  0  0  0
    6.1252    3.2212    0.3853 C   0  0  0  0  0  0  0  0  0  0  0  0
    6.6628    0.3672   -1.9269 C   0  0  0  0  0  0  0  0  0  0  0  0
    6.4682   -1.0697   -1.6108 C   0  0  0  0  0  0  0  0  0  0  0  0
    5.8840   -0.3730    1.0269 H   0  0  0  0  0  0  0  0  0  0  0  0
    7.5018   -0.9963    1.5498 H   0  0  0  0  0  0  0  0  0  0  0  0
    8.5975    0.2391   -0.2467 H   0  0  0  0  0  0  0  0  0  0  0  0
    7.8992    1.3542    1.0142 H   0  0  0  0  0  0  0  0  0  0  0  0
    5.1992    2.2771   -1.3179 H   0  0  0  0  0  0  0  0  0  0  0  0
    5.1069    1.3110    0.1853 H   0  0  0  0  0  0  0  0  0  0  0  0
    7.1737    3.5386    0.1737 H   0  0  0  0  0  0  0  0  0  0  0  0
    5.9680    3.0027    1.4688 H   0  0  0  0  0  0  0  0  0  0  0  0
    5.3872    4.0042    0.1193 H   0  0  0  0  0  0  0  0  0  0  0  0
    5.7435    0.7482   -2.4480 H   0  0  0  0  0  0  0  0  0  0  0  0
    7.4834    0.5242   -2.6743 H   0  0  0  0  0  0  0  0  0  0  0  0
    6.9658   -1.6648   -2.4215 H   0  0  0  0  0  0  0  0  0  0  0  0
    5.3940   -1.3596   -1.6633 H   0  0  0  0  0  0  0  0  0  0  0  0
  1  2  1  0
  2  3  1  0
  2 19  1  0
  3  4  1  0
  3  5  2  0
  5  6  1  0
  6  7  1  0
  6 19  1  0
  7  8  2  0
  7 18  1  0
  8  9  1  0
  9 10  2  0
 10 11  1  0
 11 12  1  0
 11 18  2  0
 12 13  2  0
 12 17  1  0
 13 14  1  0
 14 15  2  0
 15 16  1  0
 16 17  2  0
 19 20  2  0
  1 21  1  0
  1 22  1  0
  1 23  1  0
  4 24  1  0
  4 25  1  0
  5 26  1  0
  8 27  1  0
  9 28  1  0
 10 29  1  0
 13 30  1  0
 14 31  1  0
 15 32  1  0
 17 33  1  0
 18 34  1  0
 35 36  1  0
 36 37  1  0
 37 38  1  0
 38 39  1  0
 39 40  1  0
 38 41  1  0
 41 42  1  0
 42 35  1  0
 36 43  1  0
 36 44  1  0
 37 45  1  0
 37 46  1  0
 39 47  1  0
 39 48  1  0
 40 49  1  0
 40 50  1  0
 40 51  1  0
 41 52  1  0
 41 53  1  0
 42 54  1  0
 42 55  1  0
  6 35  1  6
M  CHG  1   5   1
M  END
>  <attachment_point>  (250) 
26

>  <score>  (250) 
<NA>

$$$$
CAT-4j
     RDKit          3D

 59 64  0  0  1  0  0  0  0  0999 V2000
   11.7106   -2.3098    1.2658 C   0  0  0  0  0  0  0  0  0  0  0  0
   13.0313   -2.6523    0.7225 N   0  0  0  0  0  0  0  0  0  0  0  0
   14.2010   -2.6281    1.3773 C   0  0  0  0  0  0  0  0  0  0  0  0
   14.3777   -2.3568    2.6732 N   0  0  0  0  0  0  0  0  0  0  0  0
   15.2217   -2.9197    0.5738 N   0  0  0  0  0  0  0  0  0  0  0  0
   14.7965   -3.2519   -0.7875 C   0  0  1  0  0  0  0  0  0  0  0  0
   15.3794   -2.2443   -1.7949 C   0  0  0  0  0  0  0  0  0  0  0  0
   15.9522   -2.6550   -3.0208 C   0  0  0  0  0  0  0  0  0  0  0  0
   16.4340   -1.6937   -3.9273 C   0  0  0  0  0  0  0  0  0  0  0  0
   16.3364   -0.3224   -3.6308 C   0  0  0  0  0  0  0  0  0  0  0  0
   15.7943    0.1250   -2.4073 C   0  0  0  0  0  0  0  0  0  0  0  0
   15.6711    1.5693   -2.0915 C   0  0  0  0  0  0  0  0  0  0  0  0
   15.3832    2.0354   -0.7903 C   0  0  0  0  0  0  0  0  0  0  0  0
   15.3534    3.4188   -0.5357 C   0  0  0  0  0  0  0  0  0  0  0  0
   15.5968    4.3049   -1.5946 C   0  0  0  0  0  0  0  0  0  0  0  0
   15.8275    3.8920   -2.8511 N   0  0  0  0  0  0  0  0  0  0  0  0
   15.8598    2.5642   -3.0762 C   0  0  0  0  0  0  0  0  0  0  0  0
   15.3327   -0.8573   -1.5012 C   0  0  0  0  0  0  0  0  0  0  0  0
   13.2767   -3.0094   -0.6368 C   0  0  0  0  0  0  0  0  0  0  0  0
   12.3981   -3.0674   -1.5055 O   0  0  0  0  0  0  0  0  0  0  0  0
    0.0000    0.0000    0.0000 H   0  0  0  0  0  0  0  0  0  0  0  0
    0.0000    0.0000    0.0000 H   0  0  0  0  0  0  0  0  0  0  0  0
    0.0000    0.0000    0.0000 H   0  0  0  0  0  0  0  0  0  0  0  0
    0.0000    0.0000    0.0000 H   0  0  0  0  0  0  0  0  0  0  0  0
    0.0000    0.0000    0.0000 H   0  0  0  0  0  0  0  0  0  0  0  0
    0.0000    0.0000    0.0000 H   0  0  0  0  0  0  0  0  0  0  0  0
    0.0000    0.0000    0.0000 H   0  0  0  0  0  0  0  0  0  0  0  0
    0.0000    0.0000    0.0000 H   0  0  0  0  0  0  0  0  0  0  0  0
    0.0000    0.0000    0.0000 H   0  0  0  0  0  0  0  0  0  0  0  0
    0.0000    0.0000    0.0000 H   0  0  0  0  0  0  0  0  0  0  0  0
    0.0000    0.0000    0.0000 H   0  0  0  0  0  0  0  0  0  0  0  0
    0.0000    0.0000    0.0000 H   0  0  0  0  0  0  0  0  0  0  0  0
    0.0000    0.0000    0.0000 H   0  0  0  0  0  0  0  0  0  0  0  0
    0.0000    0.0000    0.0000 H   0  0  0  0  0  0  0  0  0  0  0  0
    6.9867   -1.5355   -0.3718 C   0  0  2  0  0  0  0  0  0  0  0  0
    6.2005   -2.6610    0.2569 C   0  0  0  0  0  0  0  0  0  0  0  0
    4.7658   -2.2564    0.4256 C   0  0  1  0  0  0  0  0  0  0  0  0
    4.7158   -0.9933    1.2494 C   0  0  0  0  0  0  0  0  0  0  0  0
    5.3917    0.1336    0.5201 C   0  0  2  0  0  0  0  0  0  0  0  0
    4.8699    0.3543   -0.8658 C   0  0  0  0  0  0  0  0  0  0  0  0
    4.9532   -0.9498   -1.6492 C   0  0  2  0  0  0  0  0  0  0  0  0
    4.1280   -1.9608   -0.9061 C   0  0  0  0  0  0  0  0  0  0  0  0
    6.4017   -1.3240   -1.7640 C   0  0  0  0  0  0  0  0  0  0  0  0
    6.8655   -0.2421    0.3922 C   0  0  0  0  0  0  0  0  0  0  0  0
    6.2077   -3.4979   -0.4983 H   0  0  0  0  0  0  0  0  0  0  0  0
    6.6341   -3.0409    1.1861 H   0  0  0  0  0  0  0  0  0  0  0  0
    4.2258   -3.0610    0.9559 H   0  0  0  0  0  0  0  0  0  0  0  0
    3.7129   -0.7493    1.6246 H   0  0  0  0  0  0  0  0  0  0  0  0
    5.3390   -1.1997    2.1659 H   0  0  0  0  0  0  0  0  0  0  0  0
    5.2899    1.0686    1.0992 H   0  0  0  0  0  0  0  0  0  0  0  0
    5.5633    1.0576   -1.3776 H   0  0  0  0  0  0  0  0  0  0  0  0
    3.8516    0.7799   -0.8667 H   0  0  0  0  0  0  0  0  0  0  0  0
    4.5487   -0.8470   -2.6660 H   0  0  0  0  0  0  0  0  0  0  0  0
    3.8850   -2.8540   -1.4940 H   0  0  0  0  0  0  0  0  0  0  0  0
    3.1491   -1.4461   -0.6715 H   0  0  0  0  0  0  0  0  0  0  0  0
    6.5734   -2.2281   -2.3676 H   0  0  0  0  0  0  0  0  0  0  0  0
    6.9352   -0.4369   -2.1801 H   0  0  0  0  0  0  0  0  0  0  0  0
    7.3480   -0.3132    1.3797 H   0  0  0  0  0  0  0  0  0  0  0  0
    7.3171    0.5505   -0.2583 H   0  0  0  0  0  0  0  0  0  0  0  0
  1  2  1  0
  2  3  1  0
  2 19  1  0
  3  4  1  0
  3  5  2  0
  5  6  1  0
  6  7  1  1
  6 19  1  0
  7  8  2  0
  7 18  1  0
  8  9  1  0
  9 10  2  0
 10 11  1  0
 11 12  1  0
 11 18  2  0
 12 13  2  0
 12 17  1  0
 13 14  1  0
 14 15  2  0
 15 16  1  0
 16 17  2  0
 19 20  2  0
  1 21  1  0
  1 22  1  0
  1 23  1  0
  4 24  1  0
  4 25  1  0
  5 26  1  0
  8 27  1  0
  9 28  1  0
 10 29  1  0
 13 30  1  0
 14 31  1  0
 15 32  1  0
 17 33  1  0
 18 34  1  0
 35 36  1  6
 36 37  1  0
 37 38  1  0
 38 39  1  0
 39 40  1  0
 40 41  1  0
 41 42  1  0
 41 43  1  0
 39 44  1  0
 43 35  1  0
 44 35  1  0
 42 37  1  0
 36 45  1  0
 36 46  1  0
 37 47  1  1
 38 48  1  0
 38 49  1  0
 39 50  1  1
 40 51  1  0
 40 52  1  0
 41 53  1  6
 42 54  1  0
 42 55  1  0
 43 56  1  0
 43 57  1  0
 44 58  1  0
 44 59  1  0
  6 35  1  0
M  CHG  1   5   1
M  END
>  <attachment_point>  (251) 
26

>  <score>  (251) 
<NA>

$$$$
CAT-4j
     RDKit          3D

 44 46  0  0  1  0  0  0  0  0999 V2000
   11.7106   -2.3098    1.2658 C   0  0  0  0  0  0  0  0  0  0  0  0
   13.0313   -2.6523    0.7225 N   0  0  0  0  0  0  0  0  0  0  0  0
   14.2010   -2.6281    1.3773 C   0  0  0  0  0  0  0  0  0  0  0  0
   14.3777   -2.3568    2.6732 N   0  0  0  0  0  0  0  0  0  0  0  0
   15.2217   -2.9197    0.5738 N   0  0  0  0  0  0  0  0  0  0  0  0
   14.7965   -3.2519   -0.7875 C   0  0  1  0  0  0  0  0  0  0  0  0
   15.3794   -2.2443   -1.7949 C   0  0  0  0  0  0  0  0  0  0  0  0
   15.9522   -2.6550   -3.0208 C   0  0  0  0  0  0  0  0  0  0  0  0
   16.4340   -1.6937   -3.9273 C   0  0  0  0  0  0  0  0  0  0  0  0
   16.3364   -0.3224   -3.6308 C   0  0  0  0  0  0  0  0  0  0  0  0
   15.7943    0.1250   -2.4073 C   0  0  0  0  0  0  0  0  0  0  0  0
   15.6711    1.5693   -2.0915 C   0  0  0  0  0  0  0  0  0  0  0  0
   15.3832    2.0354   -0.7903 C   0  0  0  0  0  0  0  0  0  0  0  0
   15.3534    3.4188   -0.5357 C   0  0  0  0  0  0  0  0  0  0  0  0
   15.5968    4.3049   -1.5946 C   0  0  0  0  0  0  0  0  0  0  0  0
   15.8275    3.8920   -2.8511 N   0  0  0  0  0  0  0  0  0  0  0  0
   15.8598    2.5642   -3.0762 C   0  0  0  0  0  0  0  0  0  0  0  0
   15.3327   -0.8573   -1.5012 C   0  0  0  0  0  0  0  0  0  0  0  0
   13.2767   -3.0094   -0.6368 C   0  0  0  0  0  0  0  0  0  0  0  0
   12.3981   -3.0674   -1.5055 O   0  0  0  0  0  0  0  0  0  0  0  0
    0.0000    0.0000    0.0000 H   0  0  0  0  0  0  0  0  0  0  0  0
    0.0000    0.0000    0.0000 H   0  0  0  0  0  0  0  0  0  0  0  0
    0.0000    0.0000    0.0000 H   0  0  0  0  0  0  0  0  0  0  0  0
    0.0000    0.0000    0.0000 H   0  0  0  0  0  0  0  0  0  0  0  0
    0.0000    0.0000    0.0000 H   0  0  0  0  0  0  0  0  0  0  0  0
    0.0000    0.0000    0.0000 H   0  0  0  0  0  0  0  0  0  0  0  0
    0.0000    0.0000    0.0000 H   0  0  0  0  0  0  0  0  0  0  0  0
    0.0000    0.0000    0.0000 H   0  0  0  0  0  0  0  0  0  0  0  0
    0.0000    0.0000    0.0000 H   0  0  0  0  0  0  0  0  0  0  0  0
    0.0000    0.0000    0.0000 H   0  0  0  0  0  0  0  0  0  0  0  0
    0.0000    0.0000    0.0000 H   0  0  0  0  0  0  0  0  0  0  0  0
    0.0000    0.0000    0.0000 H   0  0  0  0  0  0  0  0  0  0  0  0
    0.0000    0.0000    0.0000 H   0  0  0  0  0  0  0  0  0  0  0  0
    0.0000    0.0000    0.0000 H   0  0  0  0  0  0  0  0  0  0  0  0
    6.9536   -1.5282   -0.3701 C   0  0  1  0  0  0  0  0  0  0  0  0
    6.2725   -2.0950   -1.5857 C   0  0  0  0  0  0  0  0  0  0  0  0
    6.3927   -2.0443    0.8946 C   0  0  0  0  0  0  0  0  0  0  0  0
    5.8771   -1.2545    1.7554 O   0  0  0  0  0  0  0  0  0  0  0  0
    6.3781   -3.3861    1.2446 O   0  0  0  0  0  0  0  0  0  0  0  0
    6.9558   -0.4359   -0.3292 H   0  0  0  0  0  0  0  0  0  0  0  0
    6.9809   -2.7039   -2.2106 H   0  0  0  0  0  0  0  0  0  0  0  0
    5.9029   -1.2646   -2.2077 H   0  0  0  0  0  0  0  0  0  0  0  0
    5.4416   -2.7236   -1.2658 H   0  0  0  0  0  0  0  0  0  0  0  0
    6.6352   -3.6947    2.1757 H   0  0  0  0  0  0  0  0  0  0  0  0
  1  2  1  0
  2  3  1  0
  2 19  1  0
  3  4  1  0
  3  5  2  0
  5  6  1  0
  6  7  1  1
  6 19  1  0
  7  8  2  0
  7 18  1  0
  8  9  1  0
  9 10  2  0
 10 11  1  0
 11 12  1  0
 11 18  2  0
 12 13  2  0
 12 17  1  0
 13 14  1  0
 14 15  2  0
 15 16  1  0
 16 17  2  0
 19 20  2  0
  1 21  1  0
  1 22  1  0
  1 23  1  0
  4 24  1  0
  4 25  1  0
  5 26  1  0
  8 27  1  0
  9 28  1  0
 10 29  1  0
 13 30  1  0
 14 31  1  0
 15 32  1  0
 17 33  1  0
 18 34  1  0
 35 36  1  0
 35 37  1  0
 37 38  2  0
 37 39  1  0
 35 40  1  6
 36 41  1  0
 36 42  1  0
 36 43  1  0
 39 44  1  0
  6 35  1  0
M  CHG  1   5   1
M  END
>  <attachment_point>  (252) 
26

>  <score>  (252) 
<NA>

$$$$
CAT-4j
     RDKit          3D

 45 48  0  0  1  0  0  0  0  0999 V2000
   11.7106   -2.3098    1.2658 C   0  0  0  0  0  0  0  0  0  0  0  0
   13.0313   -2.6523    0.7225 N   0  0  0  0  0  0  0  0  0  0  0  0
   14.2010   -2.6281    1.3773 C   0  0  0  0  0  0  0  0  0  0  0  0
   14.3777   -2.3568    2.6732 N   0  0  0  0  0  0  0  0  0  0  0  0
   15.2217   -2.9197    0.5738 N   0  0  0  0  0  0  0  0  0  0  0  0
   14.7965   -3.2519   -0.7875 C   0  0  1  0  0  0  0  0  0  0  0  0
   15.3794   -2.2443   -1.7949 C   0  0  0  0  0  0  0  0  0  0  0  0
   15.9522   -2.6550   -3.0208 C   0  0  0  0  0  0  0  0  0  0  0  0
   16.4340   -1.6937   -3.9273 C   0  0  0  0  0  0  0  0  0  0  0  0
   16.3364   -0.3224   -3.6308 C   0  0  0  0  0  0  0  0  0  0  0  0
   15.7943    0.1250   -2.4073 C   0  0  0  0  0  0  0  0  0  0  0  0
   15.6711    1.5693   -2.0915 C   0  0  0  0  0  0  0  0  0  0  0  0
   15.3832    2.0354   -0.7903 C   0  0  0  0  0  0  0  0  0  0  0  0
   15.3534    3.4188   -0.5357 C   0  0  0  0  0  0  0  0  0  0  0  0
   15.5968    4.3049   -1.5946 C   0  0  0  0  0  0  0  0  0  0  0  0
   15.8275    3.8920   -2.8511 N   0  0  0  0  0  0  0  0  0  0  0  0
   15.8598    2.5642   -3.0762 C   0  0  0  0  0  0  0  0  0  0  0  0
   15.3327   -0.8573   -1.5012 C   0  0  0  0  0  0  0  0  0  0  0  0
   13.2767   -3.0094   -0.6368 C   0  0  0  0  0  0  0  0  0  0  0  0
   12.3981   -3.0674   -1.5055 O   0  0  0  0  0  0  0  0  0  0  0  0
    0.0000    0.0000    0.0000 H   0  0  0  0  0  0  0  0  0  0  0  0
    0.0000    0.0000    0.0000 H   0  0  0  0  0  0  0  0  0  0  0  0
    0.0000    0.0000    0.0000 H   0  0  0  0  0  0  0  0  0  0  0  0
    0.0000    0.0000    0.0000 H   0  0  0  0  0  0  0  0  0  0  0  0
    0.0000    0.0000    0.0000 H   0  0  0  0  0  0  0  0  0  0  0  0
    0.0000    0.0000    0.0000 H   0  0  0  0  0  0  0  0  0  0  0  0
    0.0000    0.0000    0.0000 H   0  0  0  0  0  0  0  0  0  0  0  0
    0.0000    0.0000    0.0000 H   0  0  0  0  0  0  0  0  0  0  0  0
    0.0000    0.0000    0.0000 H   0  0  0  0  0  0  0  0  0  0  0  0
    0.0000    0.0000    0.0000 H   0  0  0  0  0  0  0  0  0  0  0  0
    0.0000    0.0000    0.0000 H   0  0  0  0  0  0  0  0  0  0  0  0
    0.0000    0.0000    0.0000 H   0  0  0  0  0  0  0  0  0  0  0  0
    0.0000    0.0000    0.0000 H   0  0  0  0  0  0  0  0  0  0  0  0
    0.0000    0.0000    0.0000 H   0  0  0  0  0  0  0  0  0  0  0  0
    6.9581   -1.5292   -0.3703 C   0  0  0  0  0  0  0  0  0  0  0  0
    6.0327   -2.5475   -0.4882 C   0  0  0  0  0  0  0  0  0  0  0  0
    4.7034   -2.1817   -0.4075 C   0  0  0  0  0  0  0  0  0  0  0  0
    3.7547   -3.1638   -0.5198 F   0  0  0  0  0  0  0  0  0  0  0  0
    4.3190   -0.8676   -0.2190 C   0  0  0  0  0  0  0  0  0  0  0  0
    5.2588    0.1367   -0.1035 C   0  0  0  0  0  0  0  0  0  0  0  0
    4.8855    1.4337    0.0824 F   0  0  0  0  0  0  0  0  0  0  0  0
    6.5906   -0.2121   -0.1819 C   0  0  0  0  0  0  0  0  0  0  0  0
    6.3394   -3.5753   -0.6357 H   0  0  0  0  0  0  0  0  0  0  0  0
    3.2739   -0.5803   -0.1556 H   0  0  0  0  0  0  0  0  0  0  0  0
    7.3452    0.5822   -0.0907 H   0  0  0  0  0  0  0  0  0  0  0  0
  1  2  1  0
  2  3  1  0
  2 19  1  0
  3  4  1  0
  3  5  2  0
  5  6  1  0
  6  7  1  1
  6 19  1  0
  7  8  2  0
  7 18  1  0
  8  9  1  0
  9 10  2  0
 10 11  1  0
 11 12  1  0
 11 18  2  0
 12 13  2  0
 12 17  1  0
 13 14  1  0
 14 15  2  0
 15 16  1  0
 16 17  2  0
 19 20  2  0
  1 21  1  0
  1 22  1  0
  1 23  1  0
  4 24  1  0
  4 25  1  0
  5 26  1  0
  8 27  1  0
  9 28  1  0
 10 29  1  0
 13 30  1  0
 14 31  1  0
 15 32  1  0
 17 33  1  0
 18 34  1  0
 35 36  2  0
 36 37  1  0
 37 38  1  0
 37 39  2  0
 39 40  1  0
 40 41  1  0
 40 42  2  0
 42 35  1  0
 36 43  1  0
 39 44  1  0
 42 45  1  0
  6 35  1  0
M  CHG  1   5   1
M  END
>  <attachment_point>  (253) 
26

>  <score>  (253) 
<NA>

$$$$
CAT-4j
     RDKit          3D

 48 51  0  0  1  0  0  0  0  0999 V2000
   11.7106   -2.3098    1.2658 C   0  0  0  0  0  0  0  0  0  0  0  0
   13.0313   -2.6523    0.7225 N   0  0  0  0  0  0  0  0  0  0  0  0
   14.2010   -2.6281    1.3773 C   0  0  0  0  0  0  0  0  0  0  0  0
   14.3777   -2.3568    2.6732 N   0  0  0  0  0  0  0  0  0  0  0  0
   15.2217   -2.9197    0.5738 N   0  0  0  0  0  0  0  0  0  0  0  0
   14.7965   -3.2519   -0.7875 C   0  0  1  0  0  0  0  0  0  0  0  0
   15.3794   -2.2443   -1.7949 C   0  0  0  0  0  0  0  0  0  0  0  0
   15.9522   -2.6550   -3.0208 C   0  0  0  0  0  0  0  0  0  0  0  0
   16.4340   -1.6937   -3.9273 C   0  0  0  0  0  0  0  0  0  0  0  0
   16.3364   -0.3224   -3.6308 C   0  0  0  0  0  0  0  0  0  0  0  0
   15.7943    0.1250   -2.4073 C   0  0  0  0  0  0  0  0  0  0  0  0
   15.6711    1.5693   -2.0915 C   0  0  0  0  0  0  0  0  0  0  0  0
   15.3832    2.0354   -0.7903 C   0  0  0  0  0  0  0  0  0  0  0  0
   15.3534    3.4188   -0.5357 C   0  0  0  0  0  0  0  0  0  0  0  0
   15.5968    4.3049   -1.5946 C   0  0  0  0  0  0  0  0  0  0  0  0
   15.8275    3.8920   -2.8511 N   0  0  0  0  0  0  0  0  0  0  0  0
   15.8598    2.5642   -3.0762 C   0  0  0  0  0  0  0  0  0  0  0  0
   15.3327   -0.8573   -1.5012 C   0  0  0  0  0  0  0  0  0  0  0  0
   13.2767   -3.0094   -0.6368 C   0  0  0  0  0  0  0  0  0  0  0  0
   12.3981   -3.0674   -1.5055 O   0  0  0  0  0  0  0  0  0  0  0  0
    0.0000    0.0000    0.0000 H   0  0  0  0  0  0  0  0  0  0  0  0
    0.0000    0.0000    0.0000 H   0  0  0  0  0  0  0  0  0  0  0  0
    0.0000    0.0000    0.0000 H   0  0  0  0  0  0  0  0  0  0  0  0
    0.0000    0.0000    0.0000 H   0  0  0  0  0  0  0  0  0  0  0  0
    0.0000    0.0000    0.0000 H   0  0  0  0  0  0  0  0  0  0  0  0
    0.0000    0.0000    0.0000 H   0  0  0  0  0  0  0  0  0  0  0  0
    0.0000    0.0000    0.0000 H   0  0  0  0  0  0  0  0  0  0  0  0
    0.0000    0.0000    0.0000 H   0  0  0  0  0  0  0  0  0  0  0  0
    0.0000    0.0000    0.0000 H   0  0  0  0  0  0  0  0  0  0  0  0
    0.0000    0.0000    0.0000 H   0  0  0  0  0  0  0  0  0  0  0  0
    0.0000    0.0000    0.0000 H   0  0  0  0  0  0  0  0  0  0  0  0
    0.0000    0.0000    0.0000 H   0  0  0  0  0  0  0  0  0  0  0  0
    0.0000    0.0000    0.0000 H   0  0  0  0  0  0  0  0  0  0  0  0
    0.0000    0.0000    0.0000 H   0  0  0  0  0  0  0  0  0  0  0  0
    6.9769   -1.5334   -0.3713 C   0  0  0  0  0  0  0  0  0  0  0  0
    6.1759   -2.6541   -0.9325 C   0  0  0  0  0  0  0  0  0  0  0  0
    5.8344   -2.7079   -2.2769 C   0  0  0  0  0  0  0  0  0  0  0  0
    5.0885   -3.7538   -2.7938 C   0  0  0  0  0  0  0  0  0  0  0  0
    4.6516   -4.7876   -1.9991 C   0  0  0  0  0  0  0  0  0  0  0  0
    4.9857   -4.7431   -0.6625 C   0  0  0  0  0  0  0  0  0  0  0  0
    4.4360   -6.0605    0.3809 Cl  0  0  0  0  0  0  0  0  0  0  0  0
    5.7316   -3.6976   -0.1448 C   0  0  0  0  0  0  0  0  0  0  0  0
    6.6594   -1.2397    0.6411 H   0  0  0  0  0  0  0  0  0  0  0  0
    6.8482   -0.6197   -1.0159 H   0  0  0  0  0  0  0  0  0  0  0  0
    6.1854   -1.8858   -2.8936 H   0  0  0  0  0  0  0  0  0  0  0  0
    4.8371   -3.7694   -3.8462 H   0  0  0  0  0  0  0  0  0  0  0  0
    4.0674   -5.6215   -2.3656 H   0  0  0  0  0  0  0  0  0  0  0  0
    5.9881   -3.6737    0.9081 H   0  0  0  0  0  0  0  0  0  0  0  0
  1  2  1  0
  2  3  1  0
  2 19  1  0
  3  4  1  0
  3  5  2  0
  5  6  1  0
  6  7  1  0
  6 19  1  0
  7  8  2  0
  7 18  1  0
  8  9  1  0
  9 10  2  0
 10 11  1  0
 11 12  1  0
 11 18  2  0
 12 13  2  0
 12 17  1  0
 13 14  1  0
 14 15  2  0
 15 16  1  0
 16 17  2  0
 19 20  2  0
  1 21  1  0
  1 22  1  0
  1 23  1  0
  4 24  1  0
  4 25  1  0
  5 26  1  0
  8 27  1  0
  9 28  1  0
 10 29  1  0
 13 30  1  0
 14 31  1  0
 15 32  1  0
 17 33  1  0
 18 34  1  0
 35 36  1  0
 36 37  2  0
 37 38  1  0
 38 39  2  0
 39 40  1  0
 40 41  1  0
 40 42  2  0
 42 36  1  0
 35 43  1  0
 35 44  1  0
 37 45  1  0
 38 46  1  0
 39 47  1  0
 42 48  1  0
  6 35  1  6
M  CHG  1   5   1
M  END
>  <attachment_point>  (254) 
26

>  <score>  (254) 
<NA>

$$$$
CAT-4j
     RDKit          3D

 45 48  0  0  1  0  0  0  0  0999 V2000
   11.7106   -2.3098    1.2658 C   0  0  0  0  0  0  0  0  0  0  0  0
   13.0313   -2.6523    0.7225 N   0  0  0  0  0  0  0  0  0  0  0  0
   14.2010   -2.6281    1.3773 C   0  0  0  0  0  0  0  0  0  0  0  0
   14.3777   -2.3568    2.6732 N   0  0  0  0  0  0  0  0  0  0  0  0
   15.2217   -2.9197    0.5738 N   0  0  0  0  0  0  0  0  0  0  0  0
   14.7965   -3.2519   -0.7875 C   0  0  1  0  0  0  0  0  0  0  0  0
   15.3794   -2.2443   -1.7949 C   0  0  0  0  0  0  0  0  0  0  0  0
   15.9522   -2.6550   -3.0208 C   0  0  0  0  0  0  0  0  0  0  0  0
   16.4340   -1.6937   -3.9273 C   0  0  0  0  0  0  0  0  0  0  0  0
   16.3364   -0.3224   -3.6308 C   0  0  0  0  0  0  0  0  0  0  0  0
   15.7943    0.1250   -2.4073 C   0  0  0  0  0  0  0  0  0  0  0  0
   15.6711    1.5693   -2.0915 C   0  0  0  0  0  0  0  0  0  0  0  0
   15.3832    2.0354   -0.7903 C   0  0  0  0  0  0  0  0  0  0  0  0
   15.3534    3.4188   -0.5357 C   0  0  0  0  0  0  0  0  0  0  0  0
   15.5968    4.3049   -1.5946 C   0  0  0  0  0  0  0  0  0  0  0  0
   15.8275    3.8920   -2.8511 N   0  0  0  0  0  0  0  0  0  0  0  0
   15.8598    2.5642   -3.0762 C   0  0  0  0  0  0  0  0  0  0  0  0
   15.3327   -0.8573   -1.5012 C   0  0  0  0  0  0  0  0  0  0  0  0
   13.2767   -3.0094   -0.6368 C   0  0  0  0  0  0  0  0  0  0  0  0
   12.3981   -3.0674   -1.5055 O   0  0  0  0  0  0  0  0  0  0  0  0
    0.0000    0.0000    0.0000 H   0  0  0  0  0  0  0  0  0  0  0  0
    0.0000    0.0000    0.0000 H   0  0  0  0  0  0  0  0  0  0  0  0
    0.0000    0.0000    0.0000 H   0  0  0  0  0  0  0  0  0  0  0  0
    0.0000    0.0000    0.0000 H   0  0  0  0  0  0  0  0  0  0  0  0
    0.0000    0.0000    0.0000 H   0  0  0  0  0  0  0  0  0  0  0  0
    0.0000    0.0000    0.0000 H   0  0  0  0  0  0  0  0  0  0  0  0
    0.0000    0.0000    0.0000 H   0  0  0  0  0  0  0  0  0  0  0  0
    0.0000    0.0000    0.0000 H   0  0  0  0  0  0  0  0  0  0  0  0
    0.0000    0.0000    0.0000 H   0  0  0  0  0  0  0  0  0  0  0  0
    0.0000    0.0000    0.0000 H   0  0  0  0  0  0  0  0  0  0  0  0
    0.0000    0.0000    0.0000 H   0  0  0  0  0  0  0  0  0  0  0  0
    0.0000    0.0000    0.0000 H   0  0  0  0  0  0  0  0  0  0  0  0
    0.0000    0.0000    0.0000 H   0  0  0  0  0  0  0  0  0  0  0  0
    0.0000    0.0000    0.0000 H   0  0  0  0  0  0  0  0  0  0  0  0
    6.8863   -1.5134   -0.3665 C   0  0  0  0  0  0  0  0  0  0  0  0
    6.3387   -1.4273    0.8453 C   0  0  0  0  0  0  0  0  0  0  0  0
    4.9585   -1.1240    0.9155 C   0  0  0  0  0  0  0  0  0  0  0  0
    4.2635   -0.9363   -0.2565 C   0  0  0  0  0  0  0  0  0  0  0  0
    2.9178   -0.6396   -0.2178 F   0  0  0  0  0  0  0  0  0  0  0  0
    4.8763   -1.0363   -1.4874 C   0  0  0  0  0  0  0  0  0  0  0  0
    4.2070   -0.8553   -2.6257 F   0  0  0  0  0  0  0  0  0  0  0  0
    6.2588   -1.3410   -1.5303 C   0  0  0  0  0  0  0  0  0  0  0  0
    6.9146   -1.5806    1.7416 H   0  0  0  0  0  0  0  0  0  0  0  0
    4.5000   -1.0505    1.8854 H   0  0  0  0  0  0  0  0  0  0  0  0
    6.7296   -1.4171   -2.4998 H   0  0  0  0  0  0  0  0  0  0  0  0
  1  2  1  0
  2  3  1  0
  2 19  1  0
  3  4  1  0
  3  5  2  0
  5  6  1  0
  6  7  1  1
  6 19  1  0
  7  8  2  0
  7 18  1  0
  8  9  1  0
  9 10  2  0
 10 11  1  0
 11 12  1  0
 11 18  2  0
 12 13  2  0
 12 17  1  0
 13 14  1  0
 14 15  2  0
 15 16  1  0
 16 17  2  0
 19 20  2  0
  1 21  1  0
  1 22  1  0
  1 23  1  0
  4 24  1  0
  4 25  1  0
  5 26  1  0
  8 27  1  0
  9 28  1  0
 10 29  1  0
 13 30  1  0
 14 31  1  0
 15 32  1  0
 17 33  1  0
 18 34  1  0
 35 36  2  0
 36 37  1  0
 37 38  2  0
 38 39  1  0
 38 40  1  0
 40 41  1  0
 40 42  2  0
 42 35  1  0
 36 43  1  0
 37 44  1  0
 42 45  1  0
  6 35  1  0
M  CHG  1   5   1
M  END
>  <attachment_point>  (255) 
26

>  <score>  (255) 
<NA>

$$$$
CAT-4j
     RDKit          3D

 51 54  0  0  1  0  0  0  0  0999 V2000
   11.7106   -2.3098    1.2658 C   0  0  0  0  0  0  0  0  0  0  0  0
   13.0313   -2.6523    0.7225 N   0  0  0  0  0  0  0  0  0  0  0  0
   14.2010   -2.6281    1.3773 C   0  0  0  0  0  0  0  0  0  0  0  0
   14.3777   -2.3568    2.6732 N   0  0  0  0  0  0  0  0  0  0  0  0
   15.2217   -2.9197    0.5738 N   0  0  0  0  0  0  0  0  0  0  0  0
   14.7965   -3.2519   -0.7875 C   0  0  1  0  0  0  0  0  0  0  0  0
   15.3794   -2.2443   -1.7949 C   0  0  0  0  0  0  0  0  0  0  0  0
   15.9522   -2.6550   -3.0208 C   0  0  0  0  0  0  0  0  0  0  0  0
   16.4340   -1.6937   -3.9273 C   0  0  0  0  0  0  0  0  0  0  0  0
   16.3364   -0.3224   -3.6308 C   0  0  0  0  0  0  0  0  0  0  0  0
   15.7943    0.1250   -2.4073 C   0  0  0  0  0  0  0  0  0  0  0  0
   15.6711    1.5693   -2.0915 C   0  0  0  0  0  0  0  0  0  0  0  0
   15.3832    2.0354   -0.7903 C   0  0  0  0  0  0  0  0  0  0  0  0
   15.3534    3.4188   -0.5357 C   0  0  0  0  0  0  0  0  0  0  0  0
   15.5968    4.3049   -1.5946 C   0  0  0  0  0  0  0  0  0  0  0  0
   15.8275    3.8920   -2.8511 N   0  0  0  0  0  0  0  0  0  0  0  0
   15.8598    2.5642   -3.0762 C   0  0  0  0  0  0  0  0  0  0  0  0
   15.3327   -0.8573   -1.5012 C   0  0  0  0  0  0  0  0  0  0  0  0
   13.2767   -3.0094   -0.6368 C   0  0  0  0  0  0  0  0  0  0  0  0
   12.3981   -3.0674   -1.5055 O   0  0  0  0  0  0  0  0  0  0  0  0
    0.0000    0.0000    0.0000 H   0  0  0  0  0  0  0  0  0  0  0  0
    0.0000    0.0000    0.0000 H   0  0  0  0  0  0  0  0  0  0  0  0
    0.0000    0.0000    0.0000 H   0  0  0  0  0  0  0  0  0  0  0  0
    0.0000    0.0000    0.0000 H   0  0  0  0  0  0  0  0  0  0  0  0
    0.0000    0.0000    0.0000 H   0  0  0  0  0  0  0  0  0  0  0  0
    0.0000    0.0000    0.0000 H   0  0  0  0  0  0  0  0  0  0  0  0
    0.0000    0.0000    0.0000 H   0  0  0  0  0  0  0  0  0  0  0  0
    0.0000    0.0000    0.0000 H   0  0  0  0  0  0  0  0  0  0  0  0
    0.0000    0.0000    0.0000 H   0  0  0  0  0  0  0  0  0  0  0  0
    0.0000    0.0000    0.0000 H   0  0  0  0  0  0  0  0  0  0  0  0
    0.0000    0.0000    0.0000 H   0  0  0  0  0  0  0  0  0  0  0  0
    0.0000    0.0000    0.0000 H   0  0  0  0  0  0  0  0  0  0  0  0
    0.0000    0.0000    0.0000 H   0  0  0  0  0  0  0  0  0  0  0  0
    0.0000    0.0000    0.0000 H   0  0  0  0  0  0  0  0  0  0  0  0
    6.9266   -1.5223   -0.3687 N   0  0  0  0  0  0  0  0  0  0  0  0
    6.6199   -0.1712   -0.1388 C   0  0  0  0  0  0  0  0  0  0  0  0
    7.5323    0.6708   -0.0140 O   0  0  0  0  0  0  0  0  0  0  0  0
    5.2723    0.2635   -0.0441 N   0  0  0  0  0  0  0  0  0  0  0  0
    4.8427    1.5769    0.1816 C   0  0  0  0  0  0  0  0  0  0  0  0
    5.6248    2.6789    0.3518 C   0  0  0  0  0  0  0  0  0  0  0  0
    5.0909    3.9502    0.5722 C   0  0  0  0  0  0  0  0  0  0  0  0
    3.7193    4.1256    0.6242 C   0  0  0  0  0  0  0  0  0  0  0  0
    2.9203    3.0417    0.4572 C   0  0  0  0  0  0  0  0  0  0  0  0
    3.4526    1.7894    0.2401 C   0  0  0  0  0  0  0  0  0  0  0  0
    6.3142   -2.2853   -0.4854 H   0  0  0  0  0  0  0  0  0  0  0  0
    4.5595   -0.5343   -0.1649 H   0  0  0  0  0  0  0  0  0  0  0  0
    6.6903    2.6347    0.3266 H   0  0  0  0  0  0  0  0  0  0  0  0
    5.7104    4.8240    0.7072 H   0  0  0  0  0  0  0  0  0  0  0  0
    3.3038    5.1087    0.7947 H   0  0  0  0  0  0  0  0  0  0  0  0
    1.8400    3.2063    0.5027 H   0  0  0  0  0  0  0  0  0  0  0  0
    2.7866    0.9475    0.1111 H   0  0  0  0  0  0  0  0  0  0  0  0
  1  2  1  0
  2  3  1  0
  2 19  1  0
  3  4  1  0
  3  5  2  0
  5  6  1  0
  6  7  1  0
  6 19  1  0
  7  8  2  0
  7 18  1  0
  8  9  1  0
  9 10  2  0
 10 11  1  0
 11 12  1  0
 11 18  2  0
 12 13  2  0
 12 17  1  0
 13 14  1  0
 14 15  2  0
 15 16  1  0
 16 17  2  0
 19 20  2  0
  1 21  1  0
  1 22  1  0
  1 23  1  0
  4 24  1  0
  4 25  1  0
  5 26  1  0
  8 27  1  0
  9 28  1  0
 10 29  1  0
 13 30  1  0
 14 31  1  0
 15 32  1  0
 17 33  1  0
 18 34  1  0
 35 36  1  0
 36 37  2  0
 36 38  1  0
 38 39  1  0
 39 40  2  0
 40 41  1  0
 41 42  2  0
 42 43  1  0
 43 44  2  0
 44 39  1  0
 35 45  1  0
 38 46  1  0
 40 47  1  0
 41 48  1  0
 42 49  1  0
 43 50  1  0
 44 51  1  0
  6 35  1  6
M  CHG  1   5   1
M  END
>  <attachment_point>  (256) 
26

>  <score>  (256) 
<NA>

$$$$
CAT-4j
     RDKit          3D

 48 50  0  0  1  0  0  0  0  0999 V2000
   11.7106   -2.3098    1.2658 C   0  0  0  0  0  0  0  0  0  0  0  0
   13.0313   -2.6523    0.7225 N   0  0  0  0  0  0  0  0  0  0  0  0
   14.2010   -2.6281    1.3773 C   0  0  0  0  0  0  0  0  0  0  0  0
   14.3777   -2.3568    2.6732 N   0  0  0  0  0  0  0  0  0  0  0  0
   15.2217   -2.9197    0.5738 N   0  0  0  0  0  0  0  0  0  0  0  0
   14.7965   -3.2519   -0.7875 C   0  0  1  0  0  0  0  0  0  0  0  0
   15.3794   -2.2443   -1.7949 C   0  0  0  0  0  0  0  0  0  0  0  0
   15.9522   -2.6550   -3.0208 C   0  0  0  0  0  0  0  0  0  0  0  0
   16.4340   -1.6937   -3.9273 C   0  0  0  0  0  0  0  0  0  0  0  0
   16.3364   -0.3224   -3.6308 C   0  0  0  0  0  0  0  0  0  0  0  0
   15.7943    0.1250   -2.4073 C   0  0  0  0  0  0  0  0  0  0  0  0
   15.6711    1.5693   -2.0915 C   0  0  0  0  0  0  0  0  0  0  0  0
   15.3832    2.0354   -0.7903 C   0  0  0  0  0  0  0  0  0  0  0  0
   15.3534    3.4188   -0.5357 C   0  0  0  0  0  0  0  0  0  0  0  0
   15.5968    4.3049   -1.5946 C   0  0  0  0  0  0  0  0  0  0  0  0
   15.8275    3.8920   -2.8511 N   0  0  0  0  0  0  0  0  0  0  0  0
   15.8598    2.5642   -3.0762 C   0  0  0  0  0  0  0  0  0  0  0  0
   15.3327   -0.8573   -1.5012 C   0  0  0  0  0  0  0  0  0  0  0  0
   13.2767   -3.0094   -0.6368 C   0  0  0  0  0  0  0  0  0  0  0  0
   12.3981   -3.0674   -1.5055 O   0  0  0  0  0  0  0  0  0  0  0  0
    0.0000    0.0000    0.0000 H   0  0  0  0  0  0  0  0  0  0  0  0
    0.0000    0.0000    0.0000 H   0  0  0  0  0  0  0  0  0  0  0  0
    0.0000    0.0000    0.0000 H   0  0  0  0  0  0  0  0  0  0  0  0
    0.0000    0.0000    0.0000 H   0  0  0  0  0  0  0  0  0  0  0  0
    0.0000    0.0000    0.0000 H   0  0  0  0  0  0  0  0  0  0  0  0
    0.0000    0.0000    0.0000 H   0  0  0  0  0  0  0  0  0  0  0  0
    0.0000    0.0000    0.0000 H   0  0  0  0  0  0  0  0  0  0  0  0
    0.0000    0.0000    0.0000 H   0  0  0  0  0  0  0  0  0  0  0  0
    0.0000    0.0000    0.0000 H   0  0  0  0  0  0  0  0  0  0  0  0
    0.0000    0.0000    0.0000 H   0  0  0  0  0  0  0  0  0  0  0  0
    0.0000    0.0000    0.0000 H   0  0  0  0  0  0  0  0  0  0  0  0
    0.0000    0.0000    0.0000 H   0  0  0  0  0  0  0  0  0  0  0  0
    0.0000    0.0000    0.0000 H   0  0  0  0  0  0  0  0  0  0  0  0
    0.0000    0.0000    0.0000 H   0  0  0  0  0  0  0  0  0  0  0  0
    7.0888   -1.5579   -0.3773 O   0  0  0  0  0  0  0  0  0  0  0  0
    6.6221   -0.9312    0.7944 C   0  0  0  0  0  0  0  0  0  0  0  0
    6.9224   -1.8553    1.9512 C   0  0  0  0  0  0  0  0  0  0  0  0
    5.1184   -0.8413    0.6457 C   0  0  0  0  0  0  0  0  0  0  0  0
    7.2880    0.3914    0.9351 C   0  0  0  0  0  0  0  0  0  0  0  0
    7.2368   -2.8680    1.6192 H   0  0  0  0  0  0  0  0  0  0  0  0
    6.0286   -2.0136    2.5984 H   0  0  0  0  0  0  0  0  0  0  0  0
    7.7077   -1.3530    2.5676 H   0  0  0  0  0  0  0  0  0  0  0  0
    4.7988   -0.4257   -0.3186 H   0  0  0  0  0  0  0  0  0  0  0  0
    4.7591   -1.9132    0.6434 H   0  0  0  0  0  0  0  0  0  0  0  0
    4.6430   -0.3528    1.5252 H   0  0  0  0  0  0  0  0  0  0  0  0
    6.6487    1.1879    1.3588 H   0  0  0  0  0  0  0  0  0  0  0  0
    8.1762    0.3214    1.5991 H   0  0  0  0  0  0  0  0  0  0  0  0
    7.6339    0.7584   -0.0510 H   0  0  0  0  0  0  0  0  0  0  0  0
  1  2  1  0
  2  3  1  0
  2 19  1  0
  3  4  1  0
  3  5  2  0
  5  6  1  0
  6  7  1  0
  6 19  1  0
  7  8  2  0
  7 18  1  0
  8  9  1  0
  9 10  2  0
 10 11  1  0
 11 12  1  0
 11 18  2  0
 12 13  2  0
 12 17  1  0
 13 14  1  0
 14 15  2  0
 15 16  1  0
 16 17  2  0
 19 20  2  0
  1 21  1  0
  1 22  1  0
  1 23  1  0
  4 24  1  0
  4 25  1  0
  5 26  1  0
  8 27  1  0
  9 28  1  0
 10 29  1  0
 13 30  1  0
 14 31  1  0
 15 32  1  0
 17 33  1  0
 18 34  1  0
 35 36  1  0
 36 37  1  0
 36 38  1  0
 36 39  1  0
 37 40  1  0
 37 41  1  0
 37 42  1  0
 38 43  1  0
 38 44  1  0
 38 45  1  0
 39 46  1  0
 39 47  1  0
 39 48  1  0
  6 35  1  6
M  CHG  1   5   1
M  END
>  <attachment_point>  (257) 
26

>  <score>  (257) 
<NA>

$$$$
CAT-4j
     RDKit          3D

 48 51  0  0  1  0  0  0  0  0999 V2000
   11.7106   -2.3098    1.2658 C   0  0  0  0  0  0  0  0  0  0  0  0
   13.0313   -2.6523    0.7225 N   0  0  0  0  0  0  0  0  0  0  0  0
   14.2010   -2.6281    1.3773 C   0  0  0  0  0  0  0  0  0  0  0  0
   14.3777   -2.3568    2.6732 N   0  0  0  0  0  0  0  0  0  0  0  0
   15.2217   -2.9197    0.5738 N   0  0  0  0  0  0  0  0  0  0  0  0
   14.7965   -3.2519   -0.7875 C   0  0  1  0  0  0  0  0  0  0  0  0
   15.3794   -2.2443   -1.7949 C   0  0  0  0  0  0  0  0  0  0  0  0
   15.9522   -2.6550   -3.0208 C   0  0  0  0  0  0  0  0  0  0  0  0
   16.4340   -1.6937   -3.9273 C   0  0  0  0  0  0  0  0  0  0  0  0
   16.3364   -0.3224   -3.6308 C   0  0  0  0  0  0  0  0  0  0  0  0
   15.7943    0.1250   -2.4073 C   0  0  0  0  0  0  0  0  0  0  0  0
   15.6711    1.5693   -2.0915 C   0  0  0  0  0  0  0  0  0  0  0  0
   15.3832    2.0354   -0.7903 C   0  0  0  0  0  0  0  0  0  0  0  0
   15.3534    3.4188   -0.5357 C   0  0  0  0  0  0  0  0  0  0  0  0
   15.5968    4.3049   -1.5946 C   0  0  0  0  0  0  0  0  0  0  0  0
   15.8275    3.8920   -2.8511 N   0  0  0  0  0  0  0  0  0  0  0  0
   15.8598    2.5642   -3.0762 C   0  0  0  0  0  0  0  0  0  0  0  0
   15.3327   -0.8573   -1.5012 C   0  0  0  0  0  0  0  0  0  0  0  0
   13.2767   -3.0094   -0.6368 C   0  0  0  0  0  0  0  0  0  0  0  0
   12.3981   -3.0674   -1.5055 O   0  0  0  0  0  0  0  0  0  0  0  0
    0.0000    0.0000    0.0000 H   0  0  0  0  0  0  0  0  0  0  0  0
    0.0000    0.0000    0.0000 H   0  0  0  0  0  0  0  0  0  0  0  0
    0.0000    0.0000    0.0000 H   0  0  0  0  0  0  0  0  0  0  0  0
    0.0000    0.0000    0.0000 H   0  0  0  0  0  0  0  0  0  0  0  0
    0.0000    0.0000    0.0000 H   0  0  0  0  0  0  0  0  0  0  0  0
    0.0000    0.0000    0.0000 H   0  0  0  0  0  0  0  0  0  0  0  0
    0.0000    0.0000    0.0000 H   0  0  0  0  0  0  0  0  0  0  0  0
    0.0000    0.0000    0.0000 H   0  0  0  0  0  0  0  0  0  0  0  0
    0.0000    0.0000    0.0000 H   0  0  0  0  0  0  0  0  0  0  0  0
    0.0000    0.0000    0.0000 H   0  0  0  0  0  0  0  0  0  0  0  0
    0.0000    0.0000    0.0000 H   0  0  0  0  0  0  0  0  0  0  0  0
    0.0000    0.0000    0.0000 H   0  0  0  0  0  0  0  0  0  0  0  0
    0.0000    0.0000    0.0000 H   0  0  0  0  0  0  0  0  0  0  0  0
    0.0000    0.0000    0.0000 H   0  0  0  0  0  0  0  0  0  0  0  0
    6.9449   -1.5263   -0.3696 C   0  0  0  0  0  0  0  0  0  0  0  0
    6.2069   -2.6832   -0.9475 C   0  0  0  0  0  0  0  0  0  0  0  0
    5.6084   -3.5847   -0.1058 C   0  0  0  0  0  0  0  0  0  0  0  0
    4.9221   -4.6709   -0.6665 C   0  0  0  0  0  0  0  0  0  0  0  0
    4.8231   -4.8715   -2.0264 C   0  0  0  0  0  0  0  0  0  0  0  0
    5.4300   -3.9544   -2.8542 C   0  0  0  0  0  0  0  0  0  0  0  0
    6.1192   -2.8655   -2.3092 C   0  0  0  0  0  0  0  0  0  0  0  0
    6.8931   -1.6888   -3.3183 Cl  0  0  0  0  0  0  0  0  0  0  0  0
    6.7906   -1.3669    0.6974 H   0  0  0  0  0  0  0  0  0  0  0  0
    6.8912   -0.6166   -0.9993 H   0  0  0  0  0  0  0  0  0  0  0  0
    5.6658   -3.4574    0.9812 H   0  0  0  0  0  0  0  0  0  0  0  0
    4.4658   -5.3700   -0.0085 H   0  0  0  0  0  0  0  0  0  0  0  0
    4.2938   -5.7077   -2.4651 H   0  0  0  0  0  0  0  0  0  0  0  0
    5.3866   -4.0568   -3.9412 H   0  0  0  0  0  0  0  0  0  0  0  0
  1  2  1  0
  2  3  1  0
  2 19  1  0
  3  4  1  0
  3  5  2  0
  5  6  1  0
  6  7  1  0
  6 19  1  0
  7  8  2  0
  7 18  1  0
  8  9  1  0
  9 10  2  0
 10 11  1  0
 11 12  1  0
 11 18  2  0
 12 13  2  0
 12 17  1  0
 13 14  1  0
 14 15  2  0
 15 16  1  0
 16 17  2  0
 19 20  2  0
  1 21  1  0
  1 22  1  0
  1 23  1  0
  4 24  1  0
  4 25  1  0
  5 26  1  0
  8 27  1  0
  9 28  1  0
 10 29  1  0
 13 30  1  0
 14 31  1  0
 15 32  1  0
 17 33  1  0
 18 34  1  0
 35 36  1  0
 36 37  2  0
 37 38  1  0
 38 39  2  0
 39 40  1  0
 40 41  2  0
 41 42  1  0
 41 36  1  0
 35 43  1  0
 35 44  1  0
 37 45  1  0
 38 46  1  0
 39 47  1  0
 40 48  1  0
  6 35  1  6
M  CHG  1   5   1
M  END
>  <attachment_point>  (258) 
26

>  <score>  (258) 
<NA>

$$$$
CAT-4j
     RDKit          3D

 48 51  0  0  1  0  0  0  0  0999 V2000
   11.7106   -2.3098    1.2658 C   0  0  0  0  0  0  0  0  0  0  0  0
   13.0313   -2.6523    0.7225 N   0  0  0  0  0  0  0  0  0  0  0  0
   14.2010   -2.6281    1.3773 C   0  0  0  0  0  0  0  0  0  0  0  0
   14.3777   -2.3568    2.6732 N   0  0  0  0  0  0  0  0  0  0  0  0
   15.2217   -2.9197    0.5738 N   0  0  0  0  0  0  0  0  0  0  0  0
   14.7965   -3.2519   -0.7875 C   0  0  1  0  0  0  0  0  0  0  0  0
   15.3794   -2.2443   -1.7949 C   0  0  0  0  0  0  0  0  0  0  0  0
   15.9522   -2.6550   -3.0208 C   0  0  0  0  0  0  0  0  0  0  0  0
   16.4340   -1.6937   -3.9273 C   0  0  0  0  0  0  0  0  0  0  0  0
   16.3364   -0.3224   -3.6308 C   0  0  0  0  0  0  0  0  0  0  0  0
   15.7943    0.1250   -2.4073 C   0  0  0  0  0  0  0  0  0  0  0  0
   15.6711    1.5693   -2.0915 C   0  0  0  0  0  0  0  0  0  0  0  0
   15.3832    2.0354   -0.7903 C   0  0  0  0  0  0  0  0  0  0  0  0
   15.3534    3.4188   -0.5357 C   0  0  0  0  0  0  0  0  0  0  0  0
   15.5968    4.3049   -1.5946 C   0  0  0  0  0  0  0  0  0  0  0  0
   15.8275    3.8920   -2.8511 N   0  0  0  0  0  0  0  0  0  0  0  0
   15.8598    2.5642   -3.0762 C   0  0  0  0  0  0  0  0  0  0  0  0
   15.3327   -0.8573   -1.5012 C   0  0  0  0  0  0  0  0  0  0  0  0
   13.2767   -3.0094   -0.6368 C   0  0  0  0  0  0  0  0  0  0  0  0
   12.3981   -3.0674   -1.5055 O   0  0  0  0  0  0  0  0  0  0  0  0
    0.0000    0.0000    0.0000 H   0  0  0  0  0  0  0  0  0  0  0  0
    0.0000    0.0000    0.0000 H   0  0  0  0  0  0  0  0  0  0  0  0
    0.0000    0.0000    0.0000 H   0  0  0  0  0  0  0  0  0  0  0  0
    0.0000    0.0000    0.0000 H   0  0  0  0  0  0  0  0  0  0  0  0
    0.0000    0.0000    0.0000 H   0  0  0  0  0  0  0  0  0  0  0  0
    0.0000    0.0000    0.0000 H   0  0  0  0  0  0  0  0  0  0  0  0
    0.0000    0.0000    0.0000 H   0  0  0  0  0  0  0  0  0  0  0  0
    0.0000    0.0000    0.0000 H   0  0  0  0  0  0  0  0  0  0  0  0
    0.0000    0.0000    0.0000 H   0  0  0  0  0  0  0  0  0  0  0  0
    0.0000    0.0000    0.0000 H   0  0  0  0  0  0  0  0  0  0  0  0
    0.0000    0.0000    0.0000 H   0  0  0  0  0  0  0  0  0  0  0  0
    0.0000    0.0000    0.0000 H   0  0  0  0  0  0  0  0  0  0  0  0
    0.0000    0.0000    0.0000 H   0  0  0  0  0  0  0  0  0  0  0  0
    0.0000    0.0000    0.0000 H   0  0  0  0  0  0  0  0  0  0  0  0
    6.9818   -1.5344   -0.3716 C   0  0  0  0  0  0  0  0  0  0  0  0
    6.5186   -0.3041    0.0405 C   0  0  0  0  0  0  0  0  0  0  0  0
    5.1587   -0.0849    0.0855 C   0  0  0  0  0  0  0  0  0  0  0  0
    4.3191   -1.1153   -0.2867 C   0  0  0  0  0  0  0  0  0  0  0  0
    4.8008   -2.3020   -0.6833 N   0  0  0  0  0  0  0  0  0  0  0  0
    6.1208   -2.5460   -0.7379 C   0  0  0  0  0  0  0  0  0  0  0  0
    6.5962   -3.7822   -1.1517 O   0  0  0  0  0  0  0  0  0  0  0  0
    5.7297   -4.8350   -1.5322 C   0  0  0  0  0  0  0  0  0  0  0  0
    7.2138    0.4907    0.3285 H   0  0  0  0  0  0  0  0  0  0  0  0
    4.7498    0.8870    0.4102 H   0  0  0  0  0  0  0  0  0  0  0  0
    3.2359   -0.9216   -0.2442 H   0  0  0  0  0  0  0  0  0  0  0  0
    4.8215   -4.3845   -1.9848 H   0  0  0  0  0  0  0  0  0  0  0  0
    5.4560   -5.4520   -0.6426 H   0  0  0  0  0  0  0  0  0  0  0  0
    6.2405   -5.4710   -2.2820 H   0  0  0  0  0  0  0  0  0  0  0  0
  1  2  1  0
  2  3  1  0
  2 19  1  0
  3  4  1  0
  3  5  2  0
  5  6  1  0
  6  7  1  1
  6 19  1  0
  7  8  2  0
  7 18  1  0
  8  9  1  0
  9 10  2  0
 10 11  1  0
 11 12  1  0
 11 18  2  0
 12 13  2  0
 12 17  1  0
 13 14  1  0
 14 15  2  0
 15 16  1  0
 16 17  2  0
 19 20  2  0
  1 21  1  0
  1 22  1  0
  1 23  1  0
  4 24  1  0
  4 25  1  0
  5 26  1  0
  8 27  1  0
  9 28  1  0
 10 29  1  0
 13 30  1  0
 14 31  1  0
 15 32  1  0
 17 33  1  0
 18 34  1  0
 35 36  2  0
 36 37  1  0
 37 38  2  0
 38 39  1  0
 39 40  2  0
 40 41  1  0
 41 42  1  0
 40 35  1  0
 36 43  1  0
 37 44  1  0
 38 45  1  0
 42 46  1  0
 42 47  1  0
 42 48  1  0
  6 35  1  0
M  CHG  1   5   1
M  END
>  <attachment_point>  (259) 
26

>  <score>  (259) 
<NA>

$$$$
CAT-4j
     RDKit          3D

 48 51  0  0  1  0  0  0  0  0999 V2000
   11.7106   -2.3098    1.2658 C   0  0  0  0  0  0  0  0  0  0  0  0
   13.0313   -2.6523    0.7225 N   0  0  0  0  0  0  0  0  0  0  0  0
   14.2010   -2.6281    1.3773 C   0  0  0  0  0  0  0  0  0  0  0  0
   14.3777   -2.3568    2.6732 N   0  0  0  0  0  0  0  0  0  0  0  0
   15.2217   -2.9197    0.5738 N   0  0  0  0  0  0  0  0  0  0  0  0
   14.7965   -3.2519   -0.7875 C   0  0  1  0  0  0  0  0  0  0  0  0
   15.3794   -2.2443   -1.7949 C   0  0  0  0  0  0  0  0  0  0  0  0
   15.9522   -2.6550   -3.0208 C   0  0  0  0  0  0  0  0  0  0  0  0
   16.4340   -1.6937   -3.9273 C   0  0  0  0  0  0  0  0  0  0  0  0
   16.3364   -0.3224   -3.6308 C   0  0  0  0  0  0  0  0  0  0  0  0
   15.7943    0.1250   -2.4073 C   0  0  0  0  0  0  0  0  0  0  0  0
   15.6711    1.5693   -2.0915 C   0  0  0  0  0  0  0  0  0  0  0  0
   15.3832    2.0354   -0.7903 C   0  0  0  0  0  0  0  0  0  0  0  0
   15.3534    3.4188   -0.5357 C   0  0  0  0  0  0  0  0  0  0  0  0
   15.5968    4.3049   -1.5946 C   0  0  0  0  0  0  0  0  0  0  0  0
   15.8275    3.8920   -2.8511 N   0  0  0  0  0  0  0  0  0  0  0  0
   15.8598    2.5642   -3.0762 C   0  0  0  0  0  0  0  0  0  0  0  0
   15.3327   -0.8573   -1.5012 C   0  0  0  0  0  0  0  0  0  0  0  0
   13.2767   -3.0094   -0.6368 C   0  0  0  0  0  0  0  0  0  0  0  0
   12.3981   -3.0674   -1.5055 O   0  0  0  0  0  0  0  0  0  0  0  0
    0.0000    0.0000    0.0000 H   0  0  0  0  0  0  0  0  0  0  0  0
    0.0000    0.0000    0.0000 H   0  0  0  0  0  0  0  0  0  0  0  0
    0.0000    0.0000    0.0000 H   0  0  0  0  0  0  0  0  0  0  0  0
    0.0000    0.0000    0.0000 H   0  0  0  0  0  0  0  0  0  0  0  0
    0.0000    0.0000    0.0000 H   0  0  0  0  0  0  0  0  0  0  0  0
    0.0000    0.0000    0.0000 H   0  0  0  0  0  0  0  0  0  0  0  0
    0.0000    0.0000    0.0000 H   0  0  0  0  0  0  0  0  0  0  0  0
    0.0000    0.0000    0.0000 H   0  0  0  0  0  0  0  0  0  0  0  0
    0.0000    0.0000    0.0000 H   0  0  0  0  0  0  0  0  0  0  0  0
    0.0000    0.0000    0.0000 H   0  0  0  0  0  0  0  0  0  0  0  0
    0.0000    0.0000    0.0000 H   0  0  0  0  0  0  0  0  0  0  0  0
    0.0000    0.0000    0.0000 H   0  0  0  0  0  0  0  0  0  0  0  0
    0.0000    0.0000    0.0000 H   0  0  0  0  0  0  0  0  0  0  0  0
    0.0000    0.0000    0.0000 H   0  0  0  0  0  0  0  0  0  0  0  0
    6.9928   -1.5368   -0.3722 C   0  0  0  0  0  0  0  0  0  0  0  0
    6.5169   -0.4762   -1.1247 C   0  0  0  0  0  0  0  0  0  0  0  0
    5.1636   -0.1953   -1.0392 C   0  0  0  0  0  0  0  0  0  0  0  0
    4.3002   -0.9213   -0.2478 C   0  0  0  0  0  0  0  0  0  0  0  0
    4.8351   -1.9649    0.4771 C   0  0  0  0  0  0  0  0  0  0  0  0
    6.1711   -2.2941    0.4349 C   0  0  0  0  0  0  0  0  0  0  0  0
    6.7221   -3.4375    1.2373 C   0  0  0  0  0  0  0  0  0  0  0  0
    7.2907   -4.3807    0.4032 F   0  0  0  0  0  0  0  0  0  0  0  0
    5.8061   -3.9420    2.1014 F   0  0  0  0  0  0  0  0  0  0  0  0
    7.7777   -2.9009    1.9799 F   0  0  0  0  0  0  0  0  0  0  0  0
    7.1709    0.1193   -1.7611 H   0  0  0  0  0  0  0  0  0  0  0  0
    4.7671    0.6247   -1.6143 H   0  0  0  0  0  0  0  0  0  0  0  0
    3.2512   -0.6623   -0.2152 H   0  0  0  0  0  0  0  0  0  0  0  0
    4.1730   -2.5538    1.1100 H   0  0  0  0  0  0  0  0  0  0  0  0
  1  2  1  0
  2  3  1  0
  2 19  1  0
  3  4  1  0
  3  5  2  0
  5  6  1  0
  6  7  1  1
  6 19  1  0
  7  8  2  0
  7 18  1  0
  8  9  1  0
  9 10  2  0
 10 11  1  0
 11 12  1  0
 11 18  2  0
 12 13  2  0
 12 17  1  0
 13 14  1  0
 14 15  2  0
 15 16  1  0
 16 17  2  0
 19 20  2  0
  1 21  1  0
  1 22  1  0
  1 23  1  0
  4 24  1  0
  4 25  1  0
  5 26  1  0
  8 27  1  0
  9 28  1  0
 10 29  1  0
 13 30  1  0
 14 31  1  0
 15 32  1  0
 17 33  1  0
 18 34  1  0
 35 36  2  0
 36 37  1  0
 37 38  2  0
 38 39  1  0
 39 40  2  0
 40 41  1  0
 41 42  1  0
 41 43  1  0
 41 44  1  0
 40 35  1  0
 36 45  1  0
 37 46  1  0
 38 47  1  0
 39 48  1  0
  6 35  1  0
M  CHG  1   5   1
M  END
>  <attachment_point>  (260) 
26

>  <score>  (260) 
<NA>

$$$$
CAT-4j
     RDKit          3D

 55 58  0  0  1  0  0  0  0  0999 V2000
   11.7106   -2.3098    1.2658 C   0  0  0  0  0  0  0  0  0  0  0  0
   13.0313   -2.6523    0.7225 N   0  0  0  0  0  0  0  0  0  0  0  0
   14.2010   -2.6281    1.3773 C   0  0  0  0  0  0  0  0  0  0  0  0
   14.3777   -2.3568    2.6732 N   0  0  0  0  0  0  0  0  0  0  0  0
   15.2217   -2.9197    0.5738 N   0  0  0  0  0  0  0  0  0  0  0  0
   14.7965   -3.2519   -0.7875 C   0  0  1  0  0  0  0  0  0  0  0  0
   15.3794   -2.2443   -1.7949 C   0  0  0  0  0  0  0  0  0  0  0  0
   15.9522   -2.6550   -3.0208 C   0  0  0  0  0  0  0  0  0  0  0  0
   16.4340   -1.6937   -3.9273 C   0  0  0  0  0  0  0  0  0  0  0  0
   16.3364   -0.3224   -3.6308 C   0  0  0  0  0  0  0  0  0  0  0  0
   15.7943    0.1250   -2.4073 C   0  0  0  0  0  0  0  0  0  0  0  0
   15.6711    1.5693   -2.0915 C   0  0  0  0  0  0  0  0  0  0  0  0
   15.3832    2.0354   -0.7903 C   0  0  0  0  0  0  0  0  0  0  0  0
   15.3534    3.4188   -0.5357 C   0  0  0  0  0  0  0  0  0  0  0  0
   15.5968    4.3049   -1.5946 C   0  0  0  0  0  0  0  0  0  0  0  0
   15.8275    3.8920   -2.8511 N   0  0  0  0  0  0  0  0  0  0  0  0
   15.8598    2.5642   -3.0762 C   0  0  0  0  0  0  0  0  0  0  0  0
   15.3327   -0.8573   -1.5012 C   0  0  0  0  0  0  0  0  0  0  0  0
   13.2767   -3.0094   -0.6368 C   0  0  0  0  0  0  0  0  0  0  0  0
   12.3981   -3.0674   -1.5055 O   0  0  0  0  0  0  0  0  0  0  0  0
    0.0000    0.0000    0.0000 H   0  0  0  0  0  0  0  0  0  0  0  0
    0.0000    0.0000    0.0000 H   0  0  0  0  0  0  0  0  0  0  0  0
    0.0000    0.0000    0.0000 H   0  0  0  0  0  0  0  0  0  0  0  0
    0.0000    0.0000    0.0000 H   0  0  0  0  0  0  0  0  0  0  0  0
    0.0000    0.0000    0.0000 H   0  0  0  0  0  0  0  0  0  0  0  0
    0.0000    0.0000    0.0000 H   0  0  0  0  0  0  0  0  0  0  0  0
    0.0000    0.0000    0.0000 H   0  0  0  0  0  0  0  0  0  0  0  0
    0.0000    0.0000    0.0000 H   0  0  0  0  0  0  0  0  0  0  0  0
    0.0000    0.0000    0.0000 H   0  0  0  0  0  0  0  0  0  0  0  0
    0.0000    0.0000    0.0000 H   0  0  0  0  0  0  0  0  0  0  0  0
    0.0000    0.0000    0.0000 H   0  0  0  0  0  0  0  0  0  0  0  0
    0.0000    0.0000    0.0000 H   0  0  0  0  0  0  0  0  0  0  0  0
    0.0000    0.0000    0.0000 H   0  0  0  0  0  0  0  0  0  0  0  0
    0.0000    0.0000    0.0000 H   0  0  0  0  0  0  0  0  0  0  0  0
    6.9619   -1.5301   -0.3705 C   0  0  0  0  0  0  0  0  0  0  0  0
    6.2668   -2.0168    0.5491 O   0  0  0  0  0  0  0  0  0  0  0  0
    6.4680   -0.6682   -1.3838 N   0  0  0  0  0  0  0  0  0  0  0  0
    5.0795   -0.3006   -1.3935 C   0  0  0  0  0  0  0  0  0  0  0  0
    4.6930    0.4270   -0.1273 C   0  0  0  0  0  0  0  0  0  0  0  0
    3.2440    0.8066   -0.1497 C   0  0  0  0  0  0  0  0  0  0  0  0
    2.2752   -0.0399    0.3455 C   0  0  0  0  0  0  0  0  0  0  0  0
    0.9415    0.3297    0.3155 C   0  0  0  0  0  0  0  0  0  0  0  0
    0.5915    1.5569   -0.2164 C   0  0  0  0  0  0  0  0  0  0  0  0
    1.5701    2.3928   -0.7078 C   0  0  0  0  0  0  0  0  0  0  0  0
    2.8969    2.0310   -0.6807 C   0  0  0  0  0  0  0  0  0  0  0  0
    7.1557   -0.3174   -2.1154 H   0  0  0  0  0  0  0  0  0  0  0  0
    4.4317   -1.2121   -1.4343 H   0  0  0  0  0  0  0  0  0  0  0  0
    4.8370    0.3313   -2.2688 H   0  0  0  0  0  0  0  0  0  0  0  0
    4.9068   -0.1576    0.7871 H   0  0  0  0  0  0  0  0  0  0  0  0
    5.3292    1.3598   -0.0965 H   0  0  0  0  0  0  0  0  0  0  0  0
    2.5524   -0.9936    0.7585 H   0  0  0  0  0  0  0  0  0  0  0  0
    0.1753   -0.3356    0.7054 H   0  0  0  0  0  0  0  0  0  0  0  0
   -0.4695    1.8481   -0.2389 H   0  0  0  0  0  0  0  0  0  0  0  0
    1.2736    3.3580   -1.1239 H   0  0  0  0  0  0  0  0  0  0  0  0
    3.6648    2.6984   -1.0716 H   0  0  0  0  0  0  0  0  0  0  0  0
  1  2  1  0
  2  3  1  0
  2 19  1  0
  3  4  1  0
  3  5  2  0
  5  6  1  0
  6  7  1  0
  6 19  1  0
  7  8  2  0
  7 18  1  0
  8  9  1  0
  9 10  2  0
 10 11  1  0
 11 12  1  0
 11 18  2  0
 12 13  2  0
 12 17  1  0
 13 14  1  0
 14 15  2  0
 15 16  1  0
 16 17  2  0
 19 20  2  0
  1 21  1  0
  1 22  1  0
  1 23  1  0
  4 24  1  0
  4 25  1  0
  5 26  1  0
  8 27  1  0
  9 28  1  0
 10 29  1  0
 13 30  1  0
 14 31  1  0
 15 32  1  0
 17 33  1  0
 18 34  1  0
 35 36  2  0
 35 37  1  0
 37 38  1  0
 38 39  1  0
 39 40  1  0
 40 41  2  0
 41 42  1  0
 42 43  2  0
 43 44  1  0
 44 45  2  0
 45 40  1  0
 37 46  1  0
 38 47  1  0
 38 48  1  0
 39 49  1  0
 39 50  1  0
 41 51  1  0
 42 52  1  0
 43 53  1  0
 44 54  1  0
 45 55  1  0
  6 35  1  6
M  CHG  1   5   1
M  END
>  <attachment_point>  (261) 
26

>  <score>  (261) 
<NA>

$$$$
CAT-4j
     RDKit          3D

 48 51  0  0  1  0  0  0  0  0999 V2000
   11.7106   -2.3098    1.2658 C   0  0  0  0  0  0  0  0  0  0  0  0
   13.0313   -2.6523    0.7225 N   0  0  0  0  0  0  0  0  0  0  0  0
   14.2010   -2.6281    1.3773 C   0  0  0  0  0  0  0  0  0  0  0  0
   14.3777   -2.3568    2.6732 N   0  0  0  0  0  0  0  0  0  0  0  0
   15.2217   -2.9197    0.5738 N   0  0  0  0  0  0  0  0  0  0  0  0
   14.7965   -3.2519   -0.7875 C   0  0  1  0  0  0  0  0  0  0  0  0
   15.3794   -2.2443   -1.7949 C   0  0  0  0  0  0  0  0  0  0  0  0
   15.9522   -2.6550   -3.0208 C   0  0  0  0  0  0  0  0  0  0  0  0
   16.4340   -1.6937   -3.9273 C   0  0  0  0  0  0  0  0  0  0  0  0
   16.3364   -0.3224   -3.6308 C   0  0  0  0  0  0  0  0  0  0  0  0
   15.7943    0.1250   -2.4073 C   0  0  0  0  0  0  0  0  0  0  0  0
   15.6711    1.5693   -2.0915 C   0  0  0  0  0  0  0  0  0  0  0  0
   15.3832    2.0354   -0.7903 C   0  0  0  0  0  0  0  0  0  0  0  0
   15.3534    3.4188   -0.5357 C   0  0  0  0  0  0  0  0  0  0  0  0
   15.5968    4.3049   -1.5946 C   0  0  0  0  0  0  0  0  0  0  0  0
   15.8275    3.8920   -2.8511 N   0  0  0  0  0  0  0  0  0  0  0  0
   15.8598    2.5642   -3.0762 C   0  0  0  0  0  0  0  0  0  0  0  0
   15.3327   -0.8573   -1.5012 C   0  0  0  0  0  0  0  0  0  0  0  0
   13.2767   -3.0094   -0.6368 C   0  0  0  0  0  0  0  0  0  0  0  0
   12.3981   -3.0674   -1.5055 O   0  0  0  0  0  0  0  0  0  0  0  0
    0.0000    0.0000    0.0000 H   0  0  0  0  0  0  0  0  0  0  0  0
    0.0000    0.0000    0.0000 H   0  0  0  0  0  0  0  0  0  0  0  0
    0.0000    0.0000    0.0000 H   0  0  0  0  0  0  0  0  0  0  0  0
    0.0000    0.0000    0.0000 H   0  0  0  0  0  0  0  0  0  0  0  0
    0.0000    0.0000    0.0000 H   0  0  0  0  0  0  0  0  0  0  0  0
    0.0000    0.0000    0.0000 H   0  0  0  0  0  0  0  0  0  0  0  0
    0.0000    0.0000    0.0000 H   0  0  0  0  0  0  0  0  0  0  0  0
    0.0000    0.0000    0.0000 H   0  0  0  0  0  0  0  0  0  0  0  0
    0.0000    0.0000    0.0000 H   0  0  0  0  0  0  0  0  0  0  0  0
    0.0000    0.0000    0.0000 H   0  0  0  0  0  0  0  0  0  0  0  0
    0.0000    0.0000    0.0000 H   0  0  0  0  0  0  0  0  0  0  0  0
    0.0000    0.0000    0.0000 H   0  0  0  0  0  0  0  0  0  0  0  0
    0.0000    0.0000    0.0000 H   0  0  0  0  0  0  0  0  0  0  0  0
    0.0000    0.0000    0.0000 H   0  0  0  0  0  0  0  0  0  0  0  0
    6.9725   -1.5324   -0.3711 N   0  0  0  0  0  0  0  0  0  0  0  0
    6.0820   -2.4469   -0.9463 C   0  0  0  0  0  0  0  0  0  0  0  0
    6.5541   -3.4763   -1.4906 O   0  0  0  0  0  0  0  0  0  0  0  0
    4.6487   -2.2056   -0.9112 C   0  0  0  0  0  0  0  0  0  0  0  0
    4.0802   -1.0951   -0.3281 C   0  0  0  0  0  0  0  0  0  0  0  0
    2.6973   -0.8754   -0.3017 C   0  0  0  0  0  0  0  0  0  0  0  0
    1.9364   -1.8174   -0.8834 N   0  0  0  0  0  0  0  0  0  0  0  0
    2.4696   -2.8909   -1.4482 C   0  0  0  0  0  0  0  0  0  0  0  0
    3.8209   -3.1555   -1.5020 C   0  0  0  0  0  0  0  0  0  0  0  0
    6.7105   -0.6499    0.1055 H   0  0  0  0  0  0  0  0  0  0  0  0
    4.7148   -0.3506    0.1339 H   0  0  0  0  0  0  0  0  0  0  0  0
    2.3074    0.0135    0.1696 H   0  0  0  0  0  0  0  0  0  0  0  0
    1.8170   -3.6357   -1.9115 H   0  0  0  0  0  0  0  0  0  0  0  0
    4.2253   -4.0514   -1.9763 H   0  0  0  0  0  0  0  0  0  0  0  0
  1  2  1  0
  2  3  1  0
  2 19  1  0
  3  4  1  0
  3  5  2  0
  5  6  1  0
  6  7  1  0
  6 19  1  0
  7  8  2  0
  7 18  1  0
  8  9  1  0
  9 10  2  0
 10 11  1  0
 11 12  1  0
 11 18  2  0
 12 13  2  0
 12 17  1  0
 13 14  1  0
 14 15  2  0
 15 16  1  0
 16 17  2  0
 19 20  2  0
  1 21  1  0
  1 22  1  0
  1 23  1  0
  4 24  1  0
  4 25  1  0
  5 26  1  0
  8 27  1  0
  9 28  1  0
 10 29  1  0
 13 30  1  0
 14 31  1  0
 15 32  1  0
 17 33  1  0
 18 34  1  0
 35 36  1  0
 36 37  2  0
 36 38  1  0
 38 39  2  0
 39 40  1  0
 40 41  2  0
 41 42  1  0
 42 43  2  0
 43 38  1  0
 35 44  1  0
 39 45  1  0
 40 46  1  0
 42 47  1  0
 43 48  1  0
  6 35  1  6
M  CHG  1   5   1
M  END
>  <attachment_point>  (262) 
26

>  <score>  (262) 
<NA>

$$$$
CAT-4j
     RDKit          3D

 51 54  0  0  1  0  0  0  0  0999 V2000
   11.7106   -2.3098    1.2658 C   0  0  0  0  0  0  0  0  0  0  0  0
   13.0313   -2.6523    0.7225 N   0  0  0  0  0  0  0  0  0  0  0  0
   14.2010   -2.6281    1.3773 C   0  0  0  0  0  0  0  0  0  0  0  0
   14.3777   -2.3568    2.6732 N   0  0  0  0  0  0  0  0  0  0  0  0
   15.2217   -2.9197    0.5738 N   0  0  0  0  0  0  0  0  0  0  0  0
   14.7965   -3.2519   -0.7875 C   0  0  1  0  0  0  0  0  0  0  0  0
   15.3794   -2.2443   -1.7949 C   0  0  0  0  0  0  0  0  0  0  0  0
   15.9522   -2.6550   -3.0208 C   0  0  0  0  0  0  0  0  0  0  0  0
   16.4340   -1.6937   -3.9273 C   0  0  0  0  0  0  0  0  0  0  0  0
   16.3364   -0.3224   -3.6308 C   0  0  0  0  0  0  0  0  0  0  0  0
   15.7943    0.1250   -2.4073 C   0  0  0  0  0  0  0  0  0  0  0  0
   15.6711    1.5693   -2.0915 C   0  0  0  0  0  0  0  0  0  0  0  0
   15.3832    2.0354   -0.7903 C   0  0  0  0  0  0  0  0  0  0  0  0
   15.3534    3.4188   -0.5357 C   0  0  0  0  0  0  0  0  0  0  0  0
   15.5968    4.3049   -1.5946 C   0  0  0  0  0  0  0  0  0  0  0  0
   15.8275    3.8920   -2.8511 N   0  0  0  0  0  0  0  0  0  0  0  0
   15.8598    2.5642   -3.0762 C   0  0  0  0  0  0  0  0  0  0  0  0
   15.3327   -0.8573   -1.5012 C   0  0  0  0  0  0  0  0  0  0  0  0
   13.2767   -3.0094   -0.6368 C   0  0  0  0  0  0  0  0  0  0  0  0
   12.3981   -3.0674   -1.5055 O   0  0  0  0  0  0  0  0  0  0  0  0
    0.0000    0.0000    0.0000 H   0  0  0  0  0  0  0  0  0  0  0  0
    0.0000    0.0000    0.0000 H   0  0  0  0  0  0  0  0  0  0  0  0
    0.0000    0.0000    0.0000 H   0  0  0  0  0  0  0  0  0  0  0  0
    0.0000    0.0000    0.0000 H   0  0  0  0  0  0  0  0  0  0  0  0
    0.0000    0.0000    0.0000 H   0  0  0  0  0  0  0  0  0  0  0  0
    0.0000    0.0000    0.0000 H   0  0  0  0  0  0  0  0  0  0  0  0
    0.0000    0.0000    0.0000 H   0  0  0  0  0  0  0  0  0  0  0  0
    0.0000    0.0000    0.0000 H   0  0  0  0  0  0  0  0  0  0  0  0
    0.0000    0.0000    0.0000 H   0  0  0  0  0  0  0  0  0  0  0  0
    0.0000    0.0000    0.0000 H   0  0  0  0  0  0  0  0  0  0  0  0
    0.0000    0.0000    0.0000 H   0  0  0  0  0  0  0  0  0  0  0  0
    0.0000    0.0000    0.0000 H   0  0  0  0  0  0  0  0  0  0  0  0
    0.0000    0.0000    0.0000 H   0  0  0  0  0  0  0  0  0  0  0  0
    0.0000    0.0000    0.0000 H   0  0  0  0  0  0  0  0  0  0  0  0
    6.9973   -1.5378   -0.3724 O   0  0  0  0  0  0  0  0  0  0  0  0
    6.8025   -1.1160    0.9423 C   0  0  0  0  0  0  0  0  0  0  0  0
    5.7634   -2.0034    1.5881 C   0  0  0  0  0  0  0  0  0  0  0  0
    5.2089   -1.4738    2.8523 C   0  0  0  0  0  0  0  0  0  0  0  0
    5.0747   -0.0695    2.9666 N   0  0  0  0  0  0  0  0  0  0  0  0
    6.1455    0.6933    2.3749 C   0  0  0  0  0  0  0  0  0  0  0  0
    6.2118    0.2782    0.9144 C   0  0  0  0  0  0  0  0  0  0  0  0
    7.7238   -1.1290    1.5452 H   0  0  0  0  0  0  0  0  0  0  0  0
    4.9652   -2.2369    0.8448 H   0  0  0  0  0  0  0  0  0  0  0  0
    6.2551   -2.9843    1.8022 H   0  0  0  0  0  0  0  0  0  0  0  0
    4.1762   -1.9164    2.9791 H   0  0  0  0  0  0  0  0  0  0  0  0
    5.7895   -1.8768    3.7105 H   0  0  0  0  0  0  0  0  0  0  0  0
    4.1772    0.2602    2.5443 H   0  0  0  0  0  0  0  0  0  0  0  0
    7.1096    0.4542    2.8916 H   0  0  0  0  0  0  0  0  0  0  0  0
    5.9476    1.7558    2.4692 H   0  0  0  0  0  0  0  0  0  0  0  0
    6.7551    0.9794    0.2931 H   0  0  0  0  0  0  0  0  0  0  0  0
    5.1480    0.1764    0.5786 H   0  0  0  0  0  0  0  0  0  0  0  0
  1  2  1  0
  2  3  1  0
  2 19  1  0
  3  4  1  0
  3  5  2  0
  5  6  1  0
  6  7  1  0
  6 19  1  0
  7  8  2  0
  7 18  1  0
  8  9  1  0
  9 10  2  0
 10 11  1  0
 11 12  1  0
 11 18  2  0
 12 13  2  0
 12 17  1  0
 13 14  1  0
 14 15  2  0
 15 16  1  0
 16 17  2  0
 19 20  2  0
  1 21  1  0
  1 22  1  0
  1 23  1  0
  4 24  1  0
  4 25  1  0
  5 26  1  0
  8 27  1  0
  9 28  1  0
 10 29  1  0
 13 30  1  0
 14 31  1  0
 15 32  1  0
 17 33  1  0
 18 34  1  0
 35 36  1  0
 36 37  1  0
 37 38  1  0
 38 39  1  0
 39 40  1  0
 40 41  1  0
 41 36  1  0
 36 42  1  0
 37 43  1  0
 37 44  1  0
 38 45  1  0
 38 46  1  0
 39 47  1  0
 40 48  1  0
 40 49  1  0
 41 50  1  0
 41 51  1  0
  6 35  1  6
M  CHG  1   5   1
M  END
>  <attachment_point>  (263) 
26

>  <score>  (263) 
<NA>

$$$$
CAT-4j
     RDKit          3D

 53 56  0  0  1  0  0  0  0  0999 V2000
   11.7106   -2.3098    1.2658 C   0  0  0  0  0  0  0  0  0  0  0  0
   13.0313   -2.6523    0.7225 N   0  0  0  0  0  0  0  0  0  0  0  0
   14.2010   -2.6281    1.3773 C   0  0  0  0  0  0  0  0  0  0  0  0
   14.3777   -2.3568    2.6732 N   0  0  0  0  0  0  0  0  0  0  0  0
   15.2217   -2.9197    0.5738 N   0  0  0  0  0  0  0  0  0  0  0  0
   14.7965   -3.2519   -0.7875 C   0  0  1  0  0  0  0  0  0  0  0  0
   15.3794   -2.2443   -1.7949 C   0  0  0  0  0  0  0  0  0  0  0  0
   15.9522   -2.6550   -3.0208 C   0  0  0  0  0  0  0  0  0  0  0  0
   16.4340   -1.6937   -3.9273 C   0  0  0  0  0  0  0  0  0  0  0  0
   16.3364   -0.3224   -3.6308 C   0  0  0  0  0  0  0  0  0  0  0  0
   15.7943    0.1250   -2.4073 C   0  0  0  0  0  0  0  0  0  0  0  0
   15.6711    1.5693   -2.0915 C   0  0  0  0  0  0  0  0  0  0  0  0
   15.3832    2.0354   -0.7903 C   0  0  0  0  0  0  0  0  0  0  0  0
   15.3534    3.4188   -0.5357 C   0  0  0  0  0  0  0  0  0  0  0  0
   15.5968    4.3049   -1.5946 C   0  0  0  0  0  0  0  0  0  0  0  0
   15.8275    3.8920   -2.8511 N   0  0  0  0  0  0  0  0  0  0  0  0
   15.8598    2.5642   -3.0762 C   0  0  0  0  0  0  0  0  0  0  0  0
   15.3327   -0.8573   -1.5012 C   0  0  0  0  0  0  0  0  0  0  0  0
   13.2767   -3.0094   -0.6368 C   0  0  0  0  0  0  0  0  0  0  0  0
   12.3981   -3.0674   -1.5055 O   0  0  0  0  0  0  0  0  0  0  0  0
    0.0000    0.0000    0.0000 H   0  0  0  0  0  0  0  0  0  0  0  0
    0.0000    0.0000    0.0000 H   0  0  0  0  0  0  0  0  0  0  0  0
    0.0000    0.0000    0.0000 H   0  0  0  0  0  0  0  0  0  0  0  0
    0.0000    0.0000    0.0000 H   0  0  0  0  0  0  0  0  0  0  0  0
    0.0000    0.0000    0.0000 H   0  0  0  0  0  0  0  0  0  0  0  0
    0.0000    0.0000    0.0000 H   0  0  0  0  0  0  0  0  0  0  0  0
    0.0000    0.0000    0.0000 H   0  0  0  0  0  0  0  0  0  0  0  0
    0.0000    0.0000    0.0000 H   0  0  0  0  0  0  0  0  0  0  0  0
    0.0000    0.0000    0.0000 H   0  0  0  0  0  0  0  0  0  0  0  0
    0.0000    0.0000    0.0000 H   0  0  0  0  0  0  0  0  0  0  0  0
    0.0000    0.0000    0.0000 H   0  0  0  0  0  0  0  0  0  0  0  0
    0.0000    0.0000    0.0000 H   0  0  0  0  0  0  0  0  0  0  0  0
    0.0000    0.0000    0.0000 H   0  0  0  0  0  0  0  0  0  0  0  0
    0.0000    0.0000    0.0000 H   0  0  0  0  0  0  0  0  0  0  0  0
    6.7806   -1.4902   -0.3609 C   0  0  0  0  0  0  0  0  0  0  0  0
    6.5729   -2.7887    0.1198 N   0  0  0  0  0  0  0  0  0  0  0  0
    7.2612   -3.0336    1.3267 C   0  0  0  0  0  0  0  0  0  0  0  0
    7.0304   -4.4571    1.8599 C   0  0  0  0  0  0  0  0  0  0  0  0
    7.8108   -4.3296    3.1674 C   0  0  0  0  0  0  0  0  0  0  0  0
    7.5261   -2.9155    3.6393 C   0  0  0  0  0  0  0  0  0  0  0  0
    6.7470   -2.2524    2.5176 C   0  0  0  0  0  0  0  0  0  0  0  0
    7.1032   -0.7225    0.3100 H   0  0  0  0  0  0  0  0  0  0  0  0
    6.8835   -1.3389   -1.4239 H   0  0  0  0  0  0  0  0  0  0  0  0
    5.6609   -3.2022   -0.0214 H   0  0  0  0  0  0  0  0  0  0  0  0
    8.3516   -2.8693    1.2786 H   0  0  0  0  0  0  0  0  0  0  0  0
    7.4563   -5.2049    1.1921 H   0  0  0  0  0  0  0  0  0  0  0  0
    5.9497   -4.5802    2.0660 H   0  0  0  0  0  0  0  0  0  0  0  0
    8.8955   -4.4426    2.8876 H   0  0  0  0  0  0  0  0  0  0  0  0
    7.5268   -5.0878    3.9010 H   0  0  0  0  0  0  0  0  0  0  0  0
    6.9659   -2.9073    4.5948 H   0  0  0  0  0  0  0  0  0  0  0  0
    8.4923   -2.3723    3.7135 H   0  0  0  0  0  0  0  0  0  0  0  0
    5.6596   -2.4180    2.6445 H   0  0  0  0  0  0  0  0  0  0  0  0
    7.0223   -1.1884    2.4755 H   0  0  0  0  0  0  0  0  0  0  0  0
  1  2  1  0
  2  3  1  0
  2 19  1  0
  3  4  1  0
  3  5  2  0
  5  6  1  0
  6  7  1  0
  6 19  1  0
  7  8  2  0
  7 18  1  0
  8  9  1  0
  9 10  2  0
 10 11  1  0
 11 12  1  0
 11 18  2  0
 12 13  2  0
 12 17  1  0
 13 14  1  0
 14 15  2  0
 15 16  1  0
 16 17  2  0
 19 20  2  0
  1 21  1  0
  1 22  1  0
  1 23  1  0
  4 24  1  0
  4 25  1  0
  5 26  1  0
  8 27  1  0
  9 28  1  0
 10 29  1  0
 13 30  1  0
 14 31  1  0
 15 32  1  0
 17 33  1  0
 18 34  1  0
 35 36  1  0
 36 37  1  0
 37 38  1  0
 38 39  1  0
 39 40  1  0
 40 41  1  0
 41 37  1  0
 35 42  1  0
 35 43  1  0
 36 44  1  0
 37 45  1  0
 38 46  1  0
 38 47  1  0
 39 48  1  0
 39 49  1  0
 40 50  1  0
 40 51  1  0
 41 52  1  0
 41 53  1  0
  6 35  1  6
M  CHG  1   5   1
M  END
>  <attachment_point>  (264) 
26

>  <score>  (264) 
<NA>

$$$$
CAT-4j
     RDKit          3D

 47 49  0  0  1  0  0  0  0  0999 V2000
   11.7106   -2.3098    1.2658 C   0  0  0  0  0  0  0  0  0  0  0  0
   13.0313   -2.6523    0.7225 N   0  0  0  0  0  0  0  0  0  0  0  0
   14.2010   -2.6281    1.3773 C   0  0  0  0  0  0  0  0  0  0  0  0
   14.3777   -2.3568    2.6732 N   0  0  0  0  0  0  0  0  0  0  0  0
   15.2217   -2.9197    0.5738 N   0  0  0  0  0  0  0  0  0  0  0  0
   14.7965   -3.2519   -0.7875 C   0  0  1  0  0  0  0  0  0  0  0  0
   15.3794   -2.2443   -1.7949 C   0  0  0  0  0  0  0  0  0  0  0  0
   15.9522   -2.6550   -3.0208 C   0  0  0  0  0  0  0  0  0  0  0  0
   16.4340   -1.6937   -3.9273 C   0  0  0  0  0  0  0  0  0  0  0  0
   16.3364   -0.3224   -3.6308 C   0  0  0  0  0  0  0  0  0  0  0  0
   15.7943    0.1250   -2.4073 C   0  0  0  0  0  0  0  0  0  0  0  0
   15.6711    1.5693   -2.0915 C   0  0  0  0  0  0  0  0  0  0  0  0
   15.3832    2.0354   -0.7903 C   0  0  0  0  0  0  0  0  0  0  0  0
   15.3534    3.4188   -0.5357 C   0  0  0  0  0  0  0  0  0  0  0  0
   15.5968    4.3049   -1.5946 C   0  0  0  0  0  0  0  0  0  0  0  0
   15.8275    3.8920   -2.8511 N   0  0  0  0  0  0  0  0  0  0  0  0
   15.8598    2.5642   -3.0762 C   0  0  0  0  0  0  0  0  0  0  0  0
   15.3327   -0.8573   -1.5012 C   0  0  0  0  0  0  0  0  0  0  0  0
   13.2767   -3.0094   -0.6368 C   0  0  0  0  0  0  0  0  0  0  0  0
   12.3981   -3.0674   -1.5055 O   0  0  0  0  0  0  0  0  0  0  0  0
    0.0000    0.0000    0.0000 H   0  0  0  0  0  0  0  0  0  0  0  0
    0.0000    0.0000    0.0000 H   0  0  0  0  0  0  0  0  0  0  0  0
    0.0000    0.0000    0.0000 H   0  0  0  0  0  0  0  0  0  0  0  0
    0.0000    0.0000    0.0000 H   0  0  0  0  0  0  0  0  0  0  0  0
    0.0000    0.0000    0.0000 H   0  0  0  0  0  0  0  0  0  0  0  0
    0.0000    0.0000    0.0000 H   0  0  0  0  0  0  0  0  0  0  0  0
    0.0000    0.0000    0.0000 H   0  0  0  0  0  0  0  0  0  0  0  0
    0.0000    0.0000    0.0000 H   0  0  0  0  0  0  0  0  0  0  0  0
    0.0000    0.0000    0.0000 H   0  0  0  0  0  0  0  0  0  0  0  0
    0.0000    0.0000    0.0000 H   0  0  0  0  0  0  0  0  0  0  0  0
    0.0000    0.0000    0.0000 H   0  0  0  0  0  0  0  0  0  0  0  0
    0.0000    0.0000    0.0000 H   0  0  0  0  0  0  0  0  0  0  0  0
    0.0000    0.0000    0.0000 H   0  0  0  0  0  0  0  0  0  0  0  0
    0.0000    0.0000    0.0000 H   0  0  0  0  0  0  0  0  0  0  0  0
    6.9714   -1.5321   -0.3710 N   0  0  0  0  0  0  0  0  0  0  0  0
    6.4095   -2.0767   -1.6203 C   0  0  0  0  0  0  0  0  0  0  0  0
    7.0873   -1.3921   -2.7982 C   0  0  0  0  0  0  0  0  0  0  0  0
    6.8955   -0.0229   -2.7931 O   0  0  0  0  0  0  0  0  0  0  0  0
    5.5594    0.3357   -2.8578 C   0  0  0  0  0  0  0  0  0  0  0  0
    6.9244   -0.4980   -0.4723 H   0  0  0  0  0  0  0  0  0  0  0  0
    5.3261   -1.9966   -1.6314 H   0  0  0  0  0  0  0  0  0  0  0  0
    6.6920   -3.1356   -1.6338 H   0  0  0  0  0  0  0  0  0  0  0  0
    8.1925   -1.5502   -2.6353 H   0  0  0  0  0  0  0  0  0  0  0  0
    6.8439   -1.8759   -3.7396 H   0  0  0  0  0  0  0  0  0  0  0  0
    5.5404    1.4619   -2.8464 H   0  0  0  0  0  0  0  0  0  0  0  0
    5.0814    0.0467   -3.8088 H   0  0  0  0  0  0  0  0  0  0  0  0
    5.0092   -0.0085   -1.9623 H   0  0  0  0  0  0  0  0  0  0  0  0
  1  2  1  0
  2  3  1  0
  2 19  1  0
  3  4  1  0
  3  5  2  0
  5  6  1  0
  6  7  1  0
  6 19  1  0
  7  8  2  0
  7 18  1  0
  8  9  1  0
  9 10  2  0
 10 11  1  0
 11 12  1  0
 11 18  2  0
 12 13  2  0
 12 17  1  0
 13 14  1  0
 14 15  2  0
 15 16  1  0
 16 17  2  0
 19 20  2  0
  1 21  1  0
  1 22  1  0
  1 23  1  0
  4 24  1  0
  4 25  1  0
  5 26  1  0
  8 27  1  0
  9 28  1  0
 10 29  1  0
 13 30  1  0
 14 31  1  0
 15 32  1  0
 17 33  1  0
 18 34  1  0
 35 36  1  0
 36 37  1  0
 37 38  1  0
 38 39  1  0
 35 40  1  0
 36 41  1  0
 36 42  1  0
 37 43  1  0
 37 44  1  0
 39 45  1  0
 39 46  1  0
 39 47  1  0
  6 35  1  6
M  CHG  1   5   1
M  END
>  <attachment_point>  (265) 
26

>  <score>  (265) 
<NA>

$$$$
CAT-4j
     RDKit          3D

 43 45  0  0  1  0  0  0  0  0999 V2000
   11.7106   -2.3098    1.2658 C   0  0  0  0  0  0  0  0  0  0  0  0
   13.0313   -2.6523    0.7225 N   0  0  0  0  0  0  0  0  0  0  0  0
   14.2010   -2.6281    1.3773 C   0  0  0  0  0  0  0  0  0  0  0  0
   14.3777   -2.3568    2.6732 N   0  0  0  0  0  0  0  0  0  0  0  0
   15.2217   -2.9197    0.5738 N   0  0  0  0  0  0  0  0  0  0  0  0
   14.7965   -3.2519   -0.7875 C   0  0  1  0  0  0  0  0  0  0  0  0
   15.3794   -2.2443   -1.7949 C   0  0  0  0  0  0  0  0  0  0  0  0
   15.9522   -2.6550   -3.0208 C   0  0  0  0  0  0  0  0  0  0  0  0
   16.4340   -1.6937   -3.9273 C   0  0  0  0  0  0  0  0  0  0  0  0
   16.3364   -0.3224   -3.6308 C   0  0  0  0  0  0  0  0  0  0  0  0
   15.7943    0.1250   -2.4073 C   0  0  0  0  0  0  0  0  0  0  0  0
   15.6711    1.5693   -2.0915 C   0  0  0  0  0  0  0  0  0  0  0  0
   15.3832    2.0354   -0.7903 C   0  0  0  0  0  0  0  0  0  0  0  0
   15.3534    3.4188   -0.5357 C   0  0  0  0  0  0  0  0  0  0  0  0
   15.5968    4.3049   -1.5946 C   0  0  0  0  0  0  0  0  0  0  0  0
   15.8275    3.8920   -2.8511 N   0  0  0  0  0  0  0  0  0  0  0  0
   15.8598    2.5642   -3.0762 C   0  0  0  0  0  0  0  0  0  0  0  0
   15.3327   -0.8573   -1.5012 C   0  0  0  0  0  0  0  0  0  0  0  0
   13.2767   -3.0094   -0.6368 C   0  0  0  0  0  0  0  0  0  0  0  0
   12.3981   -3.0674   -1.5055 O   0  0  0  0  0  0  0  0  0  0  0  0
    0.0000    0.0000    0.0000 H   0  0  0  0  0  0  0  0  0  0  0  0
    0.0000    0.0000    0.0000 H   0  0  0  0  0  0  0  0  0  0  0  0
    0.0000    0.0000    0.0000 H   0  0  0  0  0  0  0  0  0  0  0  0
    0.0000    0.0000    0.0000 H   0  0  0  0  0  0  0  0  0  0  0  0
    0.0000    0.0000    0.0000 H   0  0  0  0  0  0  0  0  0  0  0  0
    0.0000    0.0000    0.0000 H   0  0  0  0  0  0  0  0  0  0  0  0
    0.0000    0.0000    0.0000 H   0  0  0  0  0  0  0  0  0  0  0  0
    0.0000    0.0000    0.0000 H   0  0  0  0  0  0  0  0  0  0  0  0
    0.0000    0.0000    0.0000 H   0  0  0  0  0  0  0  0  0  0  0  0
    0.0000    0.0000    0.0000 H   0  0  0  0  0  0  0  0  0  0  0  0
    0.0000    0.0000    0.0000 H   0  0  0  0  0  0  0  0  0  0  0  0
    0.0000    0.0000    0.0000 H   0  0  0  0  0  0  0  0  0  0  0  0
    0.0000    0.0000    0.0000 H   0  0  0  0  0  0  0  0  0  0  0  0
    0.0000    0.0000    0.0000 H   0  0  0  0  0  0  0  0  0  0  0  0
    7.0069   -1.5399   -0.3729 C   0  0  0  0  0  0  0  0  0  0  0  0
    6.2910   -2.2158    0.3746 O   0  0  0  0  0  0  0  0  0  0  0  0
    6.3582   -0.4558   -1.1517 C   0  0  0  0  0  0  0  0  0  0  0  0
    5.1408   -1.0994   -1.8188 C   0  0  0  0  0  0  0  0  0  0  0  0
    6.0474    0.3350   -0.4305 H   0  0  0  0  0  0  0  0  0  0  0  0
    7.0085   -0.0870   -1.9636 H   0  0  0  0  0  0  0  0  0  0  0  0
    4.4481   -1.5319   -1.0822 H   0  0  0  0  0  0  0  0  0  0  0  0
    5.5997   -1.9160   -2.4602 H   0  0  0  0  0  0  0  0  0  0  0  0
    4.7039   -0.3399   -2.4566 H   0  0  0  0  0  0  0  0  0  0  0  0
  1  2  1  0
  2  3  1  0
  2 19  1  0
  3  4  1  0
  3  5  2  0
  5  6  1  0
  6  7  1  0
  6 19  1  0
  7  8  2  0
  7 18  1  0
  8  9  1  0
  9 10  2  0
 10 11  1  0
 11 12  1  0
 11 18  2  0
 12 13  2  0
 12 17  1  0
 13 14  1  0
 14 15  2  0
 15 16  1  0
 16 17  2  0
 19 20  2  0
  1 21  1  0
  1 22  1  0
  1 23  1  0
  4 24  1  0
  4 25  1  0
  5 26  1  0
  8 27  1  0
  9 28  1  0
 10 29  1  0
 13 30  1  0
 14 31  1  0
 15 32  1  0
 17 33  1  0
 18 34  1  0
 35 36  2  0
 35 37  1  0
 37 38  1  0
 37 39  1  0
 37 40  1  0
 38 41  1  0
 38 42  1  0
 38 43  1  0
  6 35  1  6
M  CHG  1   5   1
M  END
>  <attachment_point>  (266) 
26

>  <score>  (266) 
<NA>

$$$$
CAT-4j
     RDKit          3D

 45 48  0  0  1  0  0  0  0  0999 V2000
   11.7106   -2.3098    1.2658 C   0  0  0  0  0  0  0  0  0  0  0  0
   13.0313   -2.6523    0.7225 N   0  0  0  0  0  0  0  0  0  0  0  0
   14.2010   -2.6281    1.3773 C   0  0  0  0  0  0  0  0  0  0  0  0
   14.3777   -2.3568    2.6732 N   0  0  0  0  0  0  0  0  0  0  0  0
   15.2217   -2.9197    0.5738 N   0  0  0  0  0  0  0  0  0  0  0  0
   14.7965   -3.2519   -0.7875 C   0  0  1  0  0  0  0  0  0  0  0  0
   15.3794   -2.2443   -1.7949 C   0  0  0  0  0  0  0  0  0  0  0  0
   15.9522   -2.6550   -3.0208 C   0  0  0  0  0  0  0  0  0  0  0  0
   16.4340   -1.6937   -3.9273 C   0  0  0  0  0  0  0  0  0  0  0  0
   16.3364   -0.3224   -3.6308 C   0  0  0  0  0  0  0  0  0  0  0  0
   15.7943    0.1250   -2.4073 C   0  0  0  0  0  0  0  0  0  0  0  0
   15.6711    1.5693   -2.0915 C   0  0  0  0  0  0  0  0  0  0  0  0
   15.3832    2.0354   -0.7903 C   0  0  0  0  0  0  0  0  0  0  0  0
   15.3534    3.4188   -0.5357 C   0  0  0  0  0  0  0  0  0  0  0  0
   15.5968    4.3049   -1.5946 C   0  0  0  0  0  0  0  0  0  0  0  0
   15.8275    3.8920   -2.8511 N   0  0  0  0  0  0  0  0  0  0  0  0
   15.8598    2.5642   -3.0762 C   0  0  0  0  0  0  0  0  0  0  0  0
   15.3327   -0.8573   -1.5012 C   0  0  0  0  0  0  0  0  0  0  0  0
   13.2767   -3.0094   -0.6368 C   0  0  0  0  0  0  0  0  0  0  0  0
   12.3981   -3.0674   -1.5055 O   0  0  0  0  0  0  0  0  0  0  0  0
    0.0000    0.0000    0.0000 H   0  0  0  0  0  0  0  0  0  0  0  0
    0.0000    0.0000    0.0000 H   0  0  0  0  0  0  0  0  0  0  0  0
    0.0000    0.0000    0.0000 H   0  0  0  0  0  0  0  0  0  0  0  0
    0.0000    0.0000    0.0000 H   0  0  0  0  0  0  0  0  0  0  0  0
    0.0000    0.0000    0.0000 H   0  0  0  0  0  0  0  0  0  0  0  0
    0.0000    0.0000    0.0000 H   0  0  0  0  0  0  0  0  0  0  0  0
    0.0000    0.0000    0.0000 H   0  0  0  0  0  0  0  0  0  0  0  0
    0.0000    0.0000    0.0000 H   0  0  0  0  0  0  0  0  0  0  0  0
    0.0000    0.0000    0.0000 H   0  0  0  0  0  0  0  0  0  0  0  0
    0.0000    0.0000    0.0000 H   0  0  0  0  0  0  0  0  0  0  0  0
    0.0000    0.0000    0.0000 H   0  0  0  0  0  0  0  0  0  0  0  0
    0.0000    0.0000    0.0000 H   0  0  0  0  0  0  0  0  0  0  0  0
    0.0000    0.0000    0.0000 H   0  0  0  0  0  0  0  0  0  0  0  0
    0.0000    0.0000    0.0000 H   0  0  0  0  0  0  0  0  0  0  0  0
    6.9849   -1.5351   -0.3718 C   0  0  0  0  0  0  0  0  0  0  0  0
    6.4548   -0.3340    0.0599 C   0  0  0  0  0  0  0  0  0  0  0  0
    5.0837   -0.4969   -0.0397 C   0  0  0  0  0  0  0  0  0  0  0  0
    4.8696   -1.7354   -0.5064 N   0  0  0  0  0  0  0  0  0  0  0  0
    5.9920   -2.3817   -0.7148 N   0  0  0  0  0  0  0  0  0  0  0  0
    6.1543   -3.7513   -1.2196 C   0  0  0  0  0  0  0  0  0  0  0  0
    6.9887    0.5439    0.4015 H   0  0  0  0  0  0  0  0  0  0  0  0
    4.3850    0.2816    0.2301 H   0  0  0  0  0  0  0  0  0  0  0  0
    5.6995   -3.8875   -2.2061 H   0  0  0  0  0  0  0  0  0  0  0  0
    7.2417   -3.9852   -1.2394 H   0  0  0  0  0  0  0  0  0  0  0  0
    5.7072   -4.4804   -0.4863 H   0  0  0  0  0  0  0  0  0  0  0  0
  1  2  1  0
  2  3  1  0
  2 19  1  0
  3  4  1  0
  3  5  2  0
  5  6  1  0
  6  7  1  1
  6 19  1  0
  7  8  2  0
  7 18  1  0
  8  9  1  0
  9 10  2  0
 10 11  1  0
 11 12  1  0
 11 18  2  0
 12 13  2  0
 12 17  1  0
 13 14  1  0
 14 15  2  0
 15 16  1  0
 16 17  2  0
 19 20  2  0
  1 21  1  0
  1 22  1  0
  1 23  1  0
  4 24  1  0
  4 25  1  0
  5 26  1  0
  8 27  1  0
  9 28  1  0
 10 29  1  0
 13 30  1  0
 14 31  1  0
 15 32  1  0
 17 33  1  0
 18 34  1  0
 35 36  2  0
 36 37  1  0
 37 38  2  0
 38 39  1  0
 39 40  1  0
 39 35  1  0
 36 41  1  0
 37 42  1  0
 40 43  1  0
 40 44  1  0
 40 45  1  0
  6 35  1  0
M  CHG  1   5   1
M  END
>  <attachment_point>  (267) 
26

>  <score>  (267) 
<NA>

$$$$
CAT-4j
     RDKit          3D

 49 52  0  0  1  0  0  0  0  0999 V2000
   11.7106   -2.3098    1.2658 C   0  0  0  0  0  0  0  0  0  0  0  0
   13.0313   -2.6523    0.7225 N   0  0  0  0  0  0  0  0  0  0  0  0
   14.2010   -2.6281    1.3773 C   0  0  0  0  0  0  0  0  0  0  0  0
   14.3777   -2.3568    2.6732 N   0  0  0  0  0  0  0  0  0  0  0  0
   15.2217   -2.9197    0.5738 N   0  0  0  0  0  0  0  0  0  0  0  0
   14.7965   -3.2519   -0.7875 C   0  0  1  0  0  0  0  0  0  0  0  0
   15.3794   -2.2443   -1.7949 C   0  0  0  0  0  0  0  0  0  0  0  0
   15.9522   -2.6550   -3.0208 C   0  0  0  0  0  0  0  0  0  0  0  0
   16.4340   -1.6937   -3.9273 C   0  0  0  0  0  0  0  0  0  0  0  0
   16.3364   -0.3224   -3.6308 C   0  0  0  0  0  0  0  0  0  0  0  0
   15.7943    0.1250   -2.4073 C   0  0  0  0  0  0  0  0  0  0  0  0
   15.6711    1.5693   -2.0915 C   0  0  0  0  0  0  0  0  0  0  0  0
   15.3832    2.0354   -0.7903 C   0  0  0  0  0  0  0  0  0  0  0  0
   15.3534    3.4188   -0.5357 C   0  0  0  0  0  0  0  0  0  0  0  0
   15.5968    4.3049   -1.5946 C   0  0  0  0  0  0  0  0  0  0  0  0
   15.8275    3.8920   -2.8511 N   0  0  0  0  0  0  0  0  0  0  0  0
   15.8598    2.5642   -3.0762 C   0  0  0  0  0  0  0  0  0  0  0  0
   15.3327   -0.8573   -1.5012 C   0  0  0  0  0  0  0  0  0  0  0  0
   13.2767   -3.0094   -0.6368 C   0  0  0  0  0  0  0  0  0  0  0  0
   12.3981   -3.0674   -1.5055 O   0  0  0  0  0  0  0  0  0  0  0  0
    0.0000    0.0000    0.0000 H   0  0  0  0  0  0  0  0  0  0  0  0
    0.0000    0.0000    0.0000 H   0  0  0  0  0  0  0  0  0  0  0  0
    0.0000    0.0000    0.0000 H   0  0  0  0  0  0  0  0  0  0  0  0
    0.0000    0.0000    0.0000 H   0  0  0  0  0  0  0  0  0  0  0  0
    0.0000    0.0000    0.0000 H   0  0  0  0  0  0  0  0  0  0  0  0
    0.0000    0.0000    0.0000 H   0  0  0  0  0  0  0  0  0  0  0  0
    0.0000    0.0000    0.0000 H   0  0  0  0  0  0  0  0  0  0  0  0
    0.0000    0.0000    0.0000 H   0  0  0  0  0  0  0  0  0  0  0  0
    0.0000    0.0000    0.0000 H   0  0  0  0  0  0  0  0  0  0  0  0
    0.0000    0.0000    0.0000 H   0  0  0  0  0  0  0  0  0  0  0  0
    0.0000    0.0000    0.0000 H   0  0  0  0  0  0  0  0  0  0  0  0
    0.0000    0.0000    0.0000 H   0  0  0  0  0  0  0  0  0  0  0  0
    0.0000    0.0000    0.0000 H   0  0  0  0  0  0  0  0  0  0  0  0
    0.0000    0.0000    0.0000 H   0  0  0  0  0  0  0  0  0  0  0  0
    6.9545   -1.5284   -0.3701 C   0  0  0  0  0  0  0  0  0  0  0  0
    6.6673   -0.4488    0.1657 O   0  0  0  0  0  0  0  0  0  0  0  0
    5.9483   -2.3726   -0.8621 N   0  0  0  0  0  0  0  0  0  0  0  0
    4.5617   -2.0567   -0.7826 C   0  0  0  0  0  0  0  0  0  0  0  0
    3.7651   -2.4146    0.2856 C   0  0  0  0  0  0  0  0  0  0  0  0
    2.4116   -2.0852    0.3231 C   0  0  0  0  0  0  0  0  0  0  0  0
    1.8230   -1.3877   -0.7114 C   0  0  0  0  0  0  0  0  0  0  0  0
    0.1163   -0.9684   -0.6712 Cl  0  0  0  0  0  0  0  0  0  0  0  0
    2.6126   -1.0265   -1.7822 C   0  0  0  0  0  0  0  0  0  0  0  0
    3.9561   -1.3598   -1.8076 C   0  0  0  0  0  0  0  0  0  0  0  0
    6.2613   -3.2797   -1.3080 H   0  0  0  0  0  0  0  0  0  0  0  0
    4.2373   -2.9650    1.0978 H   0  0  0  0  0  0  0  0  0  0  0  0
    1.8084   -2.3748    1.1672 H   0  0  0  0  0  0  0  0  0  0  0  0
    2.1594   -0.4757   -2.6047 H   0  0  0  0  0  0  0  0  0  0  0  0
    4.5851   -1.0700   -2.6648 H   0  0  0  0  0  0  0  0  0  0  0  0
  1  2  1  0
  2  3  1  0
  2 19  1  0
  3  4  1  0
  3  5  2  0
  5  6  1  0
  6  7  1  0
  6 19  1  0
  7  8  2  0
  7 18  1  0
  8  9  1  0
  9 10  2  0
 10 11  1  0
 11 12  1  0
 11 18  2  0
 12 13  2  0
 12 17  1  0
 13 14  1  0
 14 15  2  0
 15 16  1  0
 16 17  2  0
 19 20  2  0
  1 21  1  0
  1 22  1  0
  1 23  1  0
  4 24  1  0
  4 25  1  0
  5 26  1  0
  8 27  1  0
  9 28  1  0
 10 29  1  0
 13 30  1  0
 14 31  1  0
 15 32  1  0
 17 33  1  0
 18 34  1  0
 35 36  2  0
 35 37  1  0
 37 38  1  0
 38 39  2  0
 39 40  1  0
 40 41  2  0
 41 42  1  0
 41 43  1  0
 43 44  2  0
 44 38  1  0
 37 45  1  0
 39 46  1  0
 40 47  1  0
 43 48  1  0
 44 49  1  0
  6 35  1  6
M  CHG  1   5   1
M  END
>  <attachment_point>  (268) 
26

>  <score>  (268) 
<NA>

$$$$
CAT-4j
     RDKit          3D

 41 43  0  0  1  0  0  0  0  0999 V2000
   11.7106   -2.3098    1.2658 C   0  0  0  0  0  0  0  0  0  0  0  0
   13.0313   -2.6523    0.7225 N   0  0  0  0  0  0  0  0  0  0  0  0
   14.2010   -2.6281    1.3773 C   0  0  0  0  0  0  0  0  0  0  0  0
   14.3777   -2.3568    2.6732 N   0  0  0  0  0  0  0  0  0  0  0  0
   15.2217   -2.9197    0.5738 N   0  0  0  0  0  0  0  0  0  0  0  0
   14.7965   -3.2519   -0.7875 C   0  0  1  0  0  0  0  0  0  0  0  0
   15.3794   -2.2443   -1.7949 C   0  0  0  0  0  0  0  0  0  0  0  0
   15.9522   -2.6550   -3.0208 C   0  0  0  0  0  0  0  0  0  0  0  0
   16.4340   -1.6937   -3.9273 C   0  0  0  0  0  0  0  0  0  0  0  0
   16.3364   -0.3224   -3.6308 C   0  0  0  0  0  0  0  0  0  0  0  0
   15.7943    0.1250   -2.4073 C   0  0  0  0  0  0  0  0  0  0  0  0
   15.6711    1.5693   -2.0915 C   0  0  0  0  0  0  0  0  0  0  0  0
   15.3832    2.0354   -0.7903 C   0  0  0  0  0  0  0  0  0  0  0  0
   15.3534    3.4188   -0.5357 C   0  0  0  0  0  0  0  0  0  0  0  0
   15.5968    4.3049   -1.5946 C   0  0  0  0  0  0  0  0  0  0  0  0
   15.8275    3.8920   -2.8511 N   0  0  0  0  0  0  0  0  0  0  0  0
   15.8598    2.5642   -3.0762 C   0  0  0  0  0  0  0  0  0  0  0  0
   15.3327   -0.8573   -1.5012 C   0  0  0  0  0  0  0  0  0  0  0  0
   13.2767   -3.0094   -0.6368 C   0  0  0  0  0  0  0  0  0  0  0  0
   12.3981   -3.0674   -1.5055 O   0  0  0  0  0  0  0  0  0  0  0  0
    0.0000    0.0000    0.0000 H   0  0  0  0  0  0  0  0  0  0  0  0
    0.0000    0.0000    0.0000 H   0  0  0  0  0  0  0  0  0  0  0  0
    0.0000    0.0000    0.0000 H   0  0  0  0  0  0  0  0  0  0  0  0
    0.0000    0.0000    0.0000 H   0  0  0  0  0  0  0  0  0  0  0  0
    0.0000    0.0000    0.0000 H   0  0  0  0  0  0  0  0  0  0  0  0
    0.0000    0.0000    0.0000 H   0  0  0  0  0  0  0  0  0  0  0  0
    0.0000    0.0000    0.0000 H   0  0  0  0  0  0  0  0  0  0  0  0
    0.0000    0.0000    0.0000 H   0  0  0  0  0  0  0  0  0  0  0  0
    0.0000    0.0000    0.0000 H   0  0  0  0  0  0  0  0  0  0  0  0
    0.0000    0.0000    0.0000 H   0  0  0  0  0  0  0  0  0  0  0  0
    0.0000    0.0000    0.0000 H   0  0  0  0  0  0  0  0  0  0  0  0
    0.0000    0.0000    0.0000 H   0  0  0  0  0  0  0  0  0  0  0  0
    0.0000    0.0000    0.0000 H   0  0  0  0  0  0  0  0  0  0  0  0
    0.0000    0.0000    0.0000 H   0  0  0  0  0  0  0  0  0  0  0  0
    6.8424   -1.5038   -0.3642 O   0  0  0  0  0  0  0  0  0  0  0  0
    6.3090   -2.7235   -0.6610 C   0  0  0  0  0  0  0  0  0  0  0  0
    4.8358   -2.9465   -0.7157 C   0  0  0  0  0  0  0  0  0  0  0  0
    7.0115   -3.7335   -0.9064 O   0  0  0  0  0  0  0  0  0  0  0  0
    4.2607   -2.1165   -0.2725 H   0  0  0  0  0  0  0  0  0  0  0  0
    4.6298   -3.9080   -0.2084 H   0  0  0  0  0  0  0  0  0  0  0  0
    4.5803   -3.0943   -1.7828 H   0  0  0  0  0  0  0  0  0  0  0  0
  1  2  1  0
  2  3  1  0
  2 19  1  0
  3  4  1  0
  3  5  2  0
  5  6  1  0
  6  7  1  0
  6 19  1  0
  7  8  2  0
  7 18  1  0
  8  9  1  0
  9 10  2  0
 10 11  1  0
 11 12  1  0
 11 18  2  0
 12 13  2  0
 12 17  1  0
 13 14  1  0
 14 15  2  0
 15 16  1  0
 16 17  2  0
 19 20  2  0
  1 21  1  0
  1 22  1  0
  1 23  1  0
  4 24  1  0
  4 25  1  0
  5 26  1  0
  8 27  1  0
  9 28  1  0
 10 29  1  0
 13 30  1  0
 14 31  1  0
 15 32  1  0
 17 33  1  0
 18 34  1  0
 35 36  1  0
 36 37  1  0
 36 38  2  0
 37 39  1  0
 37 40  1  0
 37 41  1  0
  6 35  1  6
M  CHG  1   5   1
M  END
>  <attachment_point>  (269) 
26

>  <score>  (269) 
<NA>

$$$$
CAT-4j
     RDKit          3D

 44 47  0  0  1  0  0  0  0  0999 V2000
   11.7106   -2.3098    1.2658 C   0  0  0  0  0  0  0  0  0  0  0  0
   13.0313   -2.6523    0.7225 N   0  0  0  0  0  0  0  0  0  0  0  0
   14.2010   -2.6281    1.3773 C   0  0  0  0  0  0  0  0  0  0  0  0
   14.3777   -2.3568    2.6732 N   0  0  0  0  0  0  0  0  0  0  0  0
   15.2217   -2.9197    0.5738 N   0  0  0  0  0  0  0  0  0  0  0  0
   14.7965   -3.2519   -0.7875 C   0  0  1  0  0  0  0  0  0  0  0  0
   15.3794   -2.2443   -1.7949 C   0  0  0  0  0  0  0  0  0  0  0  0
   15.9522   -2.6550   -3.0208 C   0  0  0  0  0  0  0  0  0  0  0  0
   16.4340   -1.6937   -3.9273 C   0  0  0  0  0  0  0  0  0  0  0  0
   16.3364   -0.3224   -3.6308 C   0  0  0  0  0  0  0  0  0  0  0  0
   15.7943    0.1250   -2.4073 C   0  0  0  0  0  0  0  0  0  0  0  0
   15.6711    1.5693   -2.0915 C   0  0  0  0  0  0  0  0  0  0  0  0
   15.3832    2.0354   -0.7903 C   0  0  0  0  0  0  0  0  0  0  0  0
   15.3534    3.4188   -0.5357 C   0  0  0  0  0  0  0  0  0  0  0  0
   15.5968    4.3049   -1.5946 C   0  0  0  0  0  0  0  0  0  0  0  0
   15.8275    3.8920   -2.8511 N   0  0  0  0  0  0  0  0  0  0  0  0
   15.8598    2.5642   -3.0762 C   0  0  0  0  0  0  0  0  0  0  0  0
   15.3327   -0.8573   -1.5012 C   0  0  0  0  0  0  0  0  0  0  0  0
   13.2767   -3.0094   -0.6368 C   0  0  0  0  0  0  0  0  0  0  0  0
   12.3981   -3.0674   -1.5055 O   0  0  0  0  0  0  0  0  0  0  0  0
    0.0000    0.0000    0.0000 H   0  0  0  0  0  0  0  0  0  0  0  0
    0.0000    0.0000    0.0000 H   0  0  0  0  0  0  0  0  0  0  0  0
    0.0000    0.0000    0.0000 H   0  0  0  0  0  0  0  0  0  0  0  0
    0.0000    0.0000    0.0000 H   0  0  0  0  0  0  0  0  0  0  0  0
    0.0000    0.0000    0.0000 H   0  0  0  0  0  0  0  0  0  0  0  0
    0.0000    0.0000    0.0000 H   0  0  0  0  0  0  0  0  0  0  0  0
    0.0000    0.0000    0.0000 H   0  0  0  0  0  0  0  0  0  0  0  0
    0.0000    0.0000    0.0000 H   0  0  0  0  0  0  0  0  0  0  0  0
    0.0000    0.0000    0.0000 H   0  0  0  0  0  0  0  0  0  0  0  0
    0.0000    0.0000    0.0000 H   0  0  0  0  0  0  0  0  0  0  0  0
    0.0000    0.0000    0.0000 H   0  0  0  0  0  0  0  0  0  0  0  0
    0.0000    0.0000    0.0000 H   0  0  0  0  0  0  0  0  0  0  0  0
    0.0000    0.0000    0.0000 H   0  0  0  0  0  0  0  0  0  0  0  0
    0.0000    0.0000    0.0000 H   0  0  0  0  0  0  0  0  0  0  0  0
    6.9357   -1.5243   -0.3691 C   0  0  0  0  0  0  0  0  0  0  0  0
    6.1049   -2.6115   -0.2459 C   0  0  0  0  0  0  0  0  0  0  0  0
    4.7282   -2.3622   -0.1694 C   0  0  0  0  0  0  0  0  0  0  0  0
    4.3067   -1.0524   -0.2228 C   0  0  0  0  0  0  0  0  0  0  0  0
    2.5836   -0.7052   -0.1292 Cl  0  0  0  0  0  0  0  0  0  0  0  0
    5.1751   -0.0319   -0.3443 N   0  0  0  0  0  0  0  0  0  0  0  0
    6.5215   -0.2313   -0.4220 C   0  0  0  0  0  0  0  0  0  0  0  0
    6.4725   -3.6399   -0.2064 H   0  0  0  0  0  0  0  0  0  0  0  0
    4.0464   -3.1922   -0.0721 H   0  0  0  0  0  0  0  0  0  0  0  0
    7.2051    0.5943   -0.5190 H   0  0  0  0  0  0  0  0  0  0  0  0
  1  2  1  0
  2  3  1  0
  2 19  1  0
  3  4  1  0
  3  5  2  0
  5  6  1  0
  6  7  1  1
  6 19  1  0
  7  8  2  0
  7 18  1  0
  8  9  1  0
  9 10  2  0
 10 11  1  0
 11 12  1  0
 11 18  2  0
 12 13  2  0
 12 17  1  0
 13 14  1  0
 14 15  2  0
 15 16  1  0
 16 17  2  0
 19 20  2  0
  1 21  1  0
  1 22  1  0
  1 23  1  0
  4 24  1  0
  4 25  1  0
  5 26  1  0
  8 27  1  0
  9 28  1  0
 10 29  1  0
 13 30  1  0
 14 31  1  0
 15 32  1  0
 17 33  1  0
 18 34  1  0
 35 36  2  0
 36 37  1  0
 37 38  2  0
 38 39  1  0
 38 40  1  0
 40 41  2  0
 41 35  1  0
 36 42  1  0
 37 43  1  0
 41 44  1  0
  6 35  1  0
M  CHG  1   5   1
M  END
>  <attachment_point>  (270) 
26

>  <score>  (270) 
<NA>

$$$$
CAT-4j
     RDKit          3D

 52 54  0  0  1  0  0  0  0  0999 V2000
   11.7106   -2.3098    1.2658 C   0  0  0  0  0  0  0  0  0  0  0  0
   13.0313   -2.6523    0.7225 N   0  0  0  0  0  0  0  0  0  0  0  0
   14.2010   -2.6281    1.3773 C   0  0  0  0  0  0  0  0  0  0  0  0
   14.3777   -2.3568    2.6732 N   0  0  0  0  0  0  0  0  0  0  0  0
   15.2217   -2.9197    0.5738 N   0  0  0  0  0  0  0  0  0  0  0  0
   14.7965   -3.2519   -0.7875 C   0  0  1  0  0  0  0  0  0  0  0  0
   15.3794   -2.2443   -1.7949 C   0  0  0  0  0  0  0  0  0  0  0  0
   15.9522   -2.6550   -3.0208 C   0  0  0  0  0  0  0  0  0  0  0  0
   16.4340   -1.6937   -3.9273 C   0  0  0  0  0  0  0  0  0  0  0  0
   16.3364   -0.3224   -3.6308 C   0  0  0  0  0  0  0  0  0  0  0  0
   15.7943    0.1250   -2.4073 C   0  0  0  0  0  0  0  0  0  0  0  0
   15.6711    1.5693   -2.0915 C   0  0  0  0  0  0  0  0  0  0  0  0
   15.3832    2.0354   -0.7903 C   0  0  0  0  0  0  0  0  0  0  0  0
   15.3534    3.4188   -0.5357 C   0  0  0  0  0  0  0  0  0  0  0  0
   15.5968    4.3049   -1.5946 C   0  0  0  0  0  0  0  0  0  0  0  0
   15.8275    3.8920   -2.8511 N   0  0  0  0  0  0  0  0  0  0  0  0
   15.8598    2.5642   -3.0762 C   0  0  0  0  0  0  0  0  0  0  0  0
   15.3327   -0.8573   -1.5012 C   0  0  0  0  0  0  0  0  0  0  0  0
   13.2767   -3.0094   -0.6368 C   0  0  0  0  0  0  0  0  0  0  0  0
   12.3981   -3.0674   -1.5055 O   0  0  0  0  0  0  0  0  0  0  0  0
    0.0000    0.0000    0.0000 H   0  0  0  0  0  0  0  0  0  0  0  0
    0.0000    0.0000    0.0000 H   0  0  0  0  0  0  0  0  0  0  0  0
    0.0000    0.0000    0.0000 H   0  0  0  0  0  0  0  0  0  0  0  0
    0.0000    0.0000    0.0000 H   0  0  0  0  0  0  0  0  0  0  0  0
    0.0000    0.0000    0.0000 H   0  0  0  0  0  0  0  0  0  0  0  0
    0.0000    0.0000    0.0000 H   0  0  0  0  0  0  0  0  0  0  0  0
    0.0000    0.0000    0.0000 H   0  0  0  0  0  0  0  0  0  0  0  0
    0.0000    0.0000    0.0000 H   0  0  0  0  0  0  0  0  0  0  0  0
    0.0000    0.0000    0.0000 H   0  0  0  0  0  0  0  0  0  0  0  0
    0.0000    0.0000    0.0000 H   0  0  0  0  0  0  0  0  0  0  0  0
    0.0000    0.0000    0.0000 H   0  0  0  0  0  0  0  0  0  0  0  0
    0.0000    0.0000    0.0000 H   0  0  0  0  0  0  0  0  0  0  0  0
    0.0000    0.0000    0.0000 H   0  0  0  0  0  0  0  0  0  0  0  0
    0.0000    0.0000    0.0000 H   0  0  0  0  0  0  0  0  0  0  0  0
    6.9949   -1.5373   -0.3723 C   0  0  0  0  0  0  0  0  0  0  0  0
    6.7085   -0.5995    0.7525 C   0  0  0  0  0  0  0  0  0  0  0  0
    7.3810    0.7277    0.6793 C   0  0  0  0  0  0  0  0  0  0  0  0
    8.8063    0.7034    0.7392 N   0  0  0  0  0  0  0  0  0  0  0  0
    9.2770    2.0558    0.9796 C   0  0  0  0  0  0  0  0  0  0  0  0
    9.3656   -0.1386    1.7452 C   0  0  0  0  0  0  0  0  0  0  0  0
    6.3797   -2.4513   -0.1996 H   0  0  0  0  0  0  0  0  0  0  0  0
    6.6802   -1.1571   -1.3685 H   0  0  0  0  0  0  0  0  0  0  0  0
    6.9345   -1.1254    1.7080 H   0  0  0  0  0  0  0  0  0  0  0  0
    5.6110   -0.4093    0.8020 H   0  0  0  0  0  0  0  0  0  0  0  0
    7.1412    1.1148   -0.3648 H   0  0  0  0  0  0  0  0  0  0  0  0
    6.8933    1.4382    1.3540 H   0  0  0  0  0  0  0  0  0  0  0  0
    9.1826    2.2535    2.0808 H   0  0  0  0  0  0  0  0  0  0  0  0
    8.7236    2.8147    0.4064 H   0  0  0  0  0  0  0  0  0  0  0  0
   10.3639    2.0590    0.7661 H   0  0  0  0  0  0  0  0  0  0  0  0
    9.1489    0.2473    2.7820 H   0  0  0  0  0  0  0  0  0  0  0  0
   10.4692   -0.0977    1.6326 H   0  0  0  0  0  0  0  0  0  0  0  0
    8.9940   -1.1838    1.7018 H   0  0  0  0  0  0  0  0  0  0  0  0
  1  2  1  0
  2  3  1  0
  2 19  1  0
  3  4  1  0
  3  5  2  0
  5  6  1  0
  6  7  1  0
  6 19  1  0
  7  8  2  0
  7 18  1  0
  8  9  1  0
  9 10  2  0
 10 11  1  0
 11 12  1  0
 11 18  2  0
 12 13  2  0
 12 17  1  0
 13 14  1  0
 14 15  2  0
 15 16  1  0
 16 17  2  0
 19 20  2  0
  1 21  1  0
  1 22  1  0
  1 23  1  0
  4 24  1  0
  4 25  1  0
  5 26  1  0
  8 27  1  0
  9 28  1  0
 10 29  1  0
 13 30  1  0
 14 31  1  0
 15 32  1  0
 17 33  1  0
 18 34  1  0
 35 36  1  0
 36 37  1  0
 37 38  1  0
 38 39  1  0
 38 40  1  0
 35 41  1  0
 35 42  1  0
 36 43  1  0
 36 44  1  0
 37 45  1  0
 37 46  1  0
 39 47  1  0
 39 48  1  0
 39 49  1  0
 40 50  1  0
 40 51  1  0
 40 52  1  0
  6 35  1  6
M  CHG  1   5   1
M  END
>  <attachment_point>  (271) 
26

>  <score>  (271) 
<NA>

$$$$
CAT-4j
     RDKit          3D

 50 54  0  0  1  0  0  0  0  0999 V2000
   11.7106   -2.3098    1.2658 C   0  0  0  0  0  0  0  0  0  0  0  0
   13.0313   -2.6523    0.7225 N   0  0  0  0  0  0  0  0  0  0  0  0
   14.2010   -2.6281    1.3773 C   0  0  0  0  0  0  0  0  0  0  0  0
   14.3777   -2.3568    2.6732 N   0  0  0  0  0  0  0  0  0  0  0  0
   15.2217   -2.9197    0.5738 N   0  0  0  0  0  0  0  0  0  0  0  0
   14.7965   -3.2519   -0.7875 C   0  0  1  0  0  0  0  0  0  0  0  0
   15.3794   -2.2443   -1.7949 C   0  0  0  0  0  0  0  0  0  0  0  0
   15.9522   -2.6550   -3.0208 C   0  0  0  0  0  0  0  0  0  0  0  0
   16.4340   -1.6937   -3.9273 C   0  0  0  0  0  0  0  0  0  0  0  0
   16.3364   -0.3224   -3.6308 C   0  0  0  0  0  0  0  0  0  0  0  0
   15.7943    0.1250   -2.4073 C   0  0  0  0  0  0  0  0  0  0  0  0
   15.6711    1.5693   -2.0915 C   0  0  0  0  0  0  0  0  0  0  0  0
   15.3832    2.0354   -0.7903 C   0  0  0  0  0  0  0  0  0  0  0  0
   15.3534    3.4188   -0.5357 C   0  0  0  0  0  0  0  0  0  0  0  0
   15.5968    4.3049   -1.5946 C   0  0  0  0  0  0  0  0  0  0  0  0
   15.8275    3.8920   -2.8511 N   0  0  0  0  0  0  0  0  0  0  0  0
   15.8598    2.5642   -3.0762 C   0  0  0  0  0  0  0  0  0  0  0  0
   15.3327   -0.8573   -1.5012 C   0  0  0  0  0  0  0  0  0  0  0  0
   13.2767   -3.0094   -0.6368 C   0  0  0  0  0  0  0  0  0  0  0  0
   12.3981   -3.0674   -1.5055 O   0  0  0  0  0  0  0  0  0  0  0  0
    0.0000    0.0000    0.0000 H   0  0  0  0  0  0  0  0  0  0  0  0
    0.0000    0.0000    0.0000 H   0  0  0  0  0  0  0  0  0  0  0  0
    0.0000    0.0000    0.0000 H   0  0  0  0  0  0  0  0  0  0  0  0
    0.0000    0.0000    0.0000 H   0  0  0  0  0  0  0  0  0  0  0  0
    0.0000    0.0000    0.0000 H   0  0  0  0  0  0  0  0  0  0  0  0
    0.0000    0.0000    0.0000 H   0  0  0  0  0  0  0  0  0  0  0  0
    0.0000    0.0000    0.0000 H   0  0  0  0  0  0  0  0  0  0  0  0
    0.0000    0.0000    0.0000 H   0  0  0  0  0  0  0  0  0  0  0  0
    0.0000    0.0000    0.0000 H   0  0  0  0  0  0  0  0  0  0  0  0
    0.0000    0.0000    0.0000 H   0  0  0  0  0  0  0  0  0  0  0  0
    0.0000    0.0000    0.0000 H   0  0  0  0  0  0  0  0  0  0  0  0
    0.0000    0.0000    0.0000 H   0  0  0  0  0  0  0  0  0  0  0  0
    0.0000    0.0000    0.0000 H   0  0  0  0  0  0  0  0  0  0  0  0
    0.0000    0.0000    0.0000 H   0  0  0  0  0  0  0  0  0  0  0  0
    6.9306   -1.5232   -0.3689 C   0  0  0  0  0  0  0  0  0  0  0  0
    6.6057   -0.2424    0.0237 C   0  0  0  0  0  0  0  0  0  0  0  0
    5.2619    0.0502    0.0946 C   0  0  0  0  0  0  0  0  0  0  0  0
    4.2960   -0.9039   -0.2160 C   0  0  0  0  0  0  0  0  0  0  0  0
    2.9552   -0.5927   -0.1394 C   0  0  0  0  0  0  0  0  0  0  0  0
    1.9935   -1.5482   -0.4504 C   0  0  0  0  0  0  0  0  0  0  0  0
    2.4218   -2.8016   -0.8329 C   0  0  0  0  0  0  0  0  0  0  0  0
    3.7641   -3.0942   -0.9037 C   0  0  0  0  0  0  0  0  0  0  0  0
    4.7415   -2.1449   -0.5945 C   0  0  0  0  0  0  0  0  0  0  0  0
    6.0604   -2.4686   -0.6752 N   0  0  0  0  0  0  0  0  0  0  0  0
    7.4058    0.4366    0.2464 H   0  0  0  0  0  0  0  0  0  0  0  0
    4.9826    1.0497    0.4005 H   0  0  0  0  0  0  0  0  0  0  0  0
    2.6236    0.3914    0.1610 H   0  0  0  0  0  0  0  0  0  0  0  0
    0.9334   -1.3087   -0.3919 H   0  0  0  0  0  0  0  0  0  0  0  0
    1.6784   -3.5480   -1.0756 H   0  0  0  0  0  0  0  0  0  0  0  0
    4.0710   -4.0680   -1.2013 H   0  0  0  0  0  0  0  0  0  0  0  0
  1  2  1  0
  2  3  1  0
  2 19  1  0
  3  4  1  0
  3  5  2  0
  5  6  1  0
  6  7  1  1
  6 19  1  0
  7  8  2  0
  7 18  1  0
  8  9  1  0
  9 10  2  0
 10 11  1  0
 11 12  1  0
 11 18  2  0
 12 13  2  0
 12 17  1  0
 13 14  1  0
 14 15  2  0
 15 16  1  0
 16 17  2  0
 19 20  2  0
  1 21  1  0
  1 22  1  0
  1 23  1  0
  4 24  1  0
  4 25  1  0
  5 26  1  0
  8 27  1  0
  9 28  1  0
 10 29  1  0
 13 30  1  0
 14 31  1  0
 15 32  1  0
 17 33  1  0
 18 34  1  0
 35 36  2  0
 36 37  1  0
 37 38  2  0
 38 39  1  0
 39 40  2  0
 40 41  1  0
 41 42  2  0
 42 43  1  0
 43 44  2  0
 44 35  1  0
 43 38  1  0
 36 45  1  0
 37 46  1  0
 39 47  1  0
 40 48  1  0
 41 49  1  0
 42 50  1  0
  6 35  1  0
M  CHG  1   5   1
M  END
>  <attachment_point>  (272) 
26

>  <score>  (272) 
<NA>

$$$$
CAT-4j
     RDKit          3D

 44 47  0  0  1  0  0  0  0  0999 V2000
   11.7106   -2.3098    1.2658 C   0  0  0  0  0  0  0  0  0  0  0  0
   13.0313   -2.6523    0.7225 N   0  0  0  0  0  0  0  0  0  0  0  0
   14.2010   -2.6281    1.3773 C   0  0  0  0  0  0  0  0  0  0  0  0
   14.3777   -2.3568    2.6732 N   0  0  0  0  0  0  0  0  0  0  0  0
   15.2217   -2.9197    0.5738 N   0  0  0  0  0  0  0  0  0  0  0  0
   14.7965   -3.2519   -0.7875 C   0  0  1  0  0  0  0  0  0  0  0  0
   15.3794   -2.2443   -1.7949 C   0  0  0  0  0  0  0  0  0  0  0  0
   15.9522   -2.6550   -3.0208 C   0  0  0  0  0  0  0  0  0  0  0  0
   16.4340   -1.6937   -3.9273 C   0  0  0  0  0  0  0  0  0  0  0  0
   16.3364   -0.3224   -3.6308 C   0  0  0  0  0  0  0  0  0  0  0  0
   15.7943    0.1250   -2.4073 C   0  0  0  0  0  0  0  0  0  0  0  0
   15.6711    1.5693   -2.0915 C   0  0  0  0  0  0  0  0  0  0  0  0
   15.3832    2.0354   -0.7903 C   0  0  0  0  0  0  0  0  0  0  0  0
   15.3534    3.4188   -0.5357 C   0  0  0  0  0  0  0  0  0  0  0  0
   15.5968    4.3049   -1.5946 C   0  0  0  0  0  0  0  0  0  0  0  0
   15.8275    3.8920   -2.8511 N   0  0  0  0  0  0  0  0  0  0  0  0
   15.8598    2.5642   -3.0762 C   0  0  0  0  0  0  0  0  0  0  0  0
   15.3327   -0.8573   -1.5012 C   0  0  0  0  0  0  0  0  0  0  0  0
   13.2767   -3.0094   -0.6368 C   0  0  0  0  0  0  0  0  0  0  0  0
   12.3981   -3.0674   -1.5055 O   0  0  0  0  0  0  0  0  0  0  0  0
    0.0000    0.0000    0.0000 H   0  0  0  0  0  0  0  0  0  0  0  0
    0.0000    0.0000    0.0000 H   0  0  0  0  0  0  0  0  0  0  0  0
    0.0000    0.0000    0.0000 H   0  0  0  0  0  0  0  0  0  0  0  0
    0.0000    0.0000    0.0000 H   0  0  0  0  0  0  0  0  0  0  0  0
    0.0000    0.0000    0.0000 H   0  0  0  0  0  0  0  0  0  0  0  0
    0.0000    0.0000    0.0000 H   0  0  0  0  0  0  0  0  0  0  0  0
    0.0000    0.0000    0.0000 H   0  0  0  0  0  0  0  0  0  0  0  0
    0.0000    0.0000    0.0000 H   0  0  0  0  0  0  0  0  0  0  0  0
    0.0000    0.0000    0.0000 H   0  0  0  0  0  0  0  0  0  0  0  0
    0.0000    0.0000    0.0000 H   0  0  0  0  0  0  0  0  0  0  0  0
    0.0000    0.0000    0.0000 H   0  0  0  0  0  0  0  0  0  0  0  0
    0.0000    0.0000    0.0000 H   0  0  0  0  0  0  0  0  0  0  0  0
    0.0000    0.0000    0.0000 H   0  0  0  0  0  0  0  0  0  0  0  0
    0.0000    0.0000    0.0000 H   0  0  0  0  0  0  0  0  0  0  0  0
    6.8690   -1.5096   -0.3656 C   0  0  0  0  0  0  0  0  0  0  0  0
    6.1481   -2.5566   -0.3741 C   0  0  0  0  0  0  0  0  0  0  0  0
    6.7076   -4.2914   -0.4666 S   0  0  0  0  0  0  0  0  0  0  0  0
    5.1159   -4.9230   -0.9817 C   0  0  0  0  0  0  0  0  0  0  0  0
    4.8666   -6.0167   -1.5373 O   0  0  0  0  0  0  0  0  0  0  0  0
    4.1903   -3.9395   -0.6363 N   0  0  0  0  0  0  0  0  0  0  0  0
    4.6918   -2.7010   -0.3155 C   0  0  0  0  0  0  0  0  0  0  0  0
    4.0042   -1.6776    0.0251 O   0  0  0  0  0  0  0  0  0  0  0  0
    6.7764   -0.5122   -0.3226 H   0  0  0  0  0  0  0  0  0  0  0  0
    3.1438   -4.1570   -0.6267 H   0  0  0  0  0  0  0  0  0  0  0  0
  1  2  1  0
  2  3  1  0
  2 19  1  0
  3  4  1  0
  3  5  2  0
  5  6  1  0
  6  7  1  1
  6 19  1  0
  7  8  2  0
  7 18  1  0
  8  9  1  0
  9 10  2  0
 10 11  1  0
 11 12  1  0
 11 18  2  0
 12 13  2  0
 12 17  1  0
 13 14  1  0
 14 15  2  0
 15 16  1  0
 16 17  2  0
 19 20  2  0
  1 21  1  0
  1 22  1  0
  1 23  1  0
  4 24  1  0
  4 25  1  0
  5 26  1  0
  8 27  1  0
  9 28  1  0
 10 29  1  0
 13 30  1  0
 14 31  1  0
 15 32  1  0
 17 33  1  0
 18 34  1  0
 35 36  2  3
 36 37  1  0
 37 38  1  0
 38 39  2  0
 38 40  1  0
 40 41  1  0
 41 42  2  0
 41 36  1  0
 35 43  1  0
 40 44  1  0
  6 35  1  0
M  CHG  1   5   1
M  END
>  <attachment_point>  (273) 
26

>  <score>  (273) 
<NA>

$$$$
CAT-4j
     RDKit          3D

 48 51  0  0  1  0  0  0  0  0999 V2000
   11.7106   -2.3098    1.2658 C   0  0  0  0  0  0  0  0  0  0  0  0
   13.0313   -2.6523    0.7225 N   0  0  0  0  0  0  0  0  0  0  0  0
   14.2010   -2.6281    1.3773 C   0  0  0  0  0  0  0  0  0  0  0  0
   14.3777   -2.3568    2.6732 N   0  0  0  0  0  0  0  0  0  0  0  0
   15.2217   -2.9197    0.5738 N   0  0  0  0  0  0  0  0  0  0  0  0
   14.7965   -3.2519   -0.7875 C   0  0  1  0  0  0  0  0  0  0  0  0
   15.3794   -2.2443   -1.7949 C   0  0  0  0  0  0  0  0  0  0  0  0
   15.9522   -2.6550   -3.0208 C   0  0  0  0  0  0  0  0  0  0  0  0
   16.4340   -1.6937   -3.9273 C   0  0  0  0  0  0  0  0  0  0  0  0
   16.3364   -0.3224   -3.6308 C   0  0  0  0  0  0  0  0  0  0  0  0
   15.7943    0.1250   -2.4073 C   0  0  0  0  0  0  0  0  0  0  0  0
   15.6711    1.5693   -2.0915 C   0  0  0  0  0  0  0  0  0  0  0  0
   15.3832    2.0354   -0.7903 C   0  0  0  0  0  0  0  0  0  0  0  0
   15.3534    3.4188   -0.5357 C   0  0  0  0  0  0  0  0  0  0  0  0
   15.5968    4.3049   -1.5946 C   0  0  0  0  0  0  0  0  0  0  0  0
   15.8275    3.8920   -2.8511 N   0  0  0  0  0  0  0  0  0  0  0  0
   15.8598    2.5642   -3.0762 C   0  0  0  0  0  0  0  0  0  0  0  0
   15.3327   -0.8573   -1.5012 C   0  0  0  0  0  0  0  0  0  0  0  0
   13.2767   -3.0094   -0.6368 C   0  0  0  0  0  0  0  0  0  0  0  0
   12.3981   -3.0674   -1.5055 O   0  0  0  0  0  0  0  0  0  0  0  0
    0.0000    0.0000    0.0000 H   0  0  0  0  0  0  0  0  0  0  0  0
    0.0000    0.0000    0.0000 H   0  0  0  0  0  0  0  0  0  0  0  0
    0.0000    0.0000    0.0000 H   0  0  0  0  0  0  0  0  0  0  0  0
    0.0000    0.0000    0.0000 H   0  0  0  0  0  0  0  0  0  0  0  0
    0.0000    0.0000    0.0000 H   0  0  0  0  0  0  0  0  0  0  0  0
    0.0000    0.0000    0.0000 H   0  0  0  0  0  0  0  0  0  0  0  0
    0.0000    0.0000    0.0000 H   0  0  0  0  0  0  0  0  0  0  0  0
    0.0000    0.0000    0.0000 H   0  0  0  0  0  0  0  0  0  0  0  0
    0.0000    0.0000    0.0000 H   0  0  0  0  0  0  0  0  0  0  0  0
    0.0000    0.0000    0.0000 H   0  0  0  0  0  0  0  0  0  0  0  0
    0.0000    0.0000    0.0000 H   0  0  0  0  0  0  0  0  0  0  0  0
    0.0000    0.0000    0.0000 H   0  0  0  0  0  0  0  0  0  0  0  0
    0.0000    0.0000    0.0000 H   0  0  0  0  0  0  0  0  0  0  0  0
    0.0000    0.0000    0.0000 H   0  0  0  0  0  0  0  0  0  0  0  0
    6.9846   -1.5350   -0.3717 C   0  0  0  0  0  0  0  0  0  0  0  0
    6.0980   -2.5974   -0.3925 C   0  0  0  0  0  0  0  0  0  0  0  0
    4.7892   -2.2987   -0.3222 N   0  0  0  0  0  0  0  0  0  0  0  0
    4.3112   -1.0453   -0.2348 C   0  0  0  0  0  0  0  0  0  0  0  0
    5.1932    0.0165   -0.2140 C   0  0  0  0  0  0  0  0  0  0  0  0
    4.7123    1.3093   -0.1243 O   0  0  0  0  0  0  0  0  0  0  0  0
    3.3166    1.4998   -0.0563 C   0  0  0  0  0  0  0  0  0  0  0  0
    6.5445   -0.2356   -0.2835 C   0  0  0  0  0  0  0  0  0  0  0  0
    6.4824   -3.5919   -0.4621 H   0  0  0  0  0  0  0  0  0  0  0  0
    3.2419   -0.8751   -0.1815 H   0  0  0  0  0  0  0  0  0  0  0  0
    2.8399    0.8987    0.7426 H   0  0  0  0  0  0  0  0  0  0  0  0
    2.8991    1.2033   -1.0415 H   0  0  0  0  0  0  0  0  0  0  0  0
    3.1651    2.6016    0.1390 H   0  0  0  0  0  0  0  0  0  0  0  0
    7.2775    0.5502   -0.2713 H   0  0  0  0  0  0  0  0  0  0  0  0
  1  2  1  0
  2  3  1  0
  2 19  1  0
  3  4  1  0
  3  5  2  0
  5  6  1  0
  6  7  1  1
  6 19  1  0
  7  8  2  0
  7 18  1  0
  8  9  1  0
  9 10  2  0
 10 11  1  0
 11 12  1  0
 11 18  2  0
 12 13  2  0
 12 17  1  0
 13 14  1  0
 14 15  2  0
 15 16  1  0
 16 17  2  0
 19 20  2  0
  1 21  1  0
  1 22  1  0
  1 23  1  0
  4 24  1  0
  4 25  1  0
  5 26  1  0
  8 27  1  0
  9 28  1  0
 10 29  1  0
 13 30  1  0
 14 31  1  0
 15 32  1  0
 17 33  1  0
 18 34  1  0
 35 36  2  0
 36 37  1  0
 37 38  2  0
 38 39  1  0
 39 40  1  0
 40 41  1  0
 39 42  2  0
 42 35  1  0
 36 43  1  0
 38 44  1  0
 41 45  1  0
 41 46  1  0
 41 47  1  0
 42 48  1  0
  6 35  1  0
M  CHG  1   5   1
M  END
>  <attachment_point>  (274) 
26

>  <score>  (274) 
<NA>

$$$$
CAT-4j
     RDKit          3D

 47 50  0  0  1  0  0  0  0  0999 V2000
   11.7106   -2.3098    1.2658 C   0  0  0  0  0  0  0  0  0  0  0  0
   13.0313   -2.6523    0.7225 N   0  0  0  0  0  0  0  0  0  0  0  0
   14.2010   -2.6281    1.3773 C   0  0  0  0  0  0  0  0  0  0  0  0
   14.3777   -2.3568    2.6732 N   0  0  0  0  0  0  0  0  0  0  0  0
   15.2217   -2.9197    0.5738 N   0  0  0  0  0  0  0  0  0  0  0  0
   14.7965   -3.2519   -0.7875 C   0  0  1  0  0  0  0  0  0  0  0  0
   15.3794   -2.2443   -1.7949 C   0  0  0  0  0  0  0  0  0  0  0  0
   15.9522   -2.6550   -3.0208 C   0  0  0  0  0  0  0  0  0  0  0  0
   16.4340   -1.6937   -3.9273 C   0  0  0  0  0  0  0  0  0  0  0  0
   16.3364   -0.3224   -3.6308 C   0  0  0  0  0  0  0  0  0  0  0  0
   15.7943    0.1250   -2.4073 C   0  0  0  0  0  0  0  0  0  0  0  0
   15.6711    1.5693   -2.0915 C   0  0  0  0  0  0  0  0  0  0  0  0
   15.3832    2.0354   -0.7903 C   0  0  0  0  0  0  0  0  0  0  0  0
   15.3534    3.4188   -0.5357 C   0  0  0  0  0  0  0  0  0  0  0  0
   15.5968    4.3049   -1.5946 C   0  0  0  0  0  0  0  0  0  0  0  0
   15.8275    3.8920   -2.8511 N   0  0  0  0  0  0  0  0  0  0  0  0
   15.8598    2.5642   -3.0762 C   0  0  0  0  0  0  0  0  0  0  0  0
   15.3327   -0.8573   -1.5012 C   0  0  0  0  0  0  0  0  0  0  0  0
   13.2767   -3.0094   -0.6368 C   0  0  0  0  0  0  0  0  0  0  0  0
   12.3981   -3.0674   -1.5055 O   0  0  0  0  0  0  0  0  0  0  0  0
    0.0000    0.0000    0.0000 H   0  0  0  0  0  0  0  0  0  0  0  0
    0.0000    0.0000    0.0000 H   0  0  0  0  0  0  0  0  0  0  0  0
    0.0000    0.0000    0.0000 H   0  0  0  0  0  0  0  0  0  0  0  0
    0.0000    0.0000    0.0000 H   0  0  0  0  0  0  0  0  0  0  0  0
    0.0000    0.0000    0.0000 H   0  0  0  0  0  0  0  0  0  0  0  0
    0.0000    0.0000    0.0000 H   0  0  0  0  0  0  0  0  0  0  0  0
    0.0000    0.0000    0.0000 H   0  0  0  0  0  0  0  0  0  0  0  0
    0.0000    0.0000    0.0000 H   0  0  0  0  0  0  0  0  0  0  0  0
    0.0000    0.0000    0.0000 H   0  0  0  0  0  0  0  0  0  0  0  0
    0.0000    0.0000    0.0000 H   0  0  0  0  0  0  0  0  0  0  0  0
    0.0000    0.0000    0.0000 H   0  0  0  0  0  0  0  0  0  0  0  0
    0.0000    0.0000    0.0000 H   0  0  0  0  0  0  0  0  0  0  0  0
    0.0000    0.0000    0.0000 H   0  0  0  0  0  0  0  0  0  0  0  0
    0.0000    0.0000    0.0000 H   0  0  0  0  0  0  0  0  0  0  0  0
    6.9471   -1.5268   -0.3697 C   0  0  0  0  0  0  0  0  0  0  0  0
    6.0652   -2.4985   -0.6580 N   0  0  0  0  0  0  0  0  0  0  0  0
    4.7348   -2.3075   -0.6164 C   0  0  0  0  0  0  0  0  0  0  0  0
    4.3047   -1.0410   -0.2564 C   0  0  0  0  0  0  0  0  0  0  0  0
    5.1926   -0.0247    0.0448 C   0  0  0  0  0  0  0  0  0  0  0  0
    6.5549   -0.2612   -0.0096 C   0  0  0  0  0  0  0  0  0  0  0  0
    7.5563    0.7908    0.3028 C   0  0  0  0  0  0  0  0  0  0  0  0
    6.8626    1.9429    0.6273 F   0  0  0  0  0  0  0  0  0  0  0  0
    8.4263    0.4040    1.3060 F   0  0  0  0  0  0  0  0  0  0  0  0
    8.3346    1.0071   -0.8316 F   0  0  0  0  0  0  0  0  0  0  0  0
    4.0242   -3.0898   -0.8484 H   0  0  0  0  0  0  0  0  0  0  0  0
    3.2252   -0.8655   -0.2166 H   0  0  0  0  0  0  0  0  0  0  0  0
    4.8369    0.9637    0.3254 H   0  0  0  0  0  0  0  0  0  0  0  0
  1  2  1  0
  2  3  1  0
  2 19  1  0
  3  4  1  0
  3  5  2  0
  5  6  1  0
  6  7  1  1
  6 19  1  0
  7  8  2  0
  7 18  1  0
  8  9  1  0
  9 10  2  0
 10 11  1  0
 11 12  1  0
 11 18  2  0
 12 13  2  0
 12 17  1  0
 13 14  1  0
 14 15  2  0
 15 16  1  0
 16 17  2  0
 19 20  2  0
  1 21  1  0
  1 22  1  0
  1 23  1  0
  4 24  1  0
  4 25  1  0
  5 26  1  0
  8 27  1  0
  9 28  1  0
 10 29  1  0
 13 30  1  0
 14 31  1  0
 15 32  1  0
 17 33  1  0
 18 34  1  0
 35 36  2  0
 36 37  1  0
 37 38  2  0
 38 39  1  0
 39 40  2  0
 40 41  1  0
 41 42  1  0
 41 43  1  0
 41 44  1  0
 40 35  1  0
 37 45  1  0
 38 46  1  0
 39 47  1  0
  6 35  1  0
M  CHG  1   5   1
M  END
>  <attachment_point>  (275) 
26

>  <score>  (275) 
<NA>

$$$$
CAT-4j
     RDKit          3D

 53 56  0  0  1  0  0  0  0  0999 V2000
   11.7106   -2.3098    1.2658 C   0  0  0  0  0  0  0  0  0  0  0  0
   13.0313   -2.6523    0.7225 N   0  0  0  0  0  0  0  0  0  0  0  0
   14.2010   -2.6281    1.3773 C   0  0  0  0  0  0  0  0  0  0  0  0
   14.3777   -2.3568    2.6732 N   0  0  0  0  0  0  0  0  0  0  0  0
   15.2217   -2.9197    0.5738 N   0  0  0  0  0  0  0  0  0  0  0  0
   14.7965   -3.2519   -0.7875 C   0  0  1  0  0  0  0  0  0  0  0  0
   15.3794   -2.2443   -1.7949 C   0  0  0  0  0  0  0  0  0  0  0  0
   15.9522   -2.6550   -3.0208 C   0  0  0  0  0  0  0  0  0  0  0  0
   16.4340   -1.6937   -3.9273 C   0  0  0  0  0  0  0  0  0  0  0  0
   16.3364   -0.3224   -3.6308 C   0  0  0  0  0  0  0  0  0  0  0  0
   15.7943    0.1250   -2.4073 C   0  0  0  0  0  0  0  0  0  0  0  0
   15.6711    1.5693   -2.0915 C   0  0  0  0  0  0  0  0  0  0  0  0
   15.3832    2.0354   -0.7903 C   0  0  0  0  0  0  0  0  0  0  0  0
   15.3534    3.4188   -0.5357 C   0  0  0  0  0  0  0  0  0  0  0  0
   15.5968    4.3049   -1.5946 C   0  0  0  0  0  0  0  0  0  0  0  0
   15.8275    3.8920   -2.8511 N   0  0  0  0  0  0  0  0  0  0  0  0
   15.8598    2.5642   -3.0762 C   0  0  0  0  0  0  0  0  0  0  0  0
   15.3327   -0.8573   -1.5012 C   0  0  0  0  0  0  0  0  0  0  0  0
   13.2767   -3.0094   -0.6368 C   0  0  0  0  0  0  0  0  0  0  0  0
   12.3981   -3.0674   -1.5055 O   0  0  0  0  0  0  0  0  0  0  0  0
    0.0000    0.0000    0.0000 H   0  0  0  0  0  0  0  0  0  0  0  0
    0.0000    0.0000    0.0000 H   0  0  0  0  0  0  0  0  0  0  0  0
    0.0000    0.0000    0.0000 H   0  0  0  0  0  0  0  0  0  0  0  0
    0.0000    0.0000    0.0000 H   0  0  0  0  0  0  0  0  0  0  0  0
    0.0000    0.0000    0.0000 H   0  0  0  0  0  0  0  0  0  0  0  0
    0.0000    0.0000    0.0000 H   0  0  0  0  0  0  0  0  0  0  0  0
    0.0000    0.0000    0.0000 H   0  0  0  0  0  0  0  0  0  0  0  0
    0.0000    0.0000    0.0000 H   0  0  0  0  0  0  0  0  0  0  0  0
    0.0000    0.0000    0.0000 H   0  0  0  0  0  0  0  0  0  0  0  0
    0.0000    0.0000    0.0000 H   0  0  0  0  0  0  0  0  0  0  0  0
    0.0000    0.0000    0.0000 H   0  0  0  0  0  0  0  0  0  0  0  0
    0.0000    0.0000    0.0000 H   0  0  0  0  0  0  0  0  0  0  0  0
    0.0000    0.0000    0.0000 H   0  0  0  0  0  0  0  0  0  0  0  0
    0.0000    0.0000    0.0000 H   0  0  0  0  0  0  0  0  0  0  0  0
    6.9208   -1.5210   -0.3683 N   0  0  0  0  0  0  0  0  0  0  0  0
    6.9737   -0.1661   -1.4575 S   0  0  0  0  0  6  0  0  0  0  0  0
    5.5769    0.3301   -1.6048 O   0  0  0  0  0  0  0  0  0  0  0  0
    7.5342   -0.6625   -2.7724 O   0  0  0  0  0  0  0  0  0  0  0  0
    8.0324    1.0295   -0.7403 C   0  0  0  0  0  0  0  0  0  0  0  0
    7.5635    2.0098    0.1117 C   0  0  0  0  0  0  0  0  0  0  0  0
    8.4061    2.9480    0.6720 C   0  0  0  0  0  0  0  0  0  0  0  0
    9.7604    2.9553    0.4104 C   0  0  0  0  0  0  0  0  0  0  0  0
   10.6735    3.9733    1.0187 C   0  0  0  0  0  0  0  0  0  0  0  0
   10.2350    1.9791   -0.4395 C   0  0  0  0  0  0  0  0  0  0  0  0
    9.3894    1.0429   -0.9977 C   0  0  0  0  0  0  0  0  0  0  0  0
    6.6355   -2.3742   -0.9201 H   0  0  0  0  0  0  0  0  0  0  0  0
    6.4879    2.0107    0.3246 H   0  0  0  0  0  0  0  0  0  0  0  0
    8.0076    3.7147    1.3446 H   0  0  0  0  0  0  0  0  0  0  0  0
   10.9001    4.7958    0.2985 H   0  0  0  0  0  0  0  0  0  0  0  0
   11.6324    3.5229    1.3398 H   0  0  0  0  0  0  0  0  0  0  0  0
   10.1791    4.3495    1.9274 H   0  0  0  0  0  0  0  0  0  0  0  0
   11.2996    1.9783   -0.6503 H   0  0  0  0  0  0  0  0  0  0  0  0
    9.7604    0.2666   -1.6723 H   0  0  0  0  0  0  0  0  0  0  0  0
  1  2  1  0
  2  3  1  0
  2 19  1  0
  3  4  1  0
  3  5  2  0
  5  6  1  0
  6  7  1  0
  6 19  1  0
  7  8  2  0
  7 18  1  0
  8  9  1  0
  9 10  2  0
 10 11  1  0
 11 12  1  0
 11 18  2  0
 12 13  2  0
 12 17  1  0
 13 14  1  0
 14 15  2  0
 15 16  1  0
 16 17  2  0
 19 20  2  0
  1 21  1  0
  1 22  1  0
  1 23  1  0
  4 24  1  0
  4 25  1  0
  5 26  1  0
  8 27  1  0
  9 28  1  0
 10 29  1  0
 13 30  1  0
 14 31  1  0
 15 32  1  0
 17 33  1  0
 18 34  1  0
 35 36  1  0
 36 37  2  0
 36 38  2  0
 36 39  1  0
 39 40  2  0
 40 41  1  0
 41 42  2  0
 42 43  1  0
 42 44  1  0
 44 45  2  0
 45 39  1  0
 35 46  1  0
 40 47  1  0
 41 48  1  0
 43 49  1  0
 43 50  1  0
 43 51  1  0
 44 52  1  0
 45 53  1  0
  6 35  1  6
M  CHG  1   5   1
M  END
>  <attachment_point>  (276) 
26

>  <score>  (276) 
<NA>

$$$$
CAT-4j
     RDKit          3D

 52 55  0  0  1  0  0  0  0  0999 V2000
   11.7106   -2.3098    1.2658 C   0  0  0  0  0  0  0  0  0  0  0  0
   13.0313   -2.6523    0.7225 N   0  0  0  0  0  0  0  0  0  0  0  0
   14.2010   -2.6281    1.3773 C   0  0  0  0  0  0  0  0  0  0  0  0
   14.3777   -2.3568    2.6732 N   0  0  0  0  0  0  0  0  0  0  0  0
   15.2217   -2.9197    0.5738 N   0  0  0  0  0  0  0  0  0  0  0  0
   14.7965   -3.2519   -0.7875 C   0  0  1  0  0  0  0  0  0  0  0  0
   15.3794   -2.2443   -1.7949 C   0  0  0  0  0  0  0  0  0  0  0  0
   15.9522   -2.6550   -3.0208 C   0  0  0  0  0  0  0  0  0  0  0  0
   16.4340   -1.6937   -3.9273 C   0  0  0  0  0  0  0  0  0  0  0  0
   16.3364   -0.3224   -3.6308 C   0  0  0  0  0  0  0  0  0  0  0  0
   15.7943    0.1250   -2.4073 C   0  0  0  0  0  0  0  0  0  0  0  0
   15.6711    1.5693   -2.0915 C   0  0  0  0  0  0  0  0  0  0  0  0
   15.3832    2.0354   -0.7903 C   0  0  0  0  0  0  0  0  0  0  0  0
   15.3534    3.4188   -0.5357 C   0  0  0  0  0  0  0  0  0  0  0  0
   15.5968    4.3049   -1.5946 C   0  0  0  0  0  0  0  0  0  0  0  0
   15.8275    3.8920   -2.8511 N   0  0  0  0  0  0  0  0  0  0  0  0
   15.8598    2.5642   -3.0762 C   0  0  0  0  0  0  0  0  0  0  0  0
   15.3327   -0.8573   -1.5012 C   0  0  0  0  0  0  0  0  0  0  0  0
   13.2767   -3.0094   -0.6368 C   0  0  0  0  0  0  0  0  0  0  0  0
   12.3981   -3.0674   -1.5055 O   0  0  0  0  0  0  0  0  0  0  0  0
    0.0000    0.0000    0.0000 H   0  0  0  0  0  0  0  0  0  0  0  0
    0.0000    0.0000    0.0000 H   0  0  0  0  0  0  0  0  0  0  0  0
    0.0000    0.0000    0.0000 H   0  0  0  0  0  0  0  0  0  0  0  0
    0.0000    0.0000    0.0000 H   0  0  0  0  0  0  0  0  0  0  0  0
    0.0000    0.0000    0.0000 H   0  0  0  0  0  0  0  0  0  0  0  0
    0.0000    0.0000    0.0000 H   0  0  0  0  0  0  0  0  0  0  0  0
    0.0000    0.0000    0.0000 H   0  0  0  0  0  0  0  0  0  0  0  0
    0.0000    0.0000    0.0000 H   0  0  0  0  0  0  0  0  0  0  0  0
    0.0000    0.0000    0.0000 H   0  0  0  0  0  0  0  0  0  0  0  0
    0.0000    0.0000    0.0000 H   0  0  0  0  0  0  0  0  0  0  0  0
    0.0000    0.0000    0.0000 H   0  0  0  0  0  0  0  0  0  0  0  0
    0.0000    0.0000    0.0000 H   0  0  0  0  0  0  0  0  0  0  0  0
    0.0000    0.0000    0.0000 H   0  0  0  0  0  0  0  0  0  0  0  0
    0.0000    0.0000    0.0000 H   0  0  0  0  0  0  0  0  0  0  0  0
    7.1056   -1.5616   -0.3782 O   0  0  0  0  0  0  0  0  0  0  0  0
    6.2250   -2.3374    0.3379 C   0  0  0  0  0  0  0  0  0  0  0  0
    4.8024   -1.8055    0.2626 C   0  0  0  0  0  0  0  0  0  0  0  0
    4.7024   -0.4379    0.7989 C   0  0  0  0  0  0  0  0  0  0  0  0
    4.4353   -0.2130    2.1239 C   0  0  0  0  0  0  0  0  0  0  0  0
    4.3374    1.0751    2.6473 C   0  0  0  0  0  0  0  0  0  0  0  0
    4.5147    2.1522    1.8059 C   0  0  0  0  0  0  0  0  0  0  0  0
    4.7823    1.9150    0.4778 C   0  0  0  0  0  0  0  0  0  0  0  0
    4.8796    0.6290   -0.0420 C   0  0  0  0  0  0  0  0  0  0  0  0
    6.2866   -3.3890    0.0119 H   0  0  0  0  0  0  0  0  0  0  0  0
    6.5149   -2.2721    1.4195 H   0  0  0  0  0  0  0  0  0  0  0  0
    4.1138   -2.4861    0.7936 H   0  0  0  0  0  0  0  0  0  0  0  0
    4.5169   -1.8638   -0.8151 H   0  0  0  0  0  0  0  0  0  0  0  0
    4.2944   -1.0651    2.7922 H   0  0  0  0  0  0  0  0  0  0  0  0
    4.1263    1.2402    3.6935 H   0  0  0  0  0  0  0  0  0  0  0  0
    4.4518    3.1773    2.1477 H   0  0  0  0  0  0  0  0  0  0  0  0
    4.9313    2.7405   -0.2315 H   0  0  0  0  0  0  0  0  0  0  0  0
    5.0958    0.4907   -1.1131 H   0  0  0  0  0  0  0  0  0  0  0  0
  1  2  1  0
  2  3  1  0
  2 19  1  0
  3  4  1  0
  3  5  2  0
  5  6  1  0
  6  7  1  0
  6 19  1  0
  7  8  2  0
  7 18  1  0
  8  9  1  0
  9 10  2  0
 10 11  1  0
 11 12  1  0
 11 18  2  0
 12 13  2  0
 12 17  1  0
 13 14  1  0
 14 15  2  0
 15 16  1  0
 16 17  2  0
 19 20  2  0
  1 21  1  0
  1 22  1  0
  1 23  1  0
  4 24  1  0
  4 25  1  0
  5 26  1  0
  8 27  1  0
  9 28  1  0
 10 29  1  0
 13 30  1  0
 14 31  1  0
 15 32  1  0
 17 33  1  0
 18 34  1  0
 35 36  1  0
 36 37  1  0
 37 38  1  0
 38 39  2  0
 39 40  1  0
 40 41  2  0
 41 42  1  0
 42 43  2  0
 43 38  1  0
 36 44  1  0
 36 45  1  0
 37 46  1  0
 37 47  1  0
 39 48  1  0
 40 49  1  0
 41 50  1  0
 42 51  1  0
 43 52  1  0
  6 35  1  6
M  CHG  1   5   1
M  END
>  <attachment_point>  (277) 
26

>  <score>  (277) 
<NA>

$$$$
CAT-4j
     RDKit          3D

 52 55  0  0  1  0  0  0  0  0999 V2000
   11.7106   -2.3098    1.2658 C   0  0  0  0  0  0  0  0  0  0  0  0
   13.0313   -2.6523    0.7225 N   0  0  0  0  0  0  0  0  0  0  0  0
   14.2010   -2.6281    1.3773 C   0  0  0  0  0  0  0  0  0  0  0  0
   14.3777   -2.3568    2.6732 N   0  0  0  0  0  0  0  0  0  0  0  0
   15.2217   -2.9197    0.5738 N   0  0  0  0  0  0  0  0  0  0  0  0
   14.7965   -3.2519   -0.7875 C   0  0  1  0  0  0  0  0  0  0  0  0
   15.3794   -2.2443   -1.7949 C   0  0  0  0  0  0  0  0  0  0  0  0
   15.9522   -2.6550   -3.0208 C   0  0  0  0  0  0  0  0  0  0  0  0
   16.4340   -1.6937   -3.9273 C   0  0  0  0  0  0  0  0  0  0  0  0
   16.3364   -0.3224   -3.6308 C   0  0  0  0  0  0  0  0  0  0  0  0
   15.7943    0.1250   -2.4073 C   0  0  0  0  0  0  0  0  0  0  0  0
   15.6711    1.5693   -2.0915 C   0  0  0  0  0  0  0  0  0  0  0  0
   15.3832    2.0354   -0.7903 C   0  0  0  0  0  0  0  0  0  0  0  0
   15.3534    3.4188   -0.5357 C   0  0  0  0  0  0  0  0  0  0  0  0
   15.5968    4.3049   -1.5946 C   0  0  0  0  0  0  0  0  0  0  0  0
   15.8275    3.8920   -2.8511 N   0  0  0  0  0  0  0  0  0  0  0  0
   15.8598    2.5642   -3.0762 C   0  0  0  0  0  0  0  0  0  0  0  0
   15.3327   -0.8573   -1.5012 C   0  0  0  0  0  0  0  0  0  0  0  0
   13.2767   -3.0094   -0.6368 C   0  0  0  0  0  0  0  0  0  0  0  0
   12.3981   -3.0674   -1.5055 O   0  0  0  0  0  0  0  0  0  0  0  0
    0.0000    0.0000    0.0000 H   0  0  0  0  0  0  0  0  0  0  0  0
    0.0000    0.0000    0.0000 H   0  0  0  0  0  0  0  0  0  0  0  0
    0.0000    0.0000    0.0000 H   0  0  0  0  0  0  0  0  0  0  0  0
    0.0000    0.0000    0.0000 H   0  0  0  0  0  0  0  0  0  0  0  0
    0.0000    0.0000    0.0000 H   0  0  0  0  0  0  0  0  0  0  0  0
    0.0000    0.0000    0.0000 H   0  0  0  0  0  0  0  0  0  0  0  0
    0.0000    0.0000    0.0000 H   0  0  0  0  0  0  0  0  0  0  0  0
    0.0000    0.0000    0.0000 H   0  0  0  0  0  0  0  0  0  0  0  0
    0.0000    0.0000    0.0000 H   0  0  0  0  0  0  0  0  0  0  0  0
    0.0000    0.0000    0.0000 H   0  0  0  0  0  0  0  0  0  0  0  0
    0.0000    0.0000    0.0000 H   0  0  0  0  0  0  0  0  0  0  0  0
    0.0000    0.0000    0.0000 H   0  0  0  0  0  0  0  0  0  0  0  0
    0.0000    0.0000    0.0000 H   0  0  0  0  0  0  0  0  0  0  0  0
    0.0000    0.0000    0.0000 H   0  0  0  0  0  0  0  0  0  0  0  0
    6.9691   -1.5316   -0.3709 C   0  0  0  0  0  0  0  0  0  0  0  0
    6.5851   -0.4007    0.0282 O   0  0  0  0  0  0  0  0  0  0  0  0
    6.0283   -2.5522   -0.7651 N   0  0  0  0  0  0  0  0  0  0  0  0
    4.6262   -2.2245   -0.6833 C   0  0  0  0  0  0  0  0  0  0  0  0
    3.7996   -3.2573    0.0363 C   0  0  0  0  0  0  0  0  0  0  0  0
    3.7300   -4.3803   -0.9511 C   0  0  0  0  0  0  0  0  0  0  0  0
    4.1477   -3.8318   -2.2946 C   0  0  0  0  0  0  0  0  0  0  0  0
    4.0686   -2.3450   -2.0824 C   0  0  0  0  0  0  0  0  0  0  0  0
    6.4150   -3.4634   -1.0818 H   0  0  0  0  0  0  0  0  0  0  0  0
    4.4605   -1.2003   -0.2878 H   0  0  0  0  0  0  0  0  0  0  0  0
    2.8015   -2.7978    0.2176 H   0  0  0  0  0  0  0  0  0  0  0  0
    4.2754   -3.5734    0.9998 H   0  0  0  0  0  0  0  0  0  0  0  0
    4.3646   -5.2469   -0.6680 H   0  0  0  0  0  0  0  0  0  0  0  0
    2.6627   -4.7197   -1.0408 H   0  0  0  0  0  0  0  0  0  0  0  0
    3.4459   -4.1755   -3.0910 H   0  0  0  0  0  0  0  0  0  0  0  0
    5.1858   -4.2015   -2.4917 H   0  0  0  0  0  0  0  0  0  0  0  0
    3.0019   -2.0678   -2.0996 H   0  0  0  0  0  0  0  0  0  0  0  0
    4.6772   -1.7672   -2.8003 H   0  0  0  0  0  0  0  0  0  0  0  0
  1  2  1  0
  2  3  1  0
  2 19  1  0
  3  4  1  0
  3  5  2  0
  5  6  1  0
  6  7  1  0
  6 19  1  0
  7  8  2  0
  7 18  1  0
  8  9  1  0
  9 10  2  0
 10 11  1  0
 11 12  1  0
 11 18  2  0
 12 13  2  0
 12 17  1  0
 13 14  1  0
 14 15  2  0
 15 16  1  0
 16 17  2  0
 19 20  2  0
  1 21  1  0
  1 22  1  0
  1 23  1  0
  4 24  1  0
  4 25  1  0
  5 26  1  0
  8 27  1  0
  9 28  1  0
 10 29  1  0
 13 30  1  0
 14 31  1  0
 15 32  1  0
 17 33  1  0
 18 34  1  0
 35 36  2  0
 35 37  1  0
 37 38  1  0
 38 39  1  0
 39 40  1  0
 40 41  1  0
 41 42  1  0
 42 38  1  0
 37 43  1  0
 38 44  1  0
 39 45  1  0
 39 46  1  0
 40 47  1  0
 40 48  1  0
 41 49  1  0
 41 50  1  0
 42 51  1  0
 42 52  1  0
  6 35  1  6
M  CHG  1   5   1
M  END
>  <attachment_point>  (278) 
26

>  <score>  (278) 
<NA>

$$$$
CAT-4j
     RDKit          3D

 48 52  0  0  1  0  0  0  0  0999 V2000
   11.7106   -2.3098    1.2658 C   0  0  0  0  0  0  0  0  0  0  0  0
   13.0313   -2.6523    0.7225 N   0  0  0  0  0  0  0  0  0  0  0  0
   14.2010   -2.6281    1.3773 C   0  0  0  0  0  0  0  0  0  0  0  0
   14.3777   -2.3568    2.6732 N   0  0  0  0  0  0  0  0  0  0  0  0
   15.2217   -2.9197    0.5738 N   0  0  0  0  0  0  0  0  0  0  0  0
   14.7965   -3.2519   -0.7875 C   0  0  1  0  0  0  0  0  0  0  0  0
   15.3794   -2.2443   -1.7949 C   0  0  0  0  0  0  0  0  0  0  0  0
   15.9522   -2.6550   -3.0208 C   0  0  0  0  0  0  0  0  0  0  0  0
   16.4340   -1.6937   -3.9273 C   0  0  0  0  0  0  0  0  0  0  0  0
   16.3364   -0.3224   -3.6308 C   0  0  0  0  0  0  0  0  0  0  0  0
   15.7943    0.1250   -2.4073 C   0  0  0  0  0  0  0  0  0  0  0  0
   15.6711    1.5693   -2.0915 C   0  0  0  0  0  0  0  0  0  0  0  0
   15.3832    2.0354   -0.7903 C   0  0  0  0  0  0  0  0  0  0  0  0
   15.3534    3.4188   -0.5357 C   0  0  0  0  0  0  0  0  0  0  0  0
   15.5968    4.3049   -1.5946 C   0  0  0  0  0  0  0  0  0  0  0  0
   15.8275    3.8920   -2.8511 N   0  0  0  0  0  0  0  0  0  0  0  0
   15.8598    2.5642   -3.0762 C   0  0  0  0  0  0  0  0  0  0  0  0
   15.3327   -0.8573   -1.5012 C   0  0  0  0  0  0  0  0  0  0  0  0
   13.2767   -3.0094   -0.6368 C   0  0  0  0  0  0  0  0  0  0  0  0
   12.3981   -3.0674   -1.5055 O   0  0  0  0  0  0  0  0  0  0  0  0
    0.0000    0.0000    0.0000 H   0  0  0  0  0  0  0  0  0  0  0  0
    0.0000    0.0000    0.0000 H   0  0  0  0  0  0  0  0  0  0  0  0
    0.0000    0.0000    0.0000 H   0  0  0  0  0  0  0  0  0  0  0  0
    0.0000    0.0000    0.0000 H   0  0  0  0  0  0  0  0  0  0  0  0
    0.0000    0.0000    0.0000 H   0  0  0  0  0  0  0  0  0  0  0  0
    0.0000    0.0000    0.0000 H   0  0  0  0  0  0  0  0  0  0  0  0
    0.0000    0.0000    0.0000 H   0  0  0  0  0  0  0  0  0  0  0  0
    0.0000    0.0000    0.0000 H   0  0  0  0  0  0  0  0  0  0  0  0
    0.0000    0.0000    0.0000 H   0  0  0  0  0  0  0  0  0  0  0  0
    0.0000    0.0000    0.0000 H   0  0  0  0  0  0  0  0  0  0  0  0
    0.0000    0.0000    0.0000 H   0  0  0  0  0  0  0  0  0  0  0  0
    0.0000    0.0000    0.0000 H   0  0  0  0  0  0  0  0  0  0  0  0
    0.0000    0.0000    0.0000 H   0  0  0  0  0  0  0  0  0  0  0  0
    0.0000    0.0000    0.0000 H   0  0  0  0  0  0  0  0  0  0  0  0
    6.9489   -1.5272   -0.3698 C   0  0  0  0  0  0  0  0  0  0  0  0
    6.1202   -2.6069   -0.3134 C   0  0  0  0  0  0  0  0  0  0  0  0
    4.7575   -2.4105   -0.2399 C   0  0  0  0  0  0  0  0  0  0  0  0
    4.2556   -1.1165   -0.2247 C   0  0  0  0  0  0  0  0  0  0  0  0
    2.9837   -0.6222   -0.1592 N   0  0  0  0  0  0  0  0  0  0  0  0
    3.0772    0.7041   -0.1773 N   0  0  0  0  0  0  0  0  0  0  0  0
    4.3791    1.0785   -0.2529 C   0  0  0  0  0  0  0  0  0  0  0  0
    5.1388   -0.0624   -0.2839 C   0  0  0  0  0  0  0  0  0  0  0  0
    6.5240   -0.2315   -0.3589 C   0  0  0  0  0  0  0  0  0  0  0  0
    6.5077   -3.6058   -0.3252 H   0  0  0  0  0  0  0  0  0  0  0  0
    4.0802   -3.2340   -0.1945 H   0  0  0  0  0  0  0  0  0  0  0  0
    2.1141   -1.2077   -0.1054 H   0  0  0  0  0  0  0  0  0  0  0  0
    4.7934    2.0767   -0.2856 H   0  0  0  0  0  0  0  0  0  0  0  0
    7.2081    0.6081   -0.4050 H   0  0  0  0  0  0  0  0  0  0  0  0
  1  2  1  0
  2  3  1  0
  2 19  1  0
  3  4  1  0
  3  5  2  0
  5  6  1  0
  6  7  1  1
  6 19  1  0
  7  8  2  0
  7 18  1  0
  8  9  1  0
  9 10  2  0
 10 11  1  0
 11 12  1  0
 11 18  2  0
 12 13  2  0
 12 17  1  0
 13 14  1  0
 14 15  2  0
 15 16  1  0
 16 17  2  0
 19 20  2  0
  1 21  1  0
  1 22  1  0
  1 23  1  0
  4 24  1  0
  4 25  1  0
  5 26  1  0
  8 27  1  0
  9 28  1  0
 10 29  1  0
 13 30  1  0
 14 31  1  0
 15 32  1  0
 17 33  1  0
 18 34  1  0
 35 36  2  0
 36 37  1  0
 37 38  2  0
 38 39  1  0
 39 40  1  0
 40 41  2  0
 41 42  1  0
 42 43  2  0
 43 35  1  0
 42 38  1  0
 36 44  1  0
 37 45  1  0
 39 46  1  0
 41 47  1  0
 43 48  1  0
  6 35  1  0
M  CHG  1   5   1
M  END
>  <attachment_point>  (279) 
26

>  <score>  (279) 
<NA>

$$$$
CAT-4j
     RDKit          3D

 49 52  0  0  1  0  0  0  0  0999 V2000
   11.7106   -2.3098    1.2658 C   0  0  0  0  0  0  0  0  0  0  0  0
   13.0313   -2.6523    0.7225 N   0  0  0  0  0  0  0  0  0  0  0  0
   14.2010   -2.6281    1.3773 C   0  0  0  0  0  0  0  0  0  0  0  0
   14.3777   -2.3568    2.6732 N   0  0  0  0  0  0  0  0  0  0  0  0
   15.2217   -2.9197    0.5738 N   0  0  0  0  0  0  0  0  0  0  0  0
   14.7965   -3.2519   -0.7875 C   0  0  1  0  0  0  0  0  0  0  0  0
   15.3794   -2.2443   -1.7949 C   0  0  0  0  0  0  0  0  0  0  0  0
   15.9522   -2.6550   -3.0208 C   0  0  0  0  0  0  0  0  0  0  0  0
   16.4340   -1.6937   -3.9273 C   0  0  0  0  0  0  0  0  0  0  0  0
   16.3364   -0.3224   -3.6308 C   0  0  0  0  0  0  0  0  0  0  0  0
   15.7943    0.1250   -2.4073 C   0  0  0  0  0  0  0  0  0  0  0  0
   15.6711    1.5693   -2.0915 C   0  0  0  0  0  0  0  0  0  0  0  0
   15.3832    2.0354   -0.7903 C   0  0  0  0  0  0  0  0  0  0  0  0
   15.3534    3.4188   -0.5357 C   0  0  0  0  0  0  0  0  0  0  0  0
   15.5968    4.3049   -1.5946 C   0  0  0  0  0  0  0  0  0  0  0  0
   15.8275    3.8920   -2.8511 N   0  0  0  0  0  0  0  0  0  0  0  0
   15.8598    2.5642   -3.0762 C   0  0  0  0  0  0  0  0  0  0  0  0
   15.3327   -0.8573   -1.5012 C   0  0  0  0  0  0  0  0  0  0  0  0
   13.2767   -3.0094   -0.6368 C   0  0  0  0  0  0  0  0  0  0  0  0
   12.3981   -3.0674   -1.5055 O   0  0  0  0  0  0  0  0  0  0  0  0
    0.0000    0.0000    0.0000 H   0  0  0  0  0  0  0  0  0  0  0  0
    0.0000    0.0000    0.0000 H   0  0  0  0  0  0  0  0  0  0  0  0
    0.0000    0.0000    0.0000 H   0  0  0  0  0  0  0  0  0  0  0  0
    0.0000    0.0000    0.0000 H   0  0  0  0  0  0  0  0  0  0  0  0
    0.0000    0.0000    0.0000 H   0  0  0  0  0  0  0  0  0  0  0  0
    0.0000    0.0000    0.0000 H   0  0  0  0  0  0  0  0  0  0  0  0
    0.0000    0.0000    0.0000 H   0  0  0  0  0  0  0  0  0  0  0  0
    0.0000    0.0000    0.0000 H   0  0  0  0  0  0  0  0  0  0  0  0
    0.0000    0.0000    0.0000 H   0  0  0  0  0  0  0  0  0  0  0  0
    0.0000    0.0000    0.0000 H   0  0  0  0  0  0  0  0  0  0  0  0
    0.0000    0.0000    0.0000 H   0  0  0  0  0  0  0  0  0  0  0  0
    0.0000    0.0000    0.0000 H   0  0  0  0  0  0  0  0  0  0  0  0
    0.0000    0.0000    0.0000 H   0  0  0  0  0  0  0  0  0  0  0  0
    0.0000    0.0000    0.0000 H   0  0  0  0  0  0  0  0  0  0  0  0
    7.0203   -1.5429   -0.3736 O   0  0  0  0  0  0  0  0  0  0  0  0
    6.2976   -2.6598   -0.6989 C   0  0  0  0  0  0  0  0  0  0  0  0
    5.3643   -3.0275    0.4500 C   0  0  0  0  0  0  0  0  0  0  0  0
    3.9875   -3.1948   -0.1418 C   0  0  0  0  0  0  0  0  0  0  0  0
    4.3012   -3.4948   -1.5981 C   0  0  0  0  0  0  0  0  0  0  0  0
    5.3393   -2.3916   -1.8567 C   0  0  0  0  0  0  0  0  0  0  0  0
    6.9865   -3.4829   -0.9274 H   0  0  0  0  0  0  0  0  0  0  0  0
    5.7066   -4.0194    0.8600 H   0  0  0  0  0  0  0  0  0  0  0  0
    5.4035   -2.2965    1.2665 H   0  0  0  0  0  0  0  0  0  0  0  0
    3.4370   -2.2176   -0.1503 H   0  0  0  0  0  0  0  0  0  0  0  0
    3.4037   -4.0000    0.3242 H   0  0  0  0  0  0  0  0  0  0  0  0
    4.8163   -4.4773   -1.7135 H   0  0  0  0  0  0  0  0  0  0  0  0
    3.4313   -3.3763   -2.2516 H   0  0  0  0  0  0  0  0  0  0  0  0
    5.8185   -2.5077   -2.8344 H   0  0  0  0  0  0  0  0  0  0  0  0
    4.8259   -1.4449   -1.6911 H   0  0  0  0  0  0  0  0  0  0  0  0
  1  2  1  0
  2  3  1  0
  2 19  1  0
  3  4  1  0
  3  5  2  0
  5  6  1  0
  6  7  1  0
  6 19  1  0
  7  8  2  0
  7 18  1  0
  8  9  1  0
  9 10  2  0
 10 11  1  0
 11 12  1  0
 11 18  2  0
 12 13  2  0
 12 17  1  0
 13 14  1  0
 14 15  2  0
 15 16  1  0
 16 17  2  0
 19 20  2  0
  1 21  1  0
  1 22  1  0
  1 23  1  0
  4 24  1  0
  4 25  1  0
  5 26  1  0
  8 27  1  0
  9 28  1  0
 10 29  1  0
 13 30  1  0
 14 31  1  0
 15 32  1  0
 17 33  1  0
 18 34  1  0
 35 36  1  0
 36 37  1  0
 37 38  1  0
 38 39  1  0
 39 40  1  0
 40 36  1  0
 36 41  1  0
 37 42  1  0
 37 43  1  0
 38 44  1  0
 38 45  1  0
 39 46  1  0
 39 47  1  0
 40 48  1  0
 40 49  1  0
  6 35  1  6
M  CHG  1   5   1
M  END
>  <attachment_point>  (280) 
26

>  <score>  (280) 
<NA>

$$$$
CAT-4j
     RDKit          3D

 49 52  0  0  1  0  0  0  0  0999 V2000
   11.7106   -2.3098    1.2658 C   0  0  0  0  0  0  0  0  0  0  0  0
   13.0313   -2.6523    0.7225 N   0  0  0  0  0  0  0  0  0  0  0  0
   14.2010   -2.6281    1.3773 C   0  0  0  0  0  0  0  0  0  0  0  0
   14.3777   -2.3568    2.6732 N   0  0  0  0  0  0  0  0  0  0  0  0
   15.2217   -2.9197    0.5738 N   0  0  0  0  0  0  0  0  0  0  0  0
   14.7965   -3.2519   -0.7875 C   0  0  1  0  0  0  0  0  0  0  0  0
   15.3794   -2.2443   -1.7949 C   0  0  0  0  0  0  0  0  0  0  0  0
   15.9522   -2.6550   -3.0208 C   0  0  0  0  0  0  0  0  0  0  0  0
   16.4340   -1.6937   -3.9273 C   0  0  0  0  0  0  0  0  0  0  0  0
   16.3364   -0.3224   -3.6308 C   0  0  0  0  0  0  0  0  0  0  0  0
   15.7943    0.1250   -2.4073 C   0  0  0  0  0  0  0  0  0  0  0  0
   15.6711    1.5693   -2.0915 C   0  0  0  0  0  0  0  0  0  0  0  0
   15.3832    2.0354   -0.7903 C   0  0  0  0  0  0  0  0  0  0  0  0
   15.3534    3.4188   -0.5357 C   0  0  0  0  0  0  0  0  0  0  0  0
   15.5968    4.3049   -1.5946 C   0  0  0  0  0  0  0  0  0  0  0  0
   15.8275    3.8920   -2.8511 N   0  0  0  0  0  0  0  0  0  0  0  0
   15.8598    2.5642   -3.0762 C   0  0  0  0  0  0  0  0  0  0  0  0
   15.3327   -0.8573   -1.5012 C   0  0  0  0  0  0  0  0  0  0  0  0
   13.2767   -3.0094   -0.6368 C   0  0  0  0  0  0  0  0  0  0  0  0
   12.3981   -3.0674   -1.5055 O   0  0  0  0  0  0  0  0  0  0  0  0
    0.0000    0.0000    0.0000 H   0  0  0  0  0  0  0  0  0  0  0  0
    0.0000    0.0000    0.0000 H   0  0  0  0  0  0  0  0  0  0  0  0
    0.0000    0.0000    0.0000 H   0  0  0  0  0  0  0  0  0  0  0  0
    0.0000    0.0000    0.0000 H   0  0  0  0  0  0  0  0  0  0  0  0
    0.0000    0.0000    0.0000 H   0  0  0  0  0  0  0  0  0  0  0  0
    0.0000    0.0000    0.0000 H   0  0  0  0  0  0  0  0  0  0  0  0
    0.0000    0.0000    0.0000 H   0  0  0  0  0  0  0  0  0  0  0  0
    0.0000    0.0000    0.0000 H   0  0  0  0  0  0  0  0  0  0  0  0
    0.0000    0.0000    0.0000 H   0  0  0  0  0  0  0  0  0  0  0  0
    0.0000    0.0000    0.0000 H   0  0  0  0  0  0  0  0  0  0  0  0
    0.0000    0.0000    0.0000 H   0  0  0  0  0  0  0  0  0  0  0  0
    0.0000    0.0000    0.0000 H   0  0  0  0  0  0  0  0  0  0  0  0
    0.0000    0.0000    0.0000 H   0  0  0  0  0  0  0  0  0  0  0  0
    0.0000    0.0000    0.0000 H   0  0  0  0  0  0  0  0  0  0  0  0
    6.9982   -1.5380   -0.3725 C   0  0  0  0  0  0  0  0  0  0  0  0
    6.5730   -0.2276   -0.4593 C   0  0  0  0  0  0  0  0  0  0  0  0
    5.2293    0.0904   -0.3897 C   0  0  0  0  0  0  0  0  0  0  0  0
    4.3400   -0.9489   -0.2312 C   0  0  0  0  0  0  0  0  0  0  0  0
    4.7513   -2.2585   -0.1435 C   0  0  0  0  0  0  0  0  0  0  0  0
    3.7192   -3.3064    0.0261 C   0  0  0  0  0  0  0  0  0  0  0  0
    3.5299   -3.4696    1.4074 O   0  0  0  0  0  0  0  0  0  0  0  0
    6.0906   -2.5674   -0.2135 C   0  0  0  0  0  0  0  0  0  0  0  0
    7.2592    0.5974   -0.5835 H   0  0  0  0  0  0  0  0  0  0  0  0
    4.8686    1.1013   -0.4542 H   0  0  0  0  0  0  0  0  0  0  0  0
    3.2759   -0.7257   -0.1736 H   0  0  0  0  0  0  0  0  0  0  0  0
    2.7658   -2.9196   -0.3799 H   0  0  0  0  0  0  0  0  0  0  0  0
    4.0163   -4.2690   -0.4522 H   0  0  0  0  0  0  0  0  0  0  0  0
    2.5518   -3.5439    1.6157 H   0  0  0  0  0  0  0  0  0  0  0  0
    6.4446   -3.6079   -0.1459 H   0  0  0  0  0  0  0  0  0  0  0  0
  1  2  1  0
  2  3  1  0
  2 19  1  0
  3  4  1  0
  3  5  2  0
  5  6  1  0
  6  7  1  1
  6 19  1  0
  7  8  2  0
  7 18  1  0
  8  9  1  0
  9 10  2  0
 10 11  1  0
 11 12  1  0
 11 18  2  0
 12 13  2  0
 12 17  1  0
 13 14  1  0
 14 15  2  0
 15 16  1  0
 16 17  2  0
 19 20  2  0
  1 21  1  0
  1 22  1  0
  1 23  1  0
  4 24  1  0
  4 25  1  0
  5 26  1  0
  8 27  1  0
  9 28  1  0
 10 29  1  0
 13 30  1  0
 14 31  1  0
 15 32  1  0
 17 33  1  0
 18 34  1  0
 35 36  2  0
 36 37  1  0
 37 38  2  0
 38 39  1  0
 39 40  1  0
 40 41  1  0
 39 42  2  0
 42 35  1  0
 36 43  1  0
 37 44  1  0
 38 45  1  0
 40 46  1  0
 40 47  1  0
 41 48  1  0
 42 49  1  0
  6 35  1  0
M  CHG  1   5   1
M  END
>  <attachment_point>  (281) 
26

>  <score>  (281) 
<NA>

$$$$
CAT-4j
     RDKit          3D

 49 52  0  0  1  0  0  0  0  0999 V2000
   11.7106   -2.3098    1.2658 C   0  0  0  0  0  0  0  0  0  0  0  0
   13.0313   -2.6523    0.7225 N   0  0  0  0  0  0  0  0  0  0  0  0
   14.2010   -2.6281    1.3773 C   0  0  0  0  0  0  0  0  0  0  0  0
   14.3777   -2.3568    2.6732 N   0  0  0  0  0  0  0  0  0  0  0  0
   15.2217   -2.9197    0.5738 N   0  0  0  0  0  0  0  0  0  0  0  0
   14.7965   -3.2519   -0.7875 C   0  0  1  0  0  0  0  0  0  0  0  0
   15.3794   -2.2443   -1.7949 C   0  0  0  0  0  0  0  0  0  0  0  0
   15.9522   -2.6550   -3.0208 C   0  0  0  0  0  0  0  0  0  0  0  0
   16.4340   -1.6937   -3.9273 C   0  0  0  0  0  0  0  0  0  0  0  0
   16.3364   -0.3224   -3.6308 C   0  0  0  0  0  0  0  0  0  0  0  0
   15.7943    0.1250   -2.4073 C   0  0  0  0  0  0  0  0  0  0  0  0
   15.6711    1.5693   -2.0915 C   0  0  0  0  0  0  0  0  0  0  0  0
   15.3832    2.0354   -0.7903 C   0  0  0  0  0  0  0  0  0  0  0  0
   15.3534    3.4188   -0.5357 C   0  0  0  0  0  0  0  0  0  0  0  0
   15.5968    4.3049   -1.5946 C   0  0  0  0  0  0  0  0  0  0  0  0
   15.8275    3.8920   -2.8511 N   0  0  0  0  0  0  0  0  0  0  0  0
   15.8598    2.5642   -3.0762 C   0  0  0  0  0  0  0  0  0  0  0  0
   15.3327   -0.8573   -1.5012 C   0  0  0  0  0  0  0  0  0  0  0  0
   13.2767   -3.0094   -0.6368 C   0  0  0  0  0  0  0  0  0  0  0  0
   12.3981   -3.0674   -1.5055 O   0  0  0  0  0  0  0  0  0  0  0  0
    0.0000    0.0000    0.0000 H   0  0  0  0  0  0  0  0  0  0  0  0
    0.0000    0.0000    0.0000 H   0  0  0  0  0  0  0  0  0  0  0  0
    0.0000    0.0000    0.0000 H   0  0  0  0  0  0  0  0  0  0  0  0
    0.0000    0.0000    0.0000 H   0  0  0  0  0  0  0  0  0  0  0  0
    0.0000    0.0000    0.0000 H   0  0  0  0  0  0  0  0  0  0  0  0
    0.0000    0.0000    0.0000 H   0  0  0  0  0  0  0  0  0  0  0  0
    0.0000    0.0000    0.0000 H   0  0  0  0  0  0  0  0  0  0  0  0
    0.0000    0.0000    0.0000 H   0  0  0  0  0  0  0  0  0  0  0  0
    0.0000    0.0000    0.0000 H   0  0  0  0  0  0  0  0  0  0  0  0
    0.0000    0.0000    0.0000 H   0  0  0  0  0  0  0  0  0  0  0  0
    0.0000    0.0000    0.0000 H   0  0  0  0  0  0  0  0  0  0  0  0
    0.0000    0.0000    0.0000 H   0  0  0  0  0  0  0  0  0  0  0  0
    0.0000    0.0000    0.0000 H   0  0  0  0  0  0  0  0  0  0  0  0
    0.0000    0.0000    0.0000 H   0  0  0  0  0  0  0  0  0  0  0  0
    6.9942   -1.5371   -0.3722 C   0  0  0  0  0  0  0  0  0  0  0  0
    6.7255   -0.7390    0.7742 O   0  0  0  0  0  0  0  0  0  0  0  0
    7.0142   -1.2140    2.0475 C   0  0  0  0  0  0  0  0  0  0  0  0
    6.7198   -0.3693    3.1079 C   0  0  0  0  0  0  0  0  0  0  0  0
    6.9886   -0.7953    4.4001 C   0  0  0  0  0  0  0  0  0  0  0  0
    7.5407   -2.0473    4.5828 C   0  0  0  0  0  0  0  0  0  0  0  0
    7.8284   -2.8746    3.5351 C   0  0  0  0  0  0  0  0  0  0  0  0
    7.5642   -2.4587    2.2473 C   0  0  0  0  0  0  0  0  0  0  0  0
    6.7516   -0.9284   -1.2770 H   0  0  0  0  0  0  0  0  0  0  0  0
    6.3189   -2.4186   -0.3649 H   0  0  0  0  0  0  0  0  0  0  0  0
    6.2896    0.6015    2.9335 H   0  0  0  0  0  0  0  0  0  0  0  0
    6.7603   -0.1403    5.2227 H   0  0  0  0  0  0  0  0  0  0  0  0
    7.7533   -2.3848    5.6023 H   0  0  0  0  0  0  0  0  0  0  0  0
    8.2674   -3.8677    3.6982 H   0  0  0  0  0  0  0  0  0  0  0  0
    7.7810   -3.0925    1.3902 H   0  0  0  0  0  0  0  0  0  0  0  0
  1  2  1  0
  2  3  1  0
  2 19  1  0
  3  4  1  0
  3  5  2  0
  5  6  1  0
  6  7  1  0
  6 19  1  0
  7  8  2  0
  7 18  1  0
  8  9  1  0
  9 10  2  0
 10 11  1  0
 11 12  1  0
 11 18  2  0
 12 13  2  0
 12 17  1  0
 13 14  1  0
 14 15  2  0
 15 16  1  0
 16 17  2  0
 19 20  2  0
  1 21  1  0
  1 22  1  0
  1 23  1  0
  4 24  1  0
  4 25  1  0
  5 26  1  0
  8 27  1  0
  9 28  1  0
 10 29  1  0
 13 30  1  0
 14 31  1  0
 15 32  1  0
 17 33  1  0
 18 34  1  0
 35 36  1  0
 36 37  1  0
 37 38  2  0
 38 39  1  0
 39 40  2  0
 40 41  1  0
 41 42  2  0
 42 37  1  0
 35 43  1  0
 35 44  1  0
 38 45  1  0
 39 46  1  0
 40 47  1  0
 41 48  1  0
 42 49  1  0
  6 35  1  6
M  CHG  1   5   1
M  END
>  <attachment_point>  (282) 
26

>  <score>  (282) 
<NA>

$$$$
CAT-4j
     RDKit          3D

 50 52  0  0  1  0  0  0  0  0999 V2000
   11.7106   -2.3098    1.2658 C   0  0  0  0  0  0  0  0  0  0  0  0
   13.0313   -2.6523    0.7225 N   0  0  0  0  0  0  0  0  0  0  0  0
   14.2010   -2.6281    1.3773 C   0  0  0  0  0  0  0  0  0  0  0  0
   14.3777   -2.3568    2.6732 N   0  0  0  0  0  0  0  0  0  0  0  0
   15.2217   -2.9197    0.5738 N   0  0  0  0  0  0  0  0  0  0  0  0
   14.7965   -3.2519   -0.7875 C   0  0  1  0  0  0  0  0  0  0  0  0
   15.3794   -2.2443   -1.7949 C   0  0  0  0  0  0  0  0  0  0  0  0
   15.9522   -2.6550   -3.0208 C   0  0  0  0  0  0  0  0  0  0  0  0
   16.4340   -1.6937   -3.9273 C   0  0  0  0  0  0  0  0  0  0  0  0
   16.3364   -0.3224   -3.6308 C   0  0  0  0  0  0  0  0  0  0  0  0
   15.7943    0.1250   -2.4073 C   0  0  0  0  0  0  0  0  0  0  0  0
   15.6711    1.5693   -2.0915 C   0  0  0  0  0  0  0  0  0  0  0  0
   15.3832    2.0354   -0.7903 C   0  0  0  0  0  0  0  0  0  0  0  0
   15.3534    3.4188   -0.5357 C   0  0  0  0  0  0  0  0  0  0  0  0
   15.5968    4.3049   -1.5946 C   0  0  0  0  0  0  0  0  0  0  0  0
   15.8275    3.8920   -2.8511 N   0  0  0  0  0  0  0  0  0  0  0  0
   15.8598    2.5642   -3.0762 C   0  0  0  0  0  0  0  0  0  0  0  0
   15.3327   -0.8573   -1.5012 C   0  0  0  0  0  0  0  0  0  0  0  0
   13.2767   -3.0094   -0.6368 C   0  0  0  0  0  0  0  0  0  0  0  0
   12.3981   -3.0674   -1.5055 O   0  0  0  0  0  0  0  0  0  0  0  0
    0.0000    0.0000    0.0000 H   0  0  0  0  0  0  0  0  0  0  0  0
    0.0000    0.0000    0.0000 H   0  0  0  0  0  0  0  0  0  0  0  0
    0.0000    0.0000    0.0000 H   0  0  0  0  0  0  0  0  0  0  0  0
    0.0000    0.0000    0.0000 H   0  0  0  0  0  0  0  0  0  0  0  0
    0.0000    0.0000    0.0000 H   0  0  0  0  0  0  0  0  0  0  0  0
    0.0000    0.0000    0.0000 H   0  0  0  0  0  0  0  0  0  0  0  0
    0.0000    0.0000    0.0000 H   0  0  0  0  0  0  0  0  0  0  0  0
    0.0000    0.0000    0.0000 H   0  0  0  0  0  0  0  0  0  0  0  0
    0.0000    0.0000    0.0000 H   0  0  0  0  0  0  0  0  0  0  0  0
    0.0000    0.0000    0.0000 H   0  0  0  0  0  0  0  0  0  0  0  0
    0.0000    0.0000    0.0000 H   0  0  0  0  0  0  0  0  0  0  0  0
    0.0000    0.0000    0.0000 H   0  0  0  0  0  0  0  0  0  0  0  0
    0.0000    0.0000    0.0000 H   0  0  0  0  0  0  0  0  0  0  0  0
    0.0000    0.0000    0.0000 H   0  0  0  0  0  0  0  0  0  0  0  0
    6.9871   -1.5356   -0.3719 C   0  0  0  0  0  0  0  0  0  0  0  0
    6.1806   -2.7723   -0.0569 C   0  0  0  0  0  0  0  0  0  0  0  0
    6.3385   -3.8464   -1.0866 C   0  0  0  0  0  0  0  0  0  0  0  0
    7.7616   -4.3168   -1.2418 C   0  0  0  0  0  0  0  0  0  0  0  0
    5.5168   -5.0393   -0.6384 C   0  0  0  0  0  0  0  0  0  0  0  0
    6.6595   -1.0649   -1.3205 H   0  0  0  0  0  0  0  0  0  0  0  0
    6.8139   -0.7797    0.4209 H   0  0  0  0  0  0  0  0  0  0  0  0
    5.1139   -2.4673   -0.0537 H   0  0  0  0  0  0  0  0  0  0  0  0
    6.4164   -3.1344    0.9633 H   0  0  0  0  0  0  0  0  0  0  0  0
    5.9582   -3.5331   -2.0630 H   0  0  0  0  0  0  0  0  0  0  0  0
    7.7191   -5.3710   -1.5860 H   0  0  0  0  0  0  0  0  0  0  0  0
    8.3457   -3.7352   -1.9536 H   0  0  0  0  0  0  0  0  0  0  0  0
    8.2204   -4.3447   -0.2127 H   0  0  0  0  0  0  0  0  0  0  0  0
    6.1350   -5.9620   -0.5348 H   0  0  0  0  0  0  0  0  0  0  0  0
    4.7211   -5.2848   -1.3692 H   0  0  0  0  0  0  0  0  0  0  0  0
    5.0715   -4.8785    0.3785 H   0  0  0  0  0  0  0  0  0  0  0  0
  1  2  1  0
  2  3  1  0
  2 19  1  0
  3  4  1  0
  3  5  2  0
  5  6  1  0
  6  7  1  0
  6 19  1  0
  7  8  2  0
  7 18  1  0
  8  9  1  0
  9 10  2  0
 10 11  1  0
 11 12  1  0
 11 18  2  0
 12 13  2  0
 12 17  1  0
 13 14  1  0
 14 15  2  0
 15 16  1  0
 16 17  2  0
 19 20  2  0
  1 21  1  0
  1 22  1  0
  1 23  1  0
  4 24  1  0
  4 25  1  0
  5 26  1  0
  8 27  1  0
  9 28  1  0
 10 29  1  0
 13 30  1  0
 14 31  1  0
 15 32  1  0
 17 33  1  0
 18 34  1  0
 35 36  1  0
 36 37  1  0
 37 38  1  0
 37 39  1  0
 35 40  1  0
 35 41  1  0
 36 42  1  0
 36 43  1  0
 37 44  1  0
 38 45  1  0
 38 46  1  0
 38 47  1  0
 39 48  1  0
 39 49  1  0
 39 50  1  0
  6 35  1  6
M  CHG  1   5   1
M  END
>  <attachment_point>  (283) 
26

>  <score>  (283) 
<NA>

$$$$
CAT-4j
     RDKit          3D

 48 51  0  0  1  0  0  0  0  0999 V2000
   11.7106   -2.3098    1.2658 C   0  0  0  0  0  0  0  0  0  0  0  0
   13.0313   -2.6523    0.7225 N   0  0  0  0  0  0  0  0  0  0  0  0
   14.2010   -2.6281    1.3773 C   0  0  0  0  0  0  0  0  0  0  0  0
   14.3777   -2.3568    2.6732 N   0  0  0  0  0  0  0  0  0  0  0  0
   15.2217   -2.9197    0.5738 N   0  0  0  0  0  0  0  0  0  0  0  0
   14.7965   -3.2519   -0.7875 C   0  0  1  0  0  0  0  0  0  0  0  0
   15.3794   -2.2443   -1.7949 C   0  0  0  0  0  0  0  0  0  0  0  0
   15.9522   -2.6550   -3.0208 C   0  0  0  0  0  0  0  0  0  0  0  0
   16.4340   -1.6937   -3.9273 C   0  0  0  0  0  0  0  0  0  0  0  0
   16.3364   -0.3224   -3.6308 C   0  0  0  0  0  0  0  0  0  0  0  0
   15.7943    0.1250   -2.4073 C   0  0  0  0  0  0  0  0  0  0  0  0
   15.6711    1.5693   -2.0915 C   0  0  0  0  0  0  0  0  0  0  0  0
   15.3832    2.0354   -0.7903 C   0  0  0  0  0  0  0  0  0  0  0  0
   15.3534    3.4188   -0.5357 C   0  0  0  0  0  0  0  0  0  0  0  0
   15.5968    4.3049   -1.5946 C   0  0  0  0  0  0  0  0  0  0  0  0
   15.8275    3.8920   -2.8511 N   0  0  0  0  0  0  0  0  0  0  0  0
   15.8598    2.5642   -3.0762 C   0  0  0  0  0  0  0  0  0  0  0  0
   15.3327   -0.8573   -1.5012 C   0  0  0  0  0  0  0  0  0  0  0  0
   13.2767   -3.0094   -0.6368 C   0  0  0  0  0  0  0  0  0  0  0  0
   12.3981   -3.0674   -1.5055 O   0  0  0  0  0  0  0  0  0  0  0  0
    0.0000    0.0000    0.0000 H   0  0  0  0  0  0  0  0  0  0  0  0
    0.0000    0.0000    0.0000 H   0  0  0  0  0  0  0  0  0  0  0  0
    0.0000    0.0000    0.0000 H   0  0  0  0  0  0  0  0  0  0  0  0
    0.0000    0.0000    0.0000 H   0  0  0  0  0  0  0  0  0  0  0  0
    0.0000    0.0000    0.0000 H   0  0  0  0  0  0  0  0  0  0  0  0
    0.0000    0.0000    0.0000 H   0  0  0  0  0  0  0  0  0  0  0  0
    0.0000    0.0000    0.0000 H   0  0  0  0  0  0  0  0  0  0  0  0
    0.0000    0.0000    0.0000 H   0  0  0  0  0  0  0  0  0  0  0  0
    0.0000    0.0000    0.0000 H   0  0  0  0  0  0  0  0  0  0  0  0
    0.0000    0.0000    0.0000 H   0  0  0  0  0  0  0  0  0  0  0  0
    0.0000    0.0000    0.0000 H   0  0  0  0  0  0  0  0  0  0  0  0
    0.0000    0.0000    0.0000 H   0  0  0  0  0  0  0  0  0  0  0  0
    0.0000    0.0000    0.0000 H   0  0  0  0  0  0  0  0  0  0  0  0
    0.0000    0.0000    0.0000 H   0  0  0  0  0  0  0  0  0  0  0  0
    6.9930   -1.5369   -0.3722 N   0  0  0  0  0  0  0  0  0  0  0  0
    6.1419   -2.5400   -0.8897 C   0  0  0  0  0  0  0  0  0  0  0  0
    6.6409   -3.6137   -1.3720 O   0  0  0  0  0  0  0  0  0  0  0  0
    4.7101   -2.3191   -0.8578 C   0  0  0  0  0  0  0  0  0  0  0  0
    4.1139   -1.1860   -0.3523 C   0  0  0  0  0  0  0  0  0  0  0  0
    2.7410   -0.9942   -0.3312 C   0  0  0  0  0  0  0  0  0  0  0  0
    1.9332   -1.9854   -0.8409 C   0  0  0  0  0  0  0  0  0  0  0  0
    2.4899   -3.1037   -1.3414 N   0  0  0  0  0  0  0  0  0  0  0  0
    3.8203   -3.2801   -1.3573 C   0  0  0  0  0  0  0  0  0  0  0  0
    6.7044   -0.6319    0.0411 H   0  0  0  0  0  0  0  0  0  0  0  0
    4.7254   -0.3942    0.0531 H   0  0  0  0  0  0  0  0  0  0  0  0
    2.2941   -0.0986    0.0696 H   0  0  0  0  0  0  0  0  0  0  0  0
    0.8433   -1.8436   -0.8291 H   0  0  0  0  0  0  0  0  0  0  0  0
    4.2522   -4.1971   -1.7690 H   0  0  0  0  0  0  0  0  0  0  0  0
  1  2  1  0
  2  3  1  0
  2 19  1  0
  3  4  1  0
  3  5  2  0
  5  6  1  0
  6  7  1  0
  6 19  1  0
  7  8  2  0
  7 18  1  0
  8  9  1  0
  9 10  2  0
 10 11  1  0
 11 12  1  0
 11 18  2  0
 12 13  2  0
 12 17  1  0
 13 14  1  0
 14 15  2  0
 15 16  1  0
 16 17  2  0
 19 20  2  0
  1 21  1  0
  1 22  1  0
  1 23  1  0
  4 24  1  0
  4 25  1  0
  5 26  1  0
  8 27  1  0
  9 28  1  0
 10 29  1  0
 13 30  1  0
 14 31  1  0
 15 32  1  0
 17 33  1  0
 18 34  1  0
 35 36  1  0
 36 37  2  0
 36 38  1  0
 38 39  2  0
 39 40  1  0
 40 41  2  0
 41 42  1  0
 42 43  2  0
 43 38  1  0
 35 44  1  0
 39 45  1  0
 40 46  1  0
 41 47  1  0
 43 48  1  0
  6 35  1  6
M  CHG  1   5   1
M  END
>  <attachment_point>  (284) 
26

>  <score>  (284) 
<NA>

$$$$
CAT-4j
     RDKit          3D

 44 46  0  0  1  0  0  0  0  0999 V2000
   11.7106   -2.3098    1.2658 C   0  0  0  0  0  0  0  0  0  0  0  0
   13.0313   -2.6523    0.7225 N   0  0  0  0  0  0  0  0  0  0  0  0
   14.2010   -2.6281    1.3773 C   0  0  0  0  0  0  0  0  0  0  0  0
   14.3777   -2.3568    2.6732 N   0  0  0  0  0  0  0  0  0  0  0  0
   15.2217   -2.9197    0.5738 N   0  0  0  0  0  0  0  0  0  0  0  0
   14.7965   -3.2519   -0.7875 C   0  0  1  0  0  0  0  0  0  0  0  0
   15.3794   -2.2443   -1.7949 C   0  0  0  0  0  0  0  0  0  0  0  0
   15.9522   -2.6550   -3.0208 C   0  0  0  0  0  0  0  0  0  0  0  0
   16.4340   -1.6937   -3.9273 C   0  0  0  0  0  0  0  0  0  0  0  0
   16.3364   -0.3224   -3.6308 C   0  0  0  0  0  0  0  0  0  0  0  0
   15.7943    0.1250   -2.4073 C   0  0  0  0  0  0  0  0  0  0  0  0
   15.6711    1.5693   -2.0915 C   0  0  0  0  0  0  0  0  0  0  0  0
   15.3832    2.0354   -0.7903 C   0  0  0  0  0  0  0  0  0  0  0  0
   15.3534    3.4188   -0.5357 C   0  0  0  0  0  0  0  0  0  0  0  0
   15.5968    4.3049   -1.5946 C   0  0  0  0  0  0  0  0  0  0  0  0
   15.8275    3.8920   -2.8511 N   0  0  0  0  0  0  0  0  0  0  0  0
   15.8598    2.5642   -3.0762 C   0  0  0  0  0  0  0  0  0  0  0  0
   15.3327   -0.8573   -1.5012 C   0  0  0  0  0  0  0  0  0  0  0  0
   13.2767   -3.0094   -0.6368 C   0  0  0  0  0  0  0  0  0  0  0  0
   12.3981   -3.0674   -1.5055 O   0  0  0  0  0  0  0  0  0  0  0  0
    0.0000    0.0000    0.0000 H   0  0  0  0  0  0  0  0  0  0  0  0
    0.0000    0.0000    0.0000 H   0  0  0  0  0  0  0  0  0  0  0  0
    0.0000    0.0000    0.0000 H   0  0  0  0  0  0  0  0  0  0  0  0
    0.0000    0.0000    0.0000 H   0  0  0  0  0  0  0  0  0  0  0  0
    0.0000    0.0000    0.0000 H   0  0  0  0  0  0  0  0  0  0  0  0
    0.0000    0.0000    0.0000 H   0  0  0  0  0  0  0  0  0  0  0  0
    0.0000    0.0000    0.0000 H   0  0  0  0  0  0  0  0  0  0  0  0
    0.0000    0.0000    0.0000 H   0  0  0  0  0  0  0  0  0  0  0  0
    0.0000    0.0000    0.0000 H   0  0  0  0  0  0  0  0  0  0  0  0
    0.0000    0.0000    0.0000 H   0  0  0  0  0  0  0  0  0  0  0  0
    0.0000    0.0000    0.0000 H   0  0  0  0  0  0  0  0  0  0  0  0
    0.0000    0.0000    0.0000 H   0  0  0  0  0  0  0  0  0  0  0  0
    0.0000    0.0000    0.0000 H   0  0  0  0  0  0  0  0  0  0  0  0
    0.0000    0.0000    0.0000 H   0  0  0  0  0  0  0  0  0  0  0  0
    6.9632   -1.5303   -0.3706 S   0  0  0  0  0  6  0  0  0  0  0  0
    6.4931   -0.6949   -1.5488 O   0  0  0  0  0  0  0  0  0  0  0  0
    6.7736   -0.6708    0.8460 O   0  0  0  0  0  0  0  0  0  0  0  0
    5.9396   -2.9707   -0.2686 C   0  0  0  0  0  0  0  0  0  0  0  0
    6.1105   -3.8727   -1.4694 C   0  0  0  0  0  0  0  0  0  0  0  0
    4.8799   -2.6455   -0.2579 H   0  0  0  0  0  0  0  0  0  0  0  0
    6.1622   -3.5493    0.6434 H   0  0  0  0  0  0  0  0  0  0  0  0
    5.2625   -4.6103   -1.4286 H   0  0  0  0  0  0  0  0  0  0  0  0
    7.0906   -4.3920   -1.4684 H   0  0  0  0  0  0  0  0  0  0  0  0
    5.9991   -3.3408   -2.4197 H   0  0  0  0  0  0  0  0  0  0  0  0
  1  2  1  0
  2  3  1  0
  2 19  1  0
  3  4  1  0
  3  5  2  0
  5  6  1  0
  6  7  1  1
  6 19  1  0
  7  8  2  0
  7 18  1  0
  8  9  1  0
  9 10  2  0
 10 11  1  0
 11 12  1  0
 11 18  2  0
 12 13  2  0
 12 17  1  0
 13 14  1  0
 14 15  2  0
 15 16  1  0
 16 17  2  0
 19 20  2  0
  1 21  1  0
  1 22  1  0
  1 23  1  0
  4 24  1  0
  4 25  1  0
  5 26  1  0
  8 27  1  0
  9 28  1  0
 10 29  1  0
 13 30  1  0
 14 31  1  0
 15 32  1  0
 17 33  1  0
 18 34  1  0
 35 36  2  0
 35 37  2  0
 35 38  1  0
 38 39  1  0
 38 40  1  0
 38 41  1  0
 39 42  1  0
 39 43  1  0
 39 44  1  0
  6 35  1  0
M  CHG  1   5   1
M  END
>  <attachment_point>  (285) 
26

>  <score>  (285) 
<NA>

$$$$
CAT-4j
     RDKit          3D

 52 54  0  0  1  0  0  0  0  0999 V2000
   11.7106   -2.3098    1.2658 C   0  0  0  0  0  0  0  0  0  0  0  0
   13.0313   -2.6523    0.7225 N   0  0  0  0  0  0  0  0  0  0  0  0
   14.2010   -2.6281    1.3773 C   0  0  0  0  0  0  0  0  0  0  0  0
   14.3777   -2.3568    2.6732 N   0  0  0  0  0  0  0  0  0  0  0  0
   15.2217   -2.9197    0.5738 N   0  0  0  0  0  0  0  0  0  0  0  0
   14.7965   -3.2519   -0.7875 C   0  0  1  0  0  0  0  0  0  0  0  0
   15.3794   -2.2443   -1.7949 C   0  0  0  0  0  0  0  0  0  0  0  0
   15.9522   -2.6550   -3.0208 C   0  0  0  0  0  0  0  0  0  0  0  0
   16.4340   -1.6937   -3.9273 C   0  0  0  0  0  0  0  0  0  0  0  0
   16.3364   -0.3224   -3.6308 C   0  0  0  0  0  0  0  0  0  0  0  0
   15.7943    0.1250   -2.4073 C   0  0  0  0  0  0  0  0  0  0  0  0
   15.6711    1.5693   -2.0915 C   0  0  0  0  0  0  0  0  0  0  0  0
   15.3832    2.0354   -0.7903 C   0  0  0  0  0  0  0  0  0  0  0  0
   15.3534    3.4188   -0.5357 C   0  0  0  0  0  0  0  0  0  0  0  0
   15.5968    4.3049   -1.5946 C   0  0  0  0  0  0  0  0  0  0  0  0
   15.8275    3.8920   -2.8511 N   0  0  0  0  0  0  0  0  0  0  0  0
   15.8598    2.5642   -3.0762 C   0  0  0  0  0  0  0  0  0  0  0  0
   15.3327   -0.8573   -1.5012 C   0  0  0  0  0  0  0  0  0  0  0  0
   13.2767   -3.0094   -0.6368 C   0  0  0  0  0  0  0  0  0  0  0  0
   12.3981   -3.0674   -1.5055 O   0  0  0  0  0  0  0  0  0  0  0  0
    0.0000    0.0000    0.0000 H   0  0  0  0  0  0  0  0  0  0  0  0
    0.0000    0.0000    0.0000 H   0  0  0  0  0  0  0  0  0  0  0  0
    0.0000    0.0000    0.0000 H   0  0  0  0  0  0  0  0  0  0  0  0
    0.0000    0.0000    0.0000 H   0  0  0  0  0  0  0  0  0  0  0  0
    0.0000    0.0000    0.0000 H   0  0  0  0  0  0  0  0  0  0  0  0
    0.0000    0.0000    0.0000 H   0  0  0  0  0  0  0  0  0  0  0  0
    0.0000    0.0000    0.0000 H   0  0  0  0  0  0  0  0  0  0  0  0
    0.0000    0.0000    0.0000 H   0  0  0  0  0  0  0  0  0  0  0  0
    0.0000    0.0000    0.0000 H   0  0  0  0  0  0  0  0  0  0  0  0
    0.0000    0.0000    0.0000 H   0  0  0  0  0  0  0  0  0  0  0  0
    0.0000    0.0000    0.0000 H   0  0  0  0  0  0  0  0  0  0  0  0
    0.0000    0.0000    0.0000 H   0  0  0  0  0  0  0  0  0  0  0  0
    0.0000    0.0000    0.0000 H   0  0  0  0  0  0  0  0  0  0  0  0
    0.0000    0.0000    0.0000 H   0  0  0  0  0  0  0  0  0  0  0  0
    6.8596   -1.5076   -0.3651 N   0  0  0  0  0  0  0  0  0  0  0  0
    6.1218   -2.6329   -0.5774 C   0  0  0  0  0  0  0  0  0  0  0  0
    6.6348   -3.7490   -0.8006 O   0  0  0  0  0  0  0  0  0  0  0  0
    4.7499   -2.6545   -0.5674 O   0  0  0  0  0  0  0  0  0  0  0  0
    3.8574   -3.6238   -0.7471 C   0  0  0  0  0  0  0  0  0  0  0  0
    3.7781   -4.8209    0.1019 C   0  0  0  0  0  0  0  0  0  0  0  0
    2.4722   -2.9369   -0.6847 C   0  0  0  0  0  0  0  0  0  0  0  0
    3.9495   -4.0886   -2.2140 C   0  0  0  0  0  0  0  0  0  0  0  0
    6.7133   -0.5928   -0.1848 H   0  0  0  0  0  0  0  0  0  0  0  0
    3.5556   -5.7377   -0.4883 H   0  0  0  0  0  0  0  0  0  0  0  0
    4.6592   -5.0618    0.7102 H   0  0  0  0  0  0  0  0  0  0  0  0
    2.9264   -4.7626    0.8397 H   0  0  0  0  0  0  0  0  0  0  0  0
    2.5140   -1.9245   -1.0979 H   0  0  0  0  0  0  0  0  0  0  0  0
    2.2854   -2.8217    0.4228 H   0  0  0  0  0  0  0  0  0  0  0  0
    1.6943   -3.5814   -1.1063 H   0  0  0  0  0  0  0  0  0  0  0  0
    4.5235   -3.3955   -2.8222 H   0  0  0  0  0  0  0  0  0  0  0  0
    4.4945   -5.0755   -2.2314 H   0  0  0  0  0  0  0  0  0  0  0  0
    2.9409   -4.3145   -2.6183 H   0  0  0  0  0  0  0  0  0  0  0  0
  1  2  1  0
  2  3  1  0
  2 19  1  0
  3  4  1  0
  3  5  2  0
  5  6  1  0
  6  7  1  0
  6 19  1  0
  7  8  2  0
  7 18  1  0
  8  9  1  0
  9 10  2  0
 10 11  1  0
 11 12  1  0
 11 18  2  0
 12 13  2  0
 12 17  1  0
 13 14  1  0
 14 15  2  0
 15 16  1  0
 16 17  2  0
 19 20  2  0
  1 21  1  0
  1 22  1  0
  1 23  1  0
  4 24  1  0
  4 25  1  0
  5 26  1  0
  8 27  1  0
  9 28  1  0
 10 29  1  0
 13 30  1  0
 14 31  1  0
 15 32  1  0
 17 33  1  0
 18 34  1  0
 35 36  1  0
 36 37  2  0
 36 38  1  0
 38 39  1  0
 39 40  1  0
 39 41  1  0
 39 42  1  0
 35 43  1  0
 40 44  1  0
 40 45  1  0
 40 46  1  0
 41 47  1  0
 41 48  1  0
 41 49  1  0
 42 50  1  0
 42 51  1  0
 42 52  1  0
  6 35  1  6
M  CHG  1   5   1
M  END
>  <attachment_point>  (286) 
26

>  <score>  (286) 
<NA>

$$$$
CAT-4j
     RDKit          3D

 50 53  0  0  1  0  0  0  0  0999 V2000
   11.7106   -2.3098    1.2658 C   0  0  0  0  0  0  0  0  0  0  0  0
   13.0313   -2.6523    0.7225 N   0  0  0  0  0  0  0  0  0  0  0  0
   14.2010   -2.6281    1.3773 C   0  0  0  0  0  0  0  0  0  0  0  0
   14.3777   -2.3568    2.6732 N   0  0  0  0  0  0  0  0  0  0  0  0
   15.2217   -2.9197    0.5738 N   0  0  0  0  0  0  0  0  0  0  0  0
   14.7965   -3.2519   -0.7875 C   0  0  1  0  0  0  0  0  0  0  0  0
   15.3794   -2.2443   -1.7949 C   0  0  0  0  0  0  0  0  0  0  0  0
   15.9522   -2.6550   -3.0208 C   0  0  0  0  0  0  0  0  0  0  0  0
   16.4340   -1.6937   -3.9273 C   0  0  0  0  0  0  0  0  0  0  0  0
   16.3364   -0.3224   -3.6308 C   0  0  0  0  0  0  0  0  0  0  0  0
   15.7943    0.1250   -2.4073 C   0  0  0  0  0  0  0  0  0  0  0  0
   15.6711    1.5693   -2.0915 C   0  0  0  0  0  0  0  0  0  0  0  0
   15.3832    2.0354   -0.7903 C   0  0  0  0  0  0  0  0  0  0  0  0
   15.3534    3.4188   -0.5357 C   0  0  0  0  0  0  0  0  0  0  0  0
   15.5968    4.3049   -1.5946 C   0  0  0  0  0  0  0  0  0  0  0  0
   15.8275    3.8920   -2.8511 N   0  0  0  0  0  0  0  0  0  0  0  0
   15.8598    2.5642   -3.0762 C   0  0  0  0  0  0  0  0  0  0  0  0
   15.3327   -0.8573   -1.5012 C   0  0  0  0  0  0  0  0  0  0  0  0
   13.2767   -3.0094   -0.6368 C   0  0  0  0  0  0  0  0  0  0  0  0
   12.3981   -3.0674   -1.5055 O   0  0  0  0  0  0  0  0  0  0  0  0
    0.0000    0.0000    0.0000 H   0  0  0  0  0  0  0  0  0  0  0  0
    0.0000    0.0000    0.0000 H   0  0  0  0  0  0  0  0  0  0  0  0
    0.0000    0.0000    0.0000 H   0  0  0  0  0  0  0  0  0  0  0  0
    0.0000    0.0000    0.0000 H   0  0  0  0  0  0  0  0  0  0  0  0
    0.0000    0.0000    0.0000 H   0  0  0  0  0  0  0  0  0  0  0  0
    0.0000    0.0000    0.0000 H   0  0  0  0  0  0  0  0  0  0  0  0
    0.0000    0.0000    0.0000 H   0  0  0  0  0  0  0  0  0  0  0  0
    0.0000    0.0000    0.0000 H   0  0  0  0  0  0  0  0  0  0  0  0
    0.0000    0.0000    0.0000 H   0  0  0  0  0  0  0  0  0  0  0  0
    0.0000    0.0000    0.0000 H   0  0  0  0  0  0  0  0  0  0  0  0
    0.0000    0.0000    0.0000 H   0  0  0  0  0  0  0  0  0  0  0  0
    0.0000    0.0000    0.0000 H   0  0  0  0  0  0  0  0  0  0  0  0
    0.0000    0.0000    0.0000 H   0  0  0  0  0  0  0  0  0  0  0  0
    0.0000    0.0000    0.0000 H   0  0  0  0  0  0  0  0  0  0  0  0
    7.0795   -1.5559   -0.3768 O   0  0  0  0  0  0  0  0  0  0  0  0
    6.4424   -1.5254    0.8686 C   0  0  0  0  0  0  0  0  0  0  0  0
    5.0061   -1.1796    0.6114 C   0  0  2  0  0  0  0  0  0  0  0  0
    4.8438    0.2214    0.0653 C   0  0  0  0  0  0  0  0  0  0  0  0
    3.3875    0.5072    0.4264 C   0  0  0  0  0  0  0  0  0  0  0  0
    3.0042   -0.7270    1.2234 C   0  0  0  0  0  0  0  0  0  0  0  0
    4.2435   -1.1138    1.7766 O   0  0  0  0  0  0  0  0  0  0  0  0
    6.9345   -0.8605    1.5885 H   0  0  0  0  0  0  0  0  0  0  0  0
    6.4801   -2.5479    1.2835 H   0  0  0  0  0  0  0  0  0  0  0  0
    4.5783   -1.9136   -0.0745 H   0  0  0  0  0  0  0  0  0  0  0  0
    4.9291    0.2847   -1.0212 H   0  0  0  0  0  0  0  0  0  0  0  0
    5.4921    0.9423    0.6080 H   0  0  0  0  0  0  0  0  0  0  0  0
    3.2825    1.3906    1.0676 H   0  0  0  0  0  0  0  0  0  0  0  0
    2.7565    0.5933   -0.5056 H   0  0  0  0  0  0  0  0  0  0  0  0
    2.2480   -0.5351    1.9818 H   0  0  0  0  0  0  0  0  0  0  0  0
    2.7349   -1.5688    0.5270 H   0  0  0  0  0  0  0  0  0  0  0  0
  1  2  1  0
  2  3  1  0
  2 19  1  0
  3  4  1  0
  3  5  2  0
  5  6  1  0
  6  7  1  0
  6 19  1  0
  7  8  2  0
  7 18  1  0
  8  9  1  0
  9 10  2  0
 10 11  1  0
 11 12  1  0
 11 18  2  0
 12 13  2  0
 12 17  1  0
 13 14  1  0
 14 15  2  0
 15 16  1  0
 16 17  2  0
 19 20  2  0
  1 21  1  0
  1 22  1  0
  1 23  1  0
  4 24  1  0
  4 25  1  0
  5 26  1  0
  8 27  1  0
  9 28  1  0
 10 29  1  0
 13 30  1  0
 14 31  1  0
 15 32  1  0
 17 33  1  0
 18 34  1  0
 35 36  1  0
 36 37  1  0
 37 38  1  0
 38 39  1  0
 39 40  1  0
 40 41  1  0
 41 37  1  0
 36 42  1  0
 36 43  1  0
 37 44  1  6
 38 45  1  0
 38 46  1  0
 39 47  1  0
 39 48  1  0
 40 49  1  0
 40 50  1  0
  6 35  1  6
M  CHG  1   5   1
M  END
>  <attachment_point>  (287) 
26

>  <score>  (287) 
<NA>

$$$$
CAT-4j
     RDKit          3D

 47 50  0  0  1  0  0  0  0  0999 V2000
   11.7106   -2.3098    1.2658 C   0  0  0  0  0  0  0  0  0  0  0  0
   13.0313   -2.6523    0.7225 N   0  0  0  0  0  0  0  0  0  0  0  0
   14.2010   -2.6281    1.3773 C   0  0  0  0  0  0  0  0  0  0  0  0
   14.3777   -2.3568    2.6732 N   0  0  0  0  0  0  0  0  0  0  0  0
   15.2217   -2.9197    0.5738 N   0  0  0  0  0  0  0  0  0  0  0  0
   14.7965   -3.2519   -0.7875 C   0  0  1  0  0  0  0  0  0  0  0  0
   15.3794   -2.2443   -1.7949 C   0  0  0  0  0  0  0  0  0  0  0  0
   15.9522   -2.6550   -3.0208 C   0  0  0  0  0  0  0  0  0  0  0  0
   16.4340   -1.6937   -3.9273 C   0  0  0  0  0  0  0  0  0  0  0  0
   16.3364   -0.3224   -3.6308 C   0  0  0  0  0  0  0  0  0  0  0  0
   15.7943    0.1250   -2.4073 C   0  0  0  0  0  0  0  0  0  0  0  0
   15.6711    1.5693   -2.0915 C   0  0  0  0  0  0  0  0  0  0  0  0
   15.3832    2.0354   -0.7903 C   0  0  0  0  0  0  0  0  0  0  0  0
   15.3534    3.4188   -0.5357 C   0  0  0  0  0  0  0  0  0  0  0  0
   15.5968    4.3049   -1.5946 C   0  0  0  0  0  0  0  0  0  0  0  0
   15.8275    3.8920   -2.8511 N   0  0  0  0  0  0  0  0  0  0  0  0
   15.8598    2.5642   -3.0762 C   0  0  0  0  0  0  0  0  0  0  0  0
   15.3327   -0.8573   -1.5012 C   0  0  0  0  0  0  0  0  0  0  0  0
   13.2767   -3.0094   -0.6368 C   0  0  0  0  0  0  0  0  0  0  0  0
   12.3981   -3.0674   -1.5055 O   0  0  0  0  0  0  0  0  0  0  0  0
    0.0000    0.0000    0.0000 H   0  0  0  0  0  0  0  0  0  0  0  0
    0.0000    0.0000    0.0000 H   0  0  0  0  0  0  0  0  0  0  0  0
    0.0000    0.0000    0.0000 H   0  0  0  0  0  0  0  0  0  0  0  0
    0.0000    0.0000    0.0000 H   0  0  0  0  0  0  0  0  0  0  0  0
    0.0000    0.0000    0.0000 H   0  0  0  0  0  0  0  0  0  0  0  0
    0.0000    0.0000    0.0000 H   0  0  0  0  0  0  0  0  0  0  0  0
    0.0000    0.0000    0.0000 H   0  0  0  0  0  0  0  0  0  0  0  0
    0.0000    0.0000    0.0000 H   0  0  0  0  0  0  0  0  0  0  0  0
    0.0000    0.0000    0.0000 H   0  0  0  0  0  0  0  0  0  0  0  0
    0.0000    0.0000    0.0000 H   0  0  0  0  0  0  0  0  0  0  0  0
    0.0000    0.0000    0.0000 H   0  0  0  0  0  0  0  0  0  0  0  0
    0.0000    0.0000    0.0000 H   0  0  0  0  0  0  0  0  0  0  0  0
    0.0000    0.0000    0.0000 H   0  0  0  0  0  0  0  0  0  0  0  0
    0.0000    0.0000    0.0000 H   0  0  0  0  0  0  0  0  0  0  0  0
    7.0053   -1.5396   -0.3728 C   0  0  0  0  0  0  0  0  0  0  0  0
    6.1849   -1.6655   -1.4901 C   0  0  0  0  0  0  0  0  0  0  0  0
    4.8476   -1.3516   -1.3430 C   0  0  0  0  0  0  0  0  0  0  0  0
    4.3051   -0.9233   -0.1424 C   0  0  0  0  0  0  0  0  0  0  0  0
    2.8809   -0.5868    0.0230 C   0  0  0  0  0  0  0  0  0  0  0  0
    5.1415   -0.8190    0.9059 N   0  0  0  0  0  0  0  0  0  0  0  0
    6.4527   -1.1118    0.8186 C   0  0  0  0  0  0  0  0  0  0  0  0
    6.6026   -2.0004   -2.4341 H   0  0  0  0  0  0  0  0  0  0  0  0
    4.1877   -1.4387   -2.1880 H   0  0  0  0  0  0  0  0  0  0  0  0
    2.3959   -1.2599    0.7875 H   0  0  0  0  0  0  0  0  0  0  0  0
    2.7036    0.4396    0.3921 H   0  0  0  0  0  0  0  0  0  0  0  0
    2.3453   -0.7541   -0.9430 H   0  0  0  0  0  0  0  0  0  0  0  0
    7.0820   -1.0046    1.7155 H   0  0  0  0  0  0  0  0  0  0  0  0
  1  2  1  0
  2  3  1  0
  2 19  1  0
  3  4  1  0
  3  5  2  0
  5  6  1  0
  6  7  1  1
  6 19  1  0
  7  8  2  0
  7 18  1  0
  8  9  1  0
  9 10  2  0
 10 11  1  0
 11 12  1  0
 11 18  2  0
 12 13  2  0
 12 17  1  0
 13 14  1  0
 14 15  2  0
 15 16  1  0
 16 17  2  0
 19 20  2  0
  1 21  1  0
  1 22  1  0
  1 23  1  0
  4 24  1  0
  4 25  1  0
  5 26  1  0
  8 27  1  0
  9 28  1  0
 10 29  1  0
 13 30  1  0
 14 31  1  0
 15 32  1  0
 17 33  1  0
 18 34  1  0
 35 36  2  0
 36 37  1  0
 37 38  2  0
 38 39  1  0
 38 40  1  0
 40 41  2  0
 41 35  1  0
 36 42  1  0
 37 43  1  0
 39 44  1  0
 39 45  1  0
 39 46  1  0
 41 47  1  0
  6 35  1  0
M  CHG  1   5   1
M  END
>  <attachment_point>  (288) 
26

>  <score>  (288) 
<NA>

$$$$
CAT-4j
     RDKit          3D

 49 53  0  0  1  0  0  0  0  0999 V2000
   11.7106   -2.3098    1.2658 C   0  0  0  0  0  0  0  0  0  0  0  0
   13.0313   -2.6523    0.7225 N   0  0  0  0  0  0  0  0  0  0  0  0
   14.2010   -2.6281    1.3773 C   0  0  0  0  0  0  0  0  0  0  0  0
   14.3777   -2.3568    2.6732 N   0  0  0  0  0  0  0  0  0  0  0  0
   15.2217   -2.9197    0.5738 N   0  0  0  0  0  0  0  0  0  0  0  0
   14.7965   -3.2519   -0.7875 C   0  0  1  0  0  0  0  0  0  0  0  0
   15.3794   -2.2443   -1.7949 C   0  0  0  0  0  0  0  0  0  0  0  0
   15.9522   -2.6550   -3.0208 C   0  0  0  0  0  0  0  0  0  0  0  0
   16.4340   -1.6937   -3.9273 C   0  0  0  0  0  0  0  0  0  0  0  0
   16.3364   -0.3224   -3.6308 C   0  0  0  0  0  0  0  0  0  0  0  0
   15.7943    0.1250   -2.4073 C   0  0  0  0  0  0  0  0  0  0  0  0
   15.6711    1.5693   -2.0915 C   0  0  0  0  0  0  0  0  0  0  0  0
   15.3832    2.0354   -0.7903 C   0  0  0  0  0  0  0  0  0  0  0  0
   15.3534    3.4188   -0.5357 C   0  0  0  0  0  0  0  0  0  0  0  0
   15.5968    4.3049   -1.5946 C   0  0  0  0  0  0  0  0  0  0  0  0
   15.8275    3.8920   -2.8511 N   0  0  0  0  0  0  0  0  0  0  0  0
   15.8598    2.5642   -3.0762 C   0  0  0  0  0  0  0  0  0  0  0  0
   15.3327   -0.8573   -1.5012 C   0  0  0  0  0  0  0  0  0  0  0  0
   13.2767   -3.0094   -0.6368 C   0  0  0  0  0  0  0  0  0  0  0  0
   12.3981   -3.0674   -1.5055 O   0  0  0  0  0  0  0  0  0  0  0  0
    0.0000    0.0000    0.0000 H   0  0  0  0  0  0  0  0  0  0  0  0
    0.0000    0.0000    0.0000 H   0  0  0  0  0  0  0  0  0  0  0  0
    0.0000    0.0000    0.0000 H   0  0  0  0  0  0  0  0  0  0  0  0
    0.0000    0.0000    0.0000 H   0  0  0  0  0  0  0  0  0  0  0  0
    0.0000    0.0000    0.0000 H   0  0  0  0  0  0  0  0  0  0  0  0
    0.0000    0.0000    0.0000 H   0  0  0  0  0  0  0  0  0  0  0  0
    0.0000    0.0000    0.0000 H   0  0  0  0  0  0  0  0  0  0  0  0
    0.0000    0.0000    0.0000 H   0  0  0  0  0  0  0  0  0  0  0  0
    0.0000    0.0000    0.0000 H   0  0  0  0  0  0  0  0  0  0  0  0
    0.0000    0.0000    0.0000 H   0  0  0  0  0  0  0  0  0  0  0  0
    0.0000    0.0000    0.0000 H   0  0  0  0  0  0  0  0  0  0  0  0
    0.0000    0.0000    0.0000 H   0  0  0  0  0  0  0  0  0  0  0  0
    0.0000    0.0000    0.0000 H   0  0  0  0  0  0  0  0  0  0  0  0
    0.0000    0.0000    0.0000 H   0  0  0  0  0  0  0  0  0  0  0  0
    6.9579   -1.5292   -0.3703 C   0  0  0  0  0  0  0  0  0  0  0  0
    6.2291   -0.8918   -1.3393 C   0  0  0  0  0  0  0  0  0  0  0  0
    4.9329   -0.7859   -0.8922 C   0  0  0  0  0  0  0  0  0  0  0  0
    3.7647   -0.2495   -1.4209 C   0  0  0  0  0  0  0  0  0  0  0  0
    2.5733   -0.2849   -0.7296 C   0  0  0  0  0  0  0  0  0  0  0  0
    2.5424   -0.8679    0.5178 C   0  0  0  0  0  0  0  0  0  0  0  0
    3.6919   -1.4032    1.0536 C   0  0  0  0  0  0  0  0  0  0  0  0
    4.9036   -1.3725    0.3617 C   0  0  0  0  0  0  0  0  0  0  0  0
    6.1450   -1.8127    0.6491 N   0  0  0  0  0  0  0  0  0  0  0  0
    6.6078   -0.5403   -2.2778 H   0  0  0  0  0  0  0  0  0  0  0  0
    3.8008    0.2018   -2.3926 H   0  0  0  0  0  0  0  0  0  0  0  0
    1.6473    0.1215   -1.1089 H   0  0  0  0  0  0  0  0  0  0  0  0
    1.5981   -0.9038    1.0821 H   0  0  0  0  0  0  0  0  0  0  0  0
    3.6861   -1.8586    2.0185 H   0  0  0  0  0  0  0  0  0  0  0  0
    6.4306   -2.2974    1.5252 H   0  0  0  0  0  0  0  0  0  0  0  0
  1  2  1  0
  2  3  1  0
  2 19  1  0
  3  4  1  0
  3  5  2  0
  5  6  1  0
  6  7  1  1
  6 19  1  0
  7  8  2  0
  7 18  1  0
  8  9  1  0
  9 10  2  0
 10 11  1  0
 11 12  1  0
 11 18  2  0
 12 13  2  0
 12 17  1  0
 13 14  1  0
 14 15  2  0
 15 16  1  0
 16 17  2  0
 19 20  2  0
  1 21  1  0
  1 22  1  0
  1 23  1  0
  4 24  1  0
  4 25  1  0
  5 26  1  0
  8 27  1  0
  9 28  1  0
 10 29  1  0
 13 30  1  0
 14 31  1  0
 15 32  1  0
 17 33  1  0
 18 34  1  0
 35 36  2  0
 36 37  1  0
 37 38  2  0
 38 39  1  0
 39 40  2  0
 40 41  1  0
 41 42  2  0
 42 43  1  0
 43 35  1  0
 42 37  1  0
 36 44  1  0
 38 45  1  0
 39 46  1  0
 40 47  1  0
 41 48  1  0
 43 49  1  0
  6 35  1  0
M  CHG  1   5   1
M  END
>  <attachment_point>  (289) 
26

>  <score>  (289) 
<NA>

$$$$
CAT-4j
     RDKit          3D

 48 50  0  0  1  0  0  0  0  0999 V2000
   11.7106   -2.3098    1.2658 C   0  0  0  0  0  0  0  0  0  0  0  0
   13.0313   -2.6523    0.7225 N   0  0  0  0  0  0  0  0  0  0  0  0
   14.2010   -2.6281    1.3773 C   0  0  0  0  0  0  0  0  0  0  0  0
   14.3777   -2.3568    2.6732 N   0  0  0  0  0  0  0  0  0  0  0  0
   15.2217   -2.9197    0.5738 N   0  0  0  0  0  0  0  0  0  0  0  0
   14.7965   -3.2519   -0.7875 C   0  0  1  0  0  0  0  0  0  0  0  0
   15.3794   -2.2443   -1.7949 C   0  0  0  0  0  0  0  0  0  0  0  0
   15.9522   -2.6550   -3.0208 C   0  0  0  0  0  0  0  0  0  0  0  0
   16.4340   -1.6937   -3.9273 C   0  0  0  0  0  0  0  0  0  0  0  0
   16.3364   -0.3224   -3.6308 C   0  0  0  0  0  0  0  0  0  0  0  0
   15.7943    0.1250   -2.4073 C   0  0  0  0  0  0  0  0  0  0  0  0
   15.6711    1.5693   -2.0915 C   0  0  0  0  0  0  0  0  0  0  0  0
   15.3832    2.0354   -0.7903 C   0  0  0  0  0  0  0  0  0  0  0  0
   15.3534    3.4188   -0.5357 C   0  0  0  0  0  0  0  0  0  0  0  0
   15.5968    4.3049   -1.5946 C   0  0  0  0  0  0  0  0  0  0  0  0
   15.8275    3.8920   -2.8511 N   0  0  0  0  0  0  0  0  0  0  0  0
   15.8598    2.5642   -3.0762 C   0  0  0  0  0  0  0  0  0  0  0  0
   15.3327   -0.8573   -1.5012 C   0  0  0  0  0  0  0  0  0  0  0  0
   13.2767   -3.0094   -0.6368 C   0  0  0  0  0  0  0  0  0  0  0  0
   12.3981   -3.0674   -1.5055 O   0  0  0  0  0  0  0  0  0  0  0  0
    0.0000    0.0000    0.0000 H   0  0  0  0  0  0  0  0  0  0  0  0
    0.0000    0.0000    0.0000 H   0  0  0  0  0  0  0  0  0  0  0  0
    0.0000    0.0000    0.0000 H   0  0  0  0  0  0  0  0  0  0  0  0
    0.0000    0.0000    0.0000 H   0  0  0  0  0  0  0  0  0  0  0  0
    0.0000    0.0000    0.0000 H   0  0  0  0  0  0  0  0  0  0  0  0
    0.0000    0.0000    0.0000 H   0  0  0  0  0  0  0  0  0  0  0  0
    0.0000    0.0000    0.0000 H   0  0  0  0  0  0  0  0  0  0  0  0
    0.0000    0.0000    0.0000 H   0  0  0  0  0  0  0  0  0  0  0  0
    0.0000    0.0000    0.0000 H   0  0  0  0  0  0  0  0  0  0  0  0
    0.0000    0.0000    0.0000 H   0  0  0  0  0  0  0  0  0  0  0  0
    0.0000    0.0000    0.0000 H   0  0  0  0  0  0  0  0  0  0  0  0
    0.0000    0.0000    0.0000 H   0  0  0  0  0  0  0  0  0  0  0  0
    0.0000    0.0000    0.0000 H   0  0  0  0  0  0  0  0  0  0  0  0
    0.0000    0.0000    0.0000 H   0  0  0  0  0  0  0  0  0  0  0  0
    6.9745   -1.5328   -0.3712 C   0  0  0  0  0  0  0  0  0  0  0  0
    6.7518   -0.3065   -1.1895 C   0  0  0  0  0  0  0  0  0  0  0  0
    5.6064    0.1943   -1.3039 O   0  0  0  0  0  0  0  0  0  0  0  0
    7.8223    0.3364   -1.8659 N   0  0  0  0  0  0  0  0  0  0  0  0
    9.1487   -0.2418   -1.7346 C   0  0  0  0  0  0  0  0  0  0  0  0
    7.5731    1.5263   -2.6530 C   0  0  0  0  0  0  0  0  0  0  0  0
    6.4595   -2.4138   -0.8254 H   0  0  0  0  0  0  0  0  0  0  0  0
    6.6385   -1.3975    0.6726 H   0  0  0  0  0  0  0  0  0  0  0  0
    9.6794    0.2990   -0.9361 H   0  0  0  0  0  0  0  0  0  0  0  0
    9.6725   -0.2083   -2.7173 H   0  0  0  0  0  0  0  0  0  0  0  0
    9.0741   -1.3040   -1.4231 H   0  0  0  0  0  0  0  0  0  0  0  0
    8.4421    1.7926   -3.2708 H   0  0  0  0  0  0  0  0  0  0  0  0
    7.2566    2.3569   -1.9848 H   0  0  0  0  0  0  0  0  0  0  0  0
    6.7460    1.2852   -3.3510 H   0  0  0  0  0  0  0  0  0  0  0  0
  1  2  1  0
  2  3  1  0
  2 19  1  0
  3  4  1  0
  3  5  2  0
  5  6  1  0
  6  7  1  0
  6 19  1  0
  7  8  2  0
  7 18  1  0
  8  9  1  0
  9 10  2  0
 10 11  1  0
 11 12  1  0
 11 18  2  0
 12 13  2  0
 12 17  1  0
 13 14  1  0
 14 15  2  0
 15 16  1  0
 16 17  2  0
 19 20  2  0
  1 21  1  0
  1 22  1  0
  1 23  1  0
  4 24  1  0
  4 25  1  0
  5 26  1  0
  8 27  1  0
  9 28  1  0
 10 29  1  0
 13 30  1  0
 14 31  1  0
 15 32  1  0
 17 33  1  0
 18 34  1  0
 35 36  1  0
 36 37  2  0
 36 38  1  0
 38 39  1  0
 38 40  1  0
 35 41  1  0
 35 42  1  0
 39 43  1  0
 39 44  1  0
 39 45  1  0
 40 46  1  0
 40 47  1  0
 40 48  1  0
  6 35  1  6
M  CHG  1   5   1
M  END
>  <attachment_point>  (290) 
26

>  <score>  (290) 
<NA>

$$$$
CAT-4j
     RDKit          3D

 59 63  0  0  1  0  0  0  0  0999 V2000
   11.7106   -2.3098    1.2658 C   0  0  0  0  0  0  0  0  0  0  0  0
   13.0313   -2.6523    0.7225 N   0  0  0  0  0  0  0  0  0  0  0  0
   14.2010   -2.6281    1.3773 C   0  0  0  0  0  0  0  0  0  0  0  0
   14.3777   -2.3568    2.6732 N   0  0  0  0  0  0  0  0  0  0  0  0
   15.2217   -2.9197    0.5738 N   0  0  0  0  0  0  0  0  0  0  0  0
   14.7965   -3.2519   -0.7875 C   0  0  1  0  0  0  0  0  0  0  0  0
   15.3794   -2.2443   -1.7949 C   0  0  0  0  0  0  0  0  0  0  0  0
   15.9522   -2.6550   -3.0208 C   0  0  0  0  0  0  0  0  0  0  0  0
   16.4340   -1.6937   -3.9273 C   0  0  0  0  0  0  0  0  0  0  0  0
   16.3364   -0.3224   -3.6308 C   0  0  0  0  0  0  0  0  0  0  0  0
   15.7943    0.1250   -2.4073 C   0  0  0  0  0  0  0  0  0  0  0  0
   15.6711    1.5693   -2.0915 C   0  0  0  0  0  0  0  0  0  0  0  0
   15.3832    2.0354   -0.7903 C   0  0  0  0  0  0  0  0  0  0  0  0
   15.3534    3.4188   -0.5357 C   0  0  0  0  0  0  0  0  0  0  0  0
   15.5968    4.3049   -1.5946 C   0  0  0  0  0  0  0  0  0  0  0  0
   15.8275    3.8920   -2.8511 N   0  0  0  0  0  0  0  0  0  0  0  0
   15.8598    2.5642   -3.0762 C   0  0  0  0  0  0  0  0  0  0  0  0
   15.3327   -0.8573   -1.5012 C   0  0  0  0  0  0  0  0  0  0  0  0
   13.2767   -3.0094   -0.6368 C   0  0  0  0  0  0  0  0  0  0  0  0
   12.3981   -3.0674   -1.5055 O   0  0  0  0  0  0  0  0  0  0  0  0
    0.0000    0.0000    0.0000 H   0  0  0  0  0  0  0  0  0  0  0  0
    0.0000    0.0000    0.0000 H   0  0  0  0  0  0  0  0  0  0  0  0
    0.0000    0.0000    0.0000 H   0  0  0  0  0  0  0  0  0  0  0  0
    0.0000    0.0000    0.0000 H   0  0  0  0  0  0  0  0  0  0  0  0
    0.0000    0.0000    0.0000 H   0  0  0  0  0  0  0  0  0  0  0  0
    0.0000    0.0000    0.0000 H   0  0  0  0  0  0  0  0  0  0  0  0
    0.0000    0.0000    0.0000 H   0  0  0  0  0  0  0  0  0  0  0  0
    0.0000    0.0000    0.0000 H   0  0  0  0  0  0  0  0  0  0  0  0
    0.0000    0.0000    0.0000 H   0  0  0  0  0  0  0  0  0  0  0  0
    0.0000    0.0000    0.0000 H   0  0  0  0  0  0  0  0  0  0  0  0
    0.0000    0.0000    0.0000 H   0  0  0  0  0  0  0  0  0  0  0  0
    0.0000    0.0000    0.0000 H   0  0  0  0  0  0  0  0  0  0  0  0
    0.0000    0.0000    0.0000 H   0  0  0  0  0  0  0  0  0  0  0  0
    0.0000    0.0000    0.0000 H   0  0  0  0  0  0  0  0  0  0  0  0
    7.0505   -1.5495   -0.3752 N   0  0  0  0  0  0  0  0  0  0  0  0
    6.1602   -2.5860   -0.6939 C   0  0  0  0  0  0  0  0  0  0  0  0
    4.7166   -2.3272   -0.5914 C   0  0  0  0  0  0  0  0  0  0  0  0
    4.3225   -0.9612   -0.5990 N   0  0  0  0  0  0  0  0  0  0  0  0
    2.9296   -0.6518   -0.5986 C   0  0  0  0  0  0  0  0  0  0  0  0
    1.9622   -1.6541   -0.5907 C   0  0  0  0  0  0  0  0  0  0  0  0
    0.6288   -1.3333   -0.5904 C   0  0  0  0  0  0  0  0  0  0  0  0
    0.1830   -0.0219   -0.5981 C   0  0  0  0  0  0  0  0  0  0  0  0
    1.1192    0.9710   -0.6059 C   0  0  0  0  0  0  0  0  0  0  0  0
    2.4611    0.6529   -0.6061 C   0  0  0  0  0  0  0  0  0  0  0  0
    5.2483    0.1310   -0.6071 C   0  0  0  0  0  0  0  0  0  0  0  0
    6.6691   -0.2112   -0.5517 C   0  0  0  0  0  0  0  0  0  0  0  0
    6.3963   -3.4613   -0.0185 H   0  0  0  0  0  0  0  0  0  0  0  0
    6.4248   -2.9724   -1.7219 H   0  0  0  0  0  0  0  0  0  0  0  0
    4.1812   -2.8385   -1.4428 H   0  0  0  0  0  0  0  0  0  0  0  0
    4.2646   -2.7992    0.3295 H   0  0  0  0  0  0  0  0  0  0  0  0
    2.3317   -2.6775   -0.5848 H   0  0  0  0  0  0  0  0  0  0  0  0
   -0.0952   -2.1326   -0.5843 H   0  0  0  0  0  0  0  0  0  0  0  0
   -0.8706    0.2286   -0.5978 H   0  0  0  0  0  0  0  0  0  0  0  0
    0.7954    1.9981   -0.6118 H   0  0  0  0  0  0  0  0  0  0  0  0
    3.2039    1.4495   -0.6123 H   0  0  0  0  0  0  0  0  0  0  0  0
    4.9429    0.8081    0.2459 H   0  0  0  0  0  0  0  0  0  0  0  0
    5.0009    0.7461   -1.5237 H   0  0  0  0  0  0  0  0  0  0  0  0
    7.1596    0.3983    0.2663 H   0  0  0  0  0  0  0  0  0  0  0  0
    7.1795    0.1684   -1.4880 H   0  0  0  0  0  0  0  0  0  0  0  0
  1  2  1  0
  2  3  1  0
  2 19  1  0
  3  4  1  0
  3  5  2  0
  5  6  1  0
  6  7  1  0
  6 19  1  0
  7  8  2  0
  7 18  1  0
  8  9  1  0
  9 10  2  0
 10 11  1  0
 11 12  1  0
 11 18  2  0
 12 13  2  0
 12 17  1  0
 13 14  1  0
 14 15  2  0
 15 16  1  0
 16 17  2  0
 19 20  2  0
  1 21  1  0
  1 22  1  0
  1 23  1  0
  4 24  1  0
  4 25  1  0
  5 26  1  0
  8 27  1  0
  9 28  1  0
 10 29  1  0
 13 30  1  0
 14 31  1  0
 15 32  1  0
 17 33  1  0
 18 34  1  0
 35 36  1  0
 36 37  1  0
 37 38  1  0
 38 39  1  0
 39 40  2  0
 40 41  1  0
 41 42  2  0
 42 43  1  0
 43 44  2  0
 38 45  1  0
 45 46  1  0
 46 35  1  0
 44 39  1  0
 36 47  1  0
 36 48  1  0
 37 49  1  0
 37 50  1  0
 40 51  1  0
 41 52  1  0
 42 53  1  0
 43 54  1  0
 44 55  1  0
 45 56  1  0
 45 57  1  0
 46 58  1  0
 46 59  1  0
  6 35  1  6
M  CHG  1   5   1
M  END
>  <attachment_point>  (291) 
26

>  <score>  (291) 
<NA>

$$$$
CAT-4j
     RDKit          3D

 48 50  0  0  1  0  0  0  0  0999 V2000
   11.7106   -2.3098    1.2658 C   0  0  0  0  0  0  0  0  0  0  0  0
   13.0313   -2.6523    0.7225 N   0  0  0  0  0  0  0  0  0  0  0  0
   14.2010   -2.6281    1.3773 C   0  0  0  0  0  0  0  0  0  0  0  0
   14.3777   -2.3568    2.6732 N   0  0  0  0  0  0  0  0  0  0  0  0
   15.2217   -2.9197    0.5738 N   0  0  0  0  0  0  0  0  0  0  0  0
   14.7965   -3.2519   -0.7875 C   0  0  1  0  0  0  0  0  0  0  0  0
   15.3794   -2.2443   -1.7949 C   0  0  0  0  0  0  0  0  0  0  0  0
   15.9522   -2.6550   -3.0208 C   0  0  0  0  0  0  0  0  0  0  0  0
   16.4340   -1.6937   -3.9273 C   0  0  0  0  0  0  0  0  0  0  0  0
   16.3364   -0.3224   -3.6308 C   0  0  0  0  0  0  0  0  0  0  0  0
   15.7943    0.1250   -2.4073 C   0  0  0  0  0  0  0  0  0  0  0  0
   15.6711    1.5693   -2.0915 C   0  0  0  0  0  0  0  0  0  0  0  0
   15.3832    2.0354   -0.7903 C   0  0  0  0  0  0  0  0  0  0  0  0
   15.3534    3.4188   -0.5357 C   0  0  0  0  0  0  0  0  0  0  0  0
   15.5968    4.3049   -1.5946 C   0  0  0  0  0  0  0  0  0  0  0  0
   15.8275    3.8920   -2.8511 N   0  0  0  0  0  0  0  0  0  0  0  0
   15.8598    2.5642   -3.0762 C   0  0  0  0  0  0  0  0  0  0  0  0
   15.3327   -0.8573   -1.5012 C   0  0  0  0  0  0  0  0  0  0  0  0
   13.2767   -3.0094   -0.6368 C   0  0  0  0  0  0  0  0  0  0  0  0
   12.3981   -3.0674   -1.5055 O   0  0  0  0  0  0  0  0  0  0  0  0
    0.0000    0.0000    0.0000 H   0  0  0  0  0  0  0  0  0  0  0  0
    0.0000    0.0000    0.0000 H   0  0  0  0  0  0  0  0  0  0  0  0
    0.0000    0.0000    0.0000 H   0  0  0  0  0  0  0  0  0  0  0  0
    0.0000    0.0000    0.0000 H   0  0  0  0  0  0  0  0  0  0  0  0
    0.0000    0.0000    0.0000 H   0  0  0  0  0  0  0  0  0  0  0  0
    0.0000    0.0000    0.0000 H   0  0  0  0  0  0  0  0  0  0  0  0
    0.0000    0.0000    0.0000 H   0  0  0  0  0  0  0  0  0  0  0  0
    0.0000    0.0000    0.0000 H   0  0  0  0  0  0  0  0  0  0  0  0
    0.0000    0.0000    0.0000 H   0  0  0  0  0  0  0  0  0  0  0  0
    0.0000    0.0000    0.0000 H   0  0  0  0  0  0  0  0  0  0  0  0
    0.0000    0.0000    0.0000 H   0  0  0  0  0  0  0  0  0  0  0  0
    0.0000    0.0000    0.0000 H   0  0  0  0  0  0  0  0  0  0  0  0
    0.0000    0.0000    0.0000 H   0  0  0  0  0  0  0  0  0  0  0  0
    0.0000    0.0000    0.0000 H   0  0  0  0  0  0  0  0  0  0  0  0
    6.9727   -1.5324   -0.3711 C   0  0  0  0  0  0  0  0  0  0  0  0
    6.6735   -0.5259   -1.4221 C   0  0  0  0  0  0  0  0  0  0  0  0
    6.6079   -1.0487    1.0159 C   0  0  0  0  0  0  0  0  0  0  0  0
    6.2584   -2.8464   -0.5859 C   0  0  0  0  0  0  0  0  0  0  0  0
    6.5870   -3.3921   -1.8457 O   0  0  0  0  0  0  0  0  0  0  0  0
    7.6031    0.0741   -1.6395 H   0  0  0  0  0  0  0  0  0  0  0  0
    6.3580   -0.9698   -2.3697 H   0  0  0  0  0  0  0  0  0  0  0  0
    5.9274    0.2193   -1.0262 H   0  0  0  0  0  0  0  0  0  0  0  0
    5.5285   -1.2587    1.1923 H   0  0  0  0  0  0  0  0  0  0  0  0
    7.1624   -1.6712    1.7396 H   0  0  0  0  0  0  0  0  0  0  0  0
    6.7793    0.0350    1.1482 H   0  0  0  0  0  0  0  0  0  0  0  0
    5.1757   -2.7732   -0.5376 H   0  0  0  0  0  0  0  0  0  0  0  0
    6.5892   -3.6033    0.1533 H   0  0  0  0  0  0  0  0  0  0  0  0
    7.4605   -3.8374   -1.8214 H   0  0  0  0  0  0  0  0  0  0  0  0
  1  2  1  0
  2  3  1  0
  2 19  1  0
  3  4  1  0
  3  5  2  0
  5  6  1  0
  6  7  1  0
  6 19  1  0
  7  8  2  0
  7 18  1  0
  8  9  1  0
  9 10  2  0
 10 11  1  0
 11 12  1  0
 11 18  2  0
 12 13  2  0
 12 17  1  0
 13 14  1  0
 14 15  2  0
 15 16  1  0
 16 17  2  0
 19 20  2  0
  1 21  1  0
  1 22  1  0
  1 23  1  0
  4 24  1  0
  4 25  1  0
  5 26  1  0
  8 27  1  0
  9 28  1  0
 10 29  1  0
 13 30  1  0
 14 31  1  0
 15 32  1  0
 17 33  1  0
 18 34  1  0
 35 36  1  0
 35 37  1  0
 35 38  1  0
 38 39  1  0
 36 40  1  0
 36 41  1  0
 36 42  1  0
 37 43  1  0
 37 44  1  0
 37 45  1  0
 38 46  1  0
 38 47  1  0
 39 48  1  0
  6 35  1  6
M  CHG  1   5   1
M  END
>  <attachment_point>  (292) 
26

>  <score>  (292) 
<NA>

$$$$
CAT-4j
     RDKit          3D

 45 48  0  0  1  0  0  0  0  0999 V2000
   11.7106   -2.3098    1.2658 C   0  0  0  0  0  0  0  0  0  0  0  0
   13.0313   -2.6523    0.7225 N   0  0  0  0  0  0  0  0  0  0  0  0
   14.2010   -2.6281    1.3773 C   0  0  0  0  0  0  0  0  0  0  0  0
   14.3777   -2.3568    2.6732 N   0  0  0  0  0  0  0  0  0  0  0  0
   15.2217   -2.9197    0.5738 N   0  0  0  0  0  0  0  0  0  0  0  0
   14.7965   -3.2519   -0.7875 C   0  0  1  0  0  0  0  0  0  0  0  0
   15.3794   -2.2443   -1.7949 C   0  0  0  0  0  0  0  0  0  0  0  0
   15.9522   -2.6550   -3.0208 C   0  0  0  0  0  0  0  0  0  0  0  0
   16.4340   -1.6937   -3.9273 C   0  0  0  0  0  0  0  0  0  0  0  0
   16.3364   -0.3224   -3.6308 C   0  0  0  0  0  0  0  0  0  0  0  0
   15.7943    0.1250   -2.4073 C   0  0  0  0  0  0  0  0  0  0  0  0
   15.6711    1.5693   -2.0915 C   0  0  0  0  0  0  0  0  0  0  0  0
   15.3832    2.0354   -0.7903 C   0  0  0  0  0  0  0  0  0  0  0  0
   15.3534    3.4188   -0.5357 C   0  0  0  0  0  0  0  0  0  0  0  0
   15.5968    4.3049   -1.5946 C   0  0  0  0  0  0  0  0  0  0  0  0
   15.8275    3.8920   -2.8511 N   0  0  0  0  0  0  0  0  0  0  0  0
   15.8598    2.5642   -3.0762 C   0  0  0  0  0  0  0  0  0  0  0  0
   15.3327   -0.8573   -1.5012 C   0  0  0  0  0  0  0  0  0  0  0  0
   13.2767   -3.0094   -0.6368 C   0  0  0  0  0  0  0  0  0  0  0  0
   12.3981   -3.0674   -1.5055 O   0  0  0  0  0  0  0  0  0  0  0  0
    0.0000    0.0000    0.0000 H   0  0  0  0  0  0  0  0  0  0  0  0
    0.0000    0.0000    0.0000 H   0  0  0  0  0  0  0  0  0  0  0  0
    0.0000    0.0000    0.0000 H   0  0  0  0  0  0  0  0  0  0  0  0
    0.0000    0.0000    0.0000 H   0  0  0  0  0  0  0  0  0  0  0  0
    0.0000    0.0000    0.0000 H   0  0  0  0  0  0  0  0  0  0  0  0
    0.0000    0.0000    0.0000 H   0  0  0  0  0  0  0  0  0  0  0  0
    0.0000    0.0000    0.0000 H   0  0  0  0  0  0  0  0  0  0  0  0
    0.0000    0.0000    0.0000 H   0  0  0  0  0  0  0  0  0  0  0  0
    0.0000    0.0000    0.0000 H   0  0  0  0  0  0  0  0  0  0  0  0
    0.0000    0.0000    0.0000 H   0  0  0  0  0  0  0  0  0  0  0  0
    0.0000    0.0000    0.0000 H   0  0  0  0  0  0  0  0  0  0  0  0
    0.0000    0.0000    0.0000 H   0  0  0  0  0  0  0  0  0  0  0  0
    0.0000    0.0000    0.0000 H   0  0  0  0  0  0  0  0  0  0  0  0
    0.0000    0.0000    0.0000 H   0  0  0  0  0  0  0  0  0  0  0  0
    6.9770   -1.5334   -0.3713 C   0  0  0  0  0  0  0  0  0  0  0  0
    6.5507   -0.2178   -0.2588 C   0  0  0  0  0  0  0  0  0  0  0  0
    5.2018    0.0654   -0.1878 C   0  0  0  0  0  0  0  0  0  0  0  0
    4.2964   -0.9757   -0.2307 C   0  0  0  0  0  0  0  0  0  0  0  0
    2.5805   -0.6986   -0.1466 Cl  0  0  0  0  0  0  0  0  0  0  0  0
    4.7379   -2.2803   -0.3431 C   0  0  0  0  0  0  0  0  0  0  0  0
    6.0782   -2.5824   -0.4150 C   0  0  0  0  0  0  0  0  0  0  0  0
    6.6345   -4.2437   -0.5578 Cl  0  0  0  0  0  0  0  0  0  0  0  0
    7.2849    0.5601   -0.2288 H   0  0  0  0  0  0  0  0  0  0  0  0
    4.8607    1.0688   -0.1014 H   0  0  0  0  0  0  0  0  0  0  0  0
    4.0561   -3.1333   -0.3804 H   0  0  0  0  0  0  0  0  0  0  0  0
  1  2  1  0
  2  3  1  0
  2 19  1  0
  3  4  1  0
  3  5  2  0
  5  6  1  0
  6  7  1  1
  6 19  1  0
  7  8  2  0
  7 18  1  0
  8  9  1  0
  9 10  2  0
 10 11  1  0
 11 12  1  0
 11 18  2  0
 12 13  2  0
 12 17  1  0
 13 14  1  0
 14 15  2  0
 15 16  1  0
 16 17  2  0
 19 20  2  0
  1 21  1  0
  1 22  1  0
  1 23  1  0
  4 24  1  0
  4 25  1  0
  5 26  1  0
  8 27  1  0
  9 28  1  0
 10 29  1  0
 13 30  1  0
 14 31  1  0
 15 32  1  0
 17 33  1  0
 18 34  1  0
 35 36  2  0
 36 37  1  0
 37 38  2  0
 38 39  1  0
 38 40  1  0
 40 41  2  0
 41 42  1  0
 41 35  1  0
 36 43  1  0
 37 44  1  0
 40 45  1  0
  6 35  1  0
M  CHG  1   5   1
M  END
>  <attachment_point>  (293) 
26

>  <score>  (293) 
<NA>

$$$$
CAT-4j
     RDKit          3D

 46 48  0  0  1  0  0  0  0  0999 V2000
   11.7106   -2.3098    1.2658 C   0  0  0  0  0  0  0  0  0  0  0  0
   13.0313   -2.6523    0.7225 N   0  0  0  0  0  0  0  0  0  0  0  0
   14.2010   -2.6281    1.3773 C   0  0  0  0  0  0  0  0  0  0  0  0
   14.3777   -2.3568    2.6732 N   0  0  0  0  0  0  0  0  0  0  0  0
   15.2217   -2.9197    0.5738 N   0  0  0  0  0  0  0  0  0  0  0  0
   14.7965   -3.2519   -0.7875 C   0  0  1  0  0  0  0  0  0  0  0  0
   15.3794   -2.2443   -1.7949 C   0  0  0  0  0  0  0  0  0  0  0  0
   15.9522   -2.6550   -3.0208 C   0  0  0  0  0  0  0  0  0  0  0  0
   16.4340   -1.6937   -3.9273 C   0  0  0  0  0  0  0  0  0  0  0  0
   16.3364   -0.3224   -3.6308 C   0  0  0  0  0  0  0  0  0  0  0  0
   15.7943    0.1250   -2.4073 C   0  0  0  0  0  0  0  0  0  0  0  0
   15.6711    1.5693   -2.0915 C   0  0  0  0  0  0  0  0  0  0  0  0
   15.3832    2.0354   -0.7903 C   0  0  0  0  0  0  0  0  0  0  0  0
   15.3534    3.4188   -0.5357 C   0  0  0  0  0  0  0  0  0  0  0  0
   15.5968    4.3049   -1.5946 C   0  0  0  0  0  0  0  0  0  0  0  0
   15.8275    3.8920   -2.8511 N   0  0  0  0  0  0  0  0  0  0  0  0
   15.8598    2.5642   -3.0762 C   0  0  0  0  0  0  0  0  0  0  0  0
   15.3327   -0.8573   -1.5012 C   0  0  0  0  0  0  0  0  0  0  0  0
   13.2767   -3.0094   -0.6368 C   0  0  0  0  0  0  0  0  0  0  0  0
   12.3981   -3.0674   -1.5055 O   0  0  0  0  0  0  0  0  0  0  0  0
    0.0000    0.0000    0.0000 H   0  0  0  0  0  0  0  0  0  0  0  0
    0.0000    0.0000    0.0000 H   0  0  0  0  0  0  0  0  0  0  0  0
    0.0000    0.0000    0.0000 H   0  0  0  0  0  0  0  0  0  0  0  0
    0.0000    0.0000    0.0000 H   0  0  0  0  0  0  0  0  0  0  0  0
    0.0000    0.0000    0.0000 H   0  0  0  0  0  0  0  0  0  0  0  0
    0.0000    0.0000    0.0000 H   0  0  0  0  0  0  0  0  0  0  0  0
    0.0000    0.0000    0.0000 H   0  0  0  0  0  0  0  0  0  0  0  0
    0.0000    0.0000    0.0000 H   0  0  0  0  0  0  0  0  0  0  0  0
    0.0000    0.0000    0.0000 H   0  0  0  0  0  0  0  0  0  0  0  0
    0.0000    0.0000    0.0000 H   0  0  0  0  0  0  0  0  0  0  0  0
    0.0000    0.0000    0.0000 H   0  0  0  0  0  0  0  0  0  0  0  0
    0.0000    0.0000    0.0000 H   0  0  0  0  0  0  0  0  0  0  0  0
    0.0000    0.0000    0.0000 H   0  0  0  0  0  0  0  0  0  0  0  0
    0.0000    0.0000    0.0000 H   0  0  0  0  0  0  0  0  0  0  0  0
    6.9841   -1.5349   -0.3717 C   0  0  0  0  0  0  0  0  0  0  0  0
    6.1353   -2.7448   -0.0486 C   0  0  0  0  0  0  0  0  0  0  0  0
    6.2281   -3.7926   -1.0117 N   0  0  0  0  0  0  0  0  0  0  0  0
    7.4660   -4.4855   -1.0982 C   0  0  0  0  0  0  0  0  0  0  0  0
    6.6365   -1.0345   -1.3199 H   0  0  0  0  0  0  0  0  0  0  0  0
    6.8435   -0.8004    0.4436 H   0  0  0  0  0  0  0  0  0  0  0  0
    5.0747   -2.4157    0.0522 H   0  0  0  0  0  0  0  0  0  0  0  0
    6.4697   -3.0850    0.9610 H   0  0  0  0  0  0  0  0  0  0  0  0
    5.4662   -4.4827   -0.8296 H   0  0  0  0  0  0  0  0  0  0  0  0
    7.6800   -4.6175   -2.2069 H   0  0  0  0  0  0  0  0  0  0  0  0
    7.3903   -5.5473   -0.7243 H   0  0  0  0  0  0  0  0  0  0  0  0
    8.3226   -4.0359   -0.5990 H   0  0  0  0  0  0  0  0  0  0  0  0
  1  2  1  0
  2  3  1  0
  2 19  1  0
  3  4  1  0
  3  5  2  0
  5  6  1  0
  6  7  1  0
  6 19  1  0
  7  8  2  0
  7 18  1  0
  8  9  1  0
  9 10  2  0
 10 11  1  0
 11 12  1  0
 11 18  2  0
 12 13  2  0
 12 17  1  0
 13 14  1  0
 14 15  2  0
 15 16  1  0
 16 17  2  0
 19 20  2  0
  1 21  1  0
  1 22  1  0
  1 23  1  0
  4 24  1  0
  4 25  1  0
  5 26  1  0
  8 27  1  0
  9 28  1  0
 10 29  1  0
 13 30  1  0
 14 31  1  0
 15 32  1  0
 17 33  1  0
 18 34  1  0
 35 36  1  0
 36 37  1  0
 37 38  1  0
 35 39  1  0
 35 40  1  0
 36 41  1  0
 36 42  1  0
 37 43  1  0
 38 44  1  0
 38 45  1  0
 38 46  1  0
  6 35  1  6
M  CHG  1   5   1
M  END
>  <attachment_point>  (294) 
26

>  <score>  (294) 
<NA>

$$$$
CAT-4j
     RDKit          3D

 50 52  0  0  1  0  0  0  0  0999 V2000
   11.7106   -2.3098    1.2658 C   0  0  0  0  0  0  0  0  0  0  0  0
   13.0313   -2.6523    0.7225 N   0  0  0  0  0  0  0  0  0  0  0  0
   14.2010   -2.6281    1.3773 C   0  0  0  0  0  0  0  0  0  0  0  0
   14.3777   -2.3568    2.6732 N   0  0  0  0  0  0  0  0  0  0  0  0
   15.2217   -2.9197    0.5738 N   0  0  0  0  0  0  0  0  0  0  0  0
   14.7965   -3.2519   -0.7875 C   0  0  1  0  0  0  0  0  0  0  0  0
   15.3794   -2.2443   -1.7949 C   0  0  0  0  0  0  0  0  0  0  0  0
   15.9522   -2.6550   -3.0208 C   0  0  0  0  0  0  0  0  0  0  0  0
   16.4340   -1.6937   -3.9273 C   0  0  0  0  0  0  0  0  0  0  0  0
   16.3364   -0.3224   -3.6308 C   0  0  0  0  0  0  0  0  0  0  0  0
   15.7943    0.1250   -2.4073 C   0  0  0  0  0  0  0  0  0  0  0  0
   15.6711    1.5693   -2.0915 C   0  0  0  0  0  0  0  0  0  0  0  0
   15.3832    2.0354   -0.7903 C   0  0  0  0  0  0  0  0  0  0  0  0
   15.3534    3.4188   -0.5357 C   0  0  0  0  0  0  0  0  0  0  0  0
   15.5968    4.3049   -1.5946 C   0  0  0  0  0  0  0  0  0  0  0  0
   15.8275    3.8920   -2.8511 N   0  0  0  0  0  0  0  0  0  0  0  0
   15.8598    2.5642   -3.0762 C   0  0  0  0  0  0  0  0  0  0  0  0
   15.3327   -0.8573   -1.5012 C   0  0  0  0  0  0  0  0  0  0  0  0
   13.2767   -3.0094   -0.6368 C   0  0  0  0  0  0  0  0  0  0  0  0
   12.3981   -3.0674   -1.5055 O   0  0  0  0  0  0  0  0  0  0  0  0
    0.0000    0.0000    0.0000 H   0  0  0  0  0  0  0  0  0  0  0  0
    0.0000    0.0000    0.0000 H   0  0  0  0  0  0  0  0  0  0  0  0
    0.0000    0.0000    0.0000 H   0  0  0  0  0  0  0  0  0  0  0  0
    0.0000    0.0000    0.0000 H   0  0  0  0  0  0  0  0  0  0  0  0
    0.0000    0.0000    0.0000 H   0  0  0  0  0  0  0  0  0  0  0  0
    0.0000    0.0000    0.0000 H   0  0  0  0  0  0  0  0  0  0  0  0
    0.0000    0.0000    0.0000 H   0  0  0  0  0  0  0  0  0  0  0  0
    0.0000    0.0000    0.0000 H   0  0  0  0  0  0  0  0  0  0  0  0
    0.0000    0.0000    0.0000 H   0  0  0  0  0  0  0  0  0  0  0  0
    0.0000    0.0000    0.0000 H   0  0  0  0  0  0  0  0  0  0  0  0
    0.0000    0.0000    0.0000 H   0  0  0  0  0  0  0  0  0  0  0  0
    0.0000    0.0000    0.0000 H   0  0  0  0  0  0  0  0  0  0  0  0
    0.0000    0.0000    0.0000 H   0  0  0  0  0  0  0  0  0  0  0  0
    0.0000    0.0000    0.0000 H   0  0  0  0  0  0  0  0  0  0  0  0
    6.9765   -1.5333   -0.3713 C   0  0  0  0  0  0  0  0  0  0  0  0
    6.0690   -2.3948   -0.3846 O   0  0  0  0  0  0  0  0  0  0  0  0
    6.5868   -0.2019   -0.2784 O   0  0  0  0  0  0  0  0  0  0  0  0
    5.2361    0.1391   -0.2040 C   0  0  0  0  0  0  0  0  0  0  0  0
    4.5364   -0.4527    0.9888 C   0  0  0  0  0  0  0  0  0  0  0  0
    4.4474   -0.2377   -1.4371 C   0  0  0  0  0  0  0  0  0  0  0  0
    5.1714    1.6661   -0.0740 C   0  0  0  0  0  0  0  0  0  0  0  0
    4.1517   -1.4695    0.7242 H   0  0  0  0  0  0  0  0  0  0  0  0
    3.6163    0.1699    1.1591 H   0  0  0  0  0  0  0  0  0  0  0  0
    5.1646   -0.4638    1.9040 H   0  0  0  0  0  0  0  0  0  0  0  0
    3.8185   -1.1472   -1.2436 H   0  0  0  0  0  0  0  0  0  0  0  0
    3.7243    0.5892   -1.6883 H   0  0  0  0  0  0  0  0  0  0  0  0
    5.1295   -0.4137   -2.2979 H   0  0  0  0  0  0  0  0  0  0  0  0
    4.4355    1.9863    0.6680 H   0  0  0  0  0  0  0  0  0  0  0  0
    4.9154    2.1441   -1.0360 H   0  0  0  0  0  0  0  0  0  0  0  0
    6.1550    2.0800    0.2484 H   0  0  0  0  0  0  0  0  0  0  0  0
  1  2  1  0
  2  3  1  0
  2 19  1  0
  3  4  1  0
  3  5  2  0
  5  6  1  0
  6  7  1  0
  6 19  1  0
  7  8  2  0
  7 18  1  0
  8  9  1  0
  9 10  2  0
 10 11  1  0
 11 12  1  0
 11 18  2  0
 12 13  2  0
 12 17  1  0
 13 14  1  0
 14 15  2  0
 15 16  1  0
 16 17  2  0
 19 20  2  0
  1 21  1  0
  1 22  1  0
  1 23  1  0
  4 24  1  0
  4 25  1  0
  5 26  1  0
  8 27  1  0
  9 28  1  0
 10 29  1  0
 13 30  1  0
 14 31  1  0
 15 32  1  0
 17 33  1  0
 18 34  1  0
 35 36  2  0
 35 37  1  0
 37 38  1  0
 38 39  1  0
 38 40  1  0
 38 41  1  0
 39 42  1  0
 39 43  1  0
 39 44  1  0
 40 45  1  0
 40 46  1  0
 40 47  1  0
 41 48  1  0
 41 49  1  0
 41 50  1  0
  6 35  1  6
M  CHG  1   5   1
M  END
>  <attachment_point>  (295) 
26

>  <score>  (295) 
<NA>

$$$$
CAT-4j
     RDKit          3D

 47 50  0  0  1  0  0  0  0  0999 V2000
   11.7106   -2.3098    1.2658 C   0  0  0  0  0  0  0  0  0  0  0  0
   13.0313   -2.6523    0.7225 N   0  0  0  0  0  0  0  0  0  0  0  0
   14.2010   -2.6281    1.3773 C   0  0  0  0  0  0  0  0  0  0  0  0
   14.3777   -2.3568    2.6732 N   0  0  0  0  0  0  0  0  0  0  0  0
   15.2217   -2.9197    0.5738 N   0  0  0  0  0  0  0  0  0  0  0  0
   14.7965   -3.2519   -0.7875 C   0  0  1  0  0  0  0  0  0  0  0  0
   15.3794   -2.2443   -1.7949 C   0  0  0  0  0  0  0  0  0  0  0  0
   15.9522   -2.6550   -3.0208 C   0  0  0  0  0  0  0  0  0  0  0  0
   16.4340   -1.6937   -3.9273 C   0  0  0  0  0  0  0  0  0  0  0  0
   16.3364   -0.3224   -3.6308 C   0  0  0  0  0  0  0  0  0  0  0  0
   15.7943    0.1250   -2.4073 C   0  0  0  0  0  0  0  0  0  0  0  0
   15.6711    1.5693   -2.0915 C   0  0  0  0  0  0  0  0  0  0  0  0
   15.3832    2.0354   -0.7903 C   0  0  0  0  0  0  0  0  0  0  0  0
   15.3534    3.4188   -0.5357 C   0  0  0  0  0  0  0  0  0  0  0  0
   15.5968    4.3049   -1.5946 C   0  0  0  0  0  0  0  0  0  0  0  0
   15.8275    3.8920   -2.8511 N   0  0  0  0  0  0  0  0  0  0  0  0
   15.8598    2.5642   -3.0762 C   0  0  0  0  0  0  0  0  0  0  0  0
   15.3327   -0.8573   -1.5012 C   0  0  0  0  0  0  0  0  0  0  0  0
   13.2767   -3.0094   -0.6368 C   0  0  0  0  0  0  0  0  0  0  0  0
   12.3981   -3.0674   -1.5055 O   0  0  0  0  0  0  0  0  0  0  0  0
    0.0000    0.0000    0.0000 H   0  0  0  0  0  0  0  0  0  0  0  0
    0.0000    0.0000    0.0000 H   0  0  0  0  0  0  0  0  0  0  0  0
    0.0000    0.0000    0.0000 H   0  0  0  0  0  0  0  0  0  0  0  0
    0.0000    0.0000    0.0000 H   0  0  0  0  0  0  0  0  0  0  0  0
    0.0000    0.0000    0.0000 H   0  0  0  0  0  0  0  0  0  0  0  0
    0.0000    0.0000    0.0000 H   0  0  0  0  0  0  0  0  0  0  0  0
    0.0000    0.0000    0.0000 H   0  0  0  0  0  0  0  0  0  0  0  0
    0.0000    0.0000    0.0000 H   0  0  0  0  0  0  0  0  0  0  0  0
    0.0000    0.0000    0.0000 H   0  0  0  0  0  0  0  0  0  0  0  0
    0.0000    0.0000    0.0000 H   0  0  0  0  0  0  0  0  0  0  0  0
    0.0000    0.0000    0.0000 H   0  0  0  0  0  0  0  0  0  0  0  0
    0.0000    0.0000    0.0000 H   0  0  0  0  0  0  0  0  0  0  0  0
    0.0000    0.0000    0.0000 H   0  0  0  0  0  0  0  0  0  0  0  0
    0.0000    0.0000    0.0000 H   0  0  0  0  0  0  0  0  0  0  0  0
    7.0243   -1.5438   -0.3738 C   0  0  1  0  0  0  0  0  0  0  0  0
    6.7030   -0.0711   -0.6661 C   0  0  0  0  0  0  0  0  0  0  0  0
    5.3127   -0.2450   -1.2732 C   0  0  0  0  0  0  0  0  0  0  0  0
    5.5948   -1.2895   -2.2561 N   0  0  0  0  0  0  0  0  0  0  0  0
    6.2028   -2.3023   -1.3983 C   0  0  0  0  0  0  0  0  0  0  0  0
    6.5823   -1.7379    0.6385 H   0  0  0  0  0  0  0  0  0  0  0  0
    7.3806    0.3389   -1.4369 H   0  0  0  0  0  0  0  0  0  0  0  0
    6.6590    0.5282    0.2525 H   0  0  0  0  0  0  0  0  0  0  0  0
    4.9126    0.6621   -1.7027 H   0  0  0  0  0  0  0  0  0  0  0  0
    4.6971   -0.7201   -0.4894 H   0  0  0  0  0  0  0  0  0  0  0  0
    4.6942   -1.6505   -2.6553 H   0  0  0  0  0  0  0  0  0  0  0  0
    5.3719   -2.8756   -0.9172 H   0  0  0  0  0  0  0  0  0  0  0  0
    6.8185   -3.0155   -1.9531 H   0  0  0  0  0  0  0  0  0  0  0  0
  1  2  1  0
  2  3  1  0
  2 19  1  0
  3  4  1  0
  3  5  2  0
  5  6  1  0
  6  7  1  1
  6 19  1  0
  7  8  2  0
  7 18  1  0
  8  9  1  0
  9 10  2  0
 10 11  1  0
 11 12  1  0
 11 18  2  0
 12 13  2  0
 12 17  1  0
 13 14  1  0
 14 15  2  0
 15 16  1  0
 16 17  2  0
 19 20  2  0
  1 21  1  0
  1 22  1  0
  1 23  1  0
  4 24  1  0
  4 25  1  0
  5 26  1  0
  8 27  1  0
  9 28  1  0
 10 29  1  0
 13 30  1  0
 14 31  1  0
 15 32  1  0
 17 33  1  0
 18 34  1  0
 35 36  1  0
 36 37  1  0
 37 38  1  0
 38 39  1  0
 39 35  1  0
 35 40  1  6
 36 41  1  0
 36 42  1  0
 37 43  1  0
 37 44  1  0
 38 45  1  0
 39 46  1  0
 39 47  1  0
  6 35  1  0
M  CHG  1   5   1
M  END
>  <attachment_point>  (296) 
26

>  <score>  (296) 
<NA>

$$$$
CAT-4j
     RDKit          3D

 44 47  0  0  1  0  0  0  0  0999 V2000
   11.7106   -2.3098    1.2658 C   0  0  0  0  0  0  0  0  0  0  0  0
   13.0313   -2.6523    0.7225 N   0  0  0  0  0  0  0  0  0  0  0  0
   14.2010   -2.6281    1.3773 C   0  0  0  0  0  0  0  0  0  0  0  0
   14.3777   -2.3568    2.6732 N   0  0  0  0  0  0  0  0  0  0  0  0
   15.2217   -2.9197    0.5738 N   0  0  0  0  0  0  0  0  0  0  0  0
   14.7965   -3.2519   -0.7875 C   0  0  1  0  0  0  0  0  0  0  0  0
   15.3794   -2.2443   -1.7949 C   0  0  0  0  0  0  0  0  0  0  0  0
   15.9522   -2.6550   -3.0208 C   0  0  0  0  0  0  0  0  0  0  0  0
   16.4340   -1.6937   -3.9273 C   0  0  0  0  0  0  0  0  0  0  0  0
   16.3364   -0.3224   -3.6308 C   0  0  0  0  0  0  0  0  0  0  0  0
   15.7943    0.1250   -2.4073 C   0  0  0  0  0  0  0  0  0  0  0  0
   15.6711    1.5693   -2.0915 C   0  0  0  0  0  0  0  0  0  0  0  0
   15.3832    2.0354   -0.7903 C   0  0  0  0  0  0  0  0  0  0  0  0
   15.3534    3.4188   -0.5357 C   0  0  0  0  0  0  0  0  0  0  0  0
   15.5968    4.3049   -1.5946 C   0  0  0  0  0  0  0  0  0  0  0  0
   15.8275    3.8920   -2.8511 N   0  0  0  0  0  0  0  0  0  0  0  0
   15.8598    2.5642   -3.0762 C   0  0  0  0  0  0  0  0  0  0  0  0
   15.3327   -0.8573   -1.5012 C   0  0  0  0  0  0  0  0  0  0  0  0
   13.2767   -3.0094   -0.6368 C   0  0  0  0  0  0  0  0  0  0  0  0
   12.3981   -3.0674   -1.5055 O   0  0  0  0  0  0  0  0  0  0  0  0
    0.0000    0.0000    0.0000 H   0  0  0  0  0  0  0  0  0  0  0  0
    0.0000    0.0000    0.0000 H   0  0  0  0  0  0  0  0  0  0  0  0
    0.0000    0.0000    0.0000 H   0  0  0  0  0  0  0  0  0  0  0  0
    0.0000    0.0000    0.0000 H   0  0  0  0  0  0  0  0  0  0  0  0
    0.0000    0.0000    0.0000 H   0  0  0  0  0  0  0  0  0  0  0  0
    0.0000    0.0000    0.0000 H   0  0  0  0  0  0  0  0  0  0  0  0
    0.0000    0.0000    0.0000 H   0  0  0  0  0  0  0  0  0  0  0  0
    0.0000    0.0000    0.0000 H   0  0  0  0  0  0  0  0  0  0  0  0
    0.0000    0.0000    0.0000 H   0  0  0  0  0  0  0  0  0  0  0  0
    0.0000    0.0000    0.0000 H   0  0  0  0  0  0  0  0  0  0  0  0
    0.0000    0.0000    0.0000 H   0  0  0  0  0  0  0  0  0  0  0  0
    0.0000    0.0000    0.0000 H   0  0  0  0  0  0  0  0  0  0  0  0
    0.0000    0.0000    0.0000 H   0  0  0  0  0  0  0  0  0  0  0  0
    0.0000    0.0000    0.0000 H   0  0  0  0  0  0  0  0  0  0  0  0
    6.9698   -1.5318   -0.3709 C   0  0  0  0  0  0  0  0  0  0  0  0
    6.6368   -0.3532   -0.1392 O   0  0  0  0  0  0  0  0  0  0  0  0
    5.9793   -2.5960   -0.5666 C   0  0  0  0  0  0  0  0  0  0  0  0
    6.1794   -3.9252   -0.8261 C   0  0  0  0  0  0  0  0  0  0  0  0
    5.1033   -4.6935   -0.9636 C   0  0  0  0  0  0  0  0  0  0  0  0
    3.8726   -4.1029   -0.8361 C   0  0  0  0  0  0  0  0  0  0  0  0
    4.2822   -2.4735   -0.5248 S   0  0  0  0  0  0  0  0  0  0  0  0
    7.2205   -4.3063   -0.9110 H   0  0  0  0  0  0  0  0  0  0  0  0
    5.1545   -5.7827   -1.1750 H   0  0  0  0  0  0  0  0  0  0  0  0
    2.8805   -4.5829   -0.9185 H   0  0  0  0  0  0  0  0  0  0  0  0
  1  2  1  0
  2  3  1  0
  2 19  1  0
  3  4  1  0
  3  5  2  0
  5  6  1  0
  6  7  1  0
  6 19  1  0
  7  8  2  0
  7 18  1  0
  8  9  1  0
  9 10  2  0
 10 11  1  0
 11 12  1  0
 11 18  2  0
 12 13  2  0
 12 17  1  0
 13 14  1  0
 14 15  2  0
 15 16  1  0
 16 17  2  0
 19 20  2  0
  1 21  1  0
  1 22  1  0
  1 23  1  0
  4 24  1  0
  4 25  1  0
  5 26  1  0
  8 27  1  0
  9 28  1  0
 10 29  1  0
 13 30  1  0
 14 31  1  0
 15 32  1  0
 17 33  1  0
 18 34  1  0
 35 36  2  0
 35 37  1  0
 37 38  2  0
 38 39  1  0
 39 40  2  0
 40 41  1  0
 41 37  1  0
 38 42  1  0
 39 43  1  0
 40 44  1  0
  6 35  1  6
M  CHG  1   5   1
M  END
>  <attachment_point>  (297) 
26

>  <score>  (297) 
<NA>

$$$$
CAT-4j
     RDKit          3D

 55 58  0  0  1  0  0  0  0  0999 V2000
   11.7106   -2.3098    1.2658 C   0  0  0  0  0  0  0  0  0  0  0  0
   13.0313   -2.6523    0.7225 N   0  0  0  0  0  0  0  0  0  0  0  0
   14.2010   -2.6281    1.3773 C   0  0  0  0  0  0  0  0  0  0  0  0
   14.3777   -2.3568    2.6732 N   0  0  0  0  0  0  0  0  0  0  0  0
   15.2217   -2.9197    0.5738 N   0  0  0  0  0  0  0  0  0  0  0  0
   14.7965   -3.2519   -0.7875 C   0  0  1  0  0  0  0  0  0  0  0  0
   15.3794   -2.2443   -1.7949 C   0  0  0  0  0  0  0  0  0  0  0  0
   15.9522   -2.6550   -3.0208 C   0  0  0  0  0  0  0  0  0  0  0  0
   16.4340   -1.6937   -3.9273 C   0  0  0  0  0  0  0  0  0  0  0  0
   16.3364   -0.3224   -3.6308 C   0  0  0  0  0  0  0  0  0  0  0  0
   15.7943    0.1250   -2.4073 C   0  0  0  0  0  0  0  0  0  0  0  0
   15.6711    1.5693   -2.0915 C   0  0  0  0  0  0  0  0  0  0  0  0
   15.3832    2.0354   -0.7903 C   0  0  0  0  0  0  0  0  0  0  0  0
   15.3534    3.4188   -0.5357 C   0  0  0  0  0  0  0  0  0  0  0  0
   15.5968    4.3049   -1.5946 C   0  0  0  0  0  0  0  0  0  0  0  0
   15.8275    3.8920   -2.8511 N   0  0  0  0  0  0  0  0  0  0  0  0
   15.8598    2.5642   -3.0762 C   0  0  0  0  0  0  0  0  0  0  0  0
   15.3327   -0.8573   -1.5012 C   0  0  0  0  0  0  0  0  0  0  0  0
   13.2767   -3.0094   -0.6368 C   0  0  0  0  0  0  0  0  0  0  0  0
   12.3981   -3.0674   -1.5055 O   0  0  0  0  0  0  0  0  0  0  0  0
    0.0000    0.0000    0.0000 H   0  0  0  0  0  0  0  0  0  0  0  0
    0.0000    0.0000    0.0000 H   0  0  0  0  0  0  0  0  0  0  0  0
    0.0000    0.0000    0.0000 H   0  0  0  0  0  0  0  0  0  0  0  0
    0.0000    0.0000    0.0000 H   0  0  0  0  0  0  0  0  0  0  0  0
    0.0000    0.0000    0.0000 H   0  0  0  0  0  0  0  0  0  0  0  0
    0.0000    0.0000    0.0000 H   0  0  0  0  0  0  0  0  0  0  0  0
    0.0000    0.0000    0.0000 H   0  0  0  0  0  0  0  0  0  0  0  0
    0.0000    0.0000    0.0000 H   0  0  0  0  0  0  0  0  0  0  0  0
    0.0000    0.0000    0.0000 H   0  0  0  0  0  0  0  0  0  0  0  0
    0.0000    0.0000    0.0000 H   0  0  0  0  0  0  0  0  0  0  0  0
    0.0000    0.0000    0.0000 H   0  0  0  0  0  0  0  0  0  0  0  0
    0.0000    0.0000    0.0000 H   0  0  0  0  0  0  0  0  0  0  0  0
    0.0000    0.0000    0.0000 H   0  0  0  0  0  0  0  0  0  0  0  0
    0.0000    0.0000    0.0000 H   0  0  0  0  0  0  0  0  0  0  0  0
    7.0373   -1.5466   -0.3745 N   0  0  0  0  0  0  0  0  0  0  0  0
    6.6798   -0.1953   -0.5712 C   0  0  0  0  0  0  0  0  0  0  0  0
    5.2336    0.0501   -0.8829 C   0  0  0  0  0  0  0  0  0  0  0  0
    5.0352   -0.2372   -2.3615 C   0  0  0  0  0  0  0  0  0  0  0  0
    4.7082   -1.6062   -2.5941 N   0  0  0  0  0  0  0  0  0  0  0  0
    4.4779   -1.7744   -4.0241 C   0  0  0  0  0  0  0  0  0  0  0  0
    5.7333   -2.5347   -2.2149 C   0  0  0  0  0  0  0  0  0  0  0  0
    6.0669   -2.5203   -0.7545 C   0  0  0  0  0  0  0  0  0  0  0  0
    7.2645    0.1913   -1.4571 H   0  0  0  0  0  0  0  0  0  0  0  0
    6.9947    0.4729    0.2717 H   0  0  0  0  0  0  0  0  0  0  0  0
    4.5317   -0.5576   -0.2986 H   0  0  0  0  0  0  0  0  0  0  0  0
    4.9769    1.1205   -0.6511 H   0  0  0  0  0  0  0  0  0  0  0  0
    4.1911    0.3862   -2.6968 H   0  0  0  0  0  0  0  0  0  0  0  0
    5.9394    0.1092   -2.9099 H   0  0  0  0  0  0  0  0  0  0  0  0
    5.1288   -2.5566   -4.4653 H   0  0  0  0  0  0  0  0  0  0  0  0
    4.7215   -0.8331   -4.5901 H   0  0  0  0  0  0  0  0  0  0  0  0
    3.4343   -2.0972   -4.2254 H   0  0  0  0  0  0  0  0  0  0  0  0
    6.6595   -2.4615   -2.7982 H   0  0  0  0  0  0  0  0  0  0  0  0
    5.3213   -3.5642   -2.4348 H   0  0  0  0  0  0  0  0  0  0  0  0
    5.1350   -2.4997   -0.1419 H   0  0  0  0  0  0  0  0  0  0  0  0
    6.5230   -3.5308   -0.5270 H   0  0  0  0  0  0  0  0  0  0  0  0
  1  2  1  0
  2  3  1  0
  2 19  1  0
  3  4  1  0
  3  5  2  0
  5  6  1  0
  6  7  1  0
  6 19  1  0
  7  8  2  0
  7 18  1  0
  8  9  1  0
  9 10  2  0
 10 11  1  0
 11 12  1  0
 11 18  2  0
 12 13  2  0
 12 17  1  0
 13 14  1  0
 14 15  2  0
 15 16  1  0
 16 17  2  0
 19 20  2  0
  1 21  1  0
  1 22  1  0
  1 23  1  0
  4 24  1  0
  4 25  1  0
  5 26  1  0
  8 27  1  0
  9 28  1  0
 10 29  1  0
 13 30  1  0
 14 31  1  0
 15 32  1  0
 17 33  1  0
 18 34  1  0
 35 36  1  0
 36 37  1  0
 37 38  1  0
 38 39  1  0
 39 40  1  0
 39 41  1  0
 41 42  1  0
 42 35  1  0
 36 43  1  0
 36 44  1  0
 37 45  1  0
 37 46  1  0
 38 47  1  0
 38 48  1  0
 40 49  1  0
 40 50  1  0
 40 51  1  0
 41 52  1  0
 41 53  1  0
 42 54  1  0
 42 55  1  0
  6 35  1  6
M  CHG  1   5   1
M  END
>  <attachment_point>  (298) 
26

>  <score>  (298) 
<NA>

$$$$
CAT-4j
     RDKit          3D

 52 55  0  0  1  0  0  0  0  0999 V2000
   11.7106   -2.3098    1.2658 C   0  0  0  0  0  0  0  0  0  0  0  0
   13.0313   -2.6523    0.7225 N   0  0  0  0  0  0  0  0  0  0  0  0
   14.2010   -2.6281    1.3773 C   0  0  0  0  0  0  0  0  0  0  0  0
   14.3777   -2.3568    2.6732 N   0  0  0  0  0  0  0  0  0  0  0  0
   15.2217   -2.9197    0.5738 N   0  0  0  0  0  0  0  0  0  0  0  0
   14.7965   -3.2519   -0.7875 C   0  0  1  0  0  0  0  0  0  0  0  0
   15.3794   -2.2443   -1.7949 C   0  0  0  0  0  0  0  0  0  0  0  0
   15.9522   -2.6550   -3.0208 C   0  0  0  0  0  0  0  0  0  0  0  0
   16.4340   -1.6937   -3.9273 C   0  0  0  0  0  0  0  0  0  0  0  0
   16.3364   -0.3224   -3.6308 C   0  0  0  0  0  0  0  0  0  0  0  0
   15.7943    0.1250   -2.4073 C   0  0  0  0  0  0  0  0  0  0  0  0
   15.6711    1.5693   -2.0915 C   0  0  0  0  0  0  0  0  0  0  0  0
   15.3832    2.0354   -0.7903 C   0  0  0  0  0  0  0  0  0  0  0  0
   15.3534    3.4188   -0.5357 C   0  0  0  0  0  0  0  0  0  0  0  0
   15.5968    4.3049   -1.5946 C   0  0  0  0  0  0  0  0  0  0  0  0
   15.8275    3.8920   -2.8511 N   0  0  0  0  0  0  0  0  0  0  0  0
   15.8598    2.5642   -3.0762 C   0  0  0  0  0  0  0  0  0  0  0  0
   15.3327   -0.8573   -1.5012 C   0  0  0  0  0  0  0  0  0  0  0  0
   13.2767   -3.0094   -0.6368 C   0  0  0  0  0  0  0  0  0  0  0  0
   12.3981   -3.0674   -1.5055 O   0  0  0  0  0  0  0  0  0  0  0  0
    0.0000    0.0000    0.0000 H   0  0  0  0  0  0  0  0  0  0  0  0
    0.0000    0.0000    0.0000 H   0  0  0  0  0  0  0  0  0  0  0  0
    0.0000    0.0000    0.0000 H   0  0  0  0  0  0  0  0  0  0  0  0
    0.0000    0.0000    0.0000 H   0  0  0  0  0  0  0  0  0  0  0  0
    0.0000    0.0000    0.0000 H   0  0  0  0  0  0  0  0  0  0  0  0
    0.0000    0.0000    0.0000 H   0  0  0  0  0  0  0  0  0  0  0  0
    0.0000    0.0000    0.0000 H   0  0  0  0  0  0  0  0  0  0  0  0
    0.0000    0.0000    0.0000 H   0  0  0  0  0  0  0  0  0  0  0  0
    0.0000    0.0000    0.0000 H   0  0  0  0  0  0  0  0  0  0  0  0
    0.0000    0.0000    0.0000 H   0  0  0  0  0  0  0  0  0  0  0  0
    0.0000    0.0000    0.0000 H   0  0  0  0  0  0  0  0  0  0  0  0
    0.0000    0.0000    0.0000 H   0  0  0  0  0  0  0  0  0  0  0  0
    0.0000    0.0000    0.0000 H   0  0  0  0  0  0  0  0  0  0  0  0
    0.0000    0.0000    0.0000 H   0  0  0  0  0  0  0  0  0  0  0  0
    6.9699   -1.5318   -0.3710 C   0  0  0  0  0  0  0  0  0  0  0  0
    6.1427   -2.0586    0.5918 C   0  0  0  0  0  0  0  0  0  0  0  0
    4.8101   -1.7417    0.6315 C   0  0  0  0  0  0  0  0  0  0  0  0
    4.2293   -0.8591   -0.3163 C   0  0  0  0  0  0  0  0  0  0  0  0
    2.8701   -0.5882   -0.2080 N   0  0  0  0  0  0  0  0  0  0  0  0
    2.0870    0.2364   -1.0124 C   0  0  0  0  0  0  0  0  0  0  0  0
    0.6192    0.4422   -0.7827 C   0  0  0  0  0  0  0  0  0  0  0  0
    2.5902    0.8420   -1.9677 O   0  0  0  0  0  0  0  0  0  0  0  0
    5.0457   -0.3323   -1.2754 C   0  0  0  0  0  0  0  0  0  0  0  0
    6.4048   -0.6836   -1.2795 C   0  0  0  0  0  0  0  0  0  0  0  0
    6.5869   -2.7263    1.3073 H   0  0  0  0  0  0  0  0  0  0  0  0
    4.1801   -2.1773    1.4093 H   0  0  0  0  0  0  0  0  0  0  0  0
    2.3260   -1.0624    0.5910 H   0  0  0  0  0  0  0  0  0  0  0  0
    0.0225   -0.0735   -1.5570 H   0  0  0  0  0  0  0  0  0  0  0  0
    0.3211    0.1384    0.2192 H   0  0  0  0  0  0  0  0  0  0  0  0
    0.4365    1.5320   -0.8826 H   0  0  0  0  0  0  0  0  0  0  0  0
    4.6636    0.3378   -2.0150 H   0  0  0  0  0  0  0  0  0  0  0  0
    6.9996   -0.2416   -2.0538 H   0  0  0  0  0  0  0  0  0  0  0  0
  1  2  1  0
  2  3  1  0
  2 19  1  0
  3  4  1  0
  3  5  2  0
  5  6  1  0
  6  7  1  1
  6 19  1  0
  7  8  2  0
  7 18  1  0
  8  9  1  0
  9 10  2  0
 10 11  1  0
 11 12  1  0
 11 18  2  0
 12 13  2  0
 12 17  1  0
 13 14  1  0
 14 15  2  0
 15 16  1  0
 16 17  2  0
 19 20  2  0
  1 21  1  0
  1 22  1  0
  1 23  1  0
  4 24  1  0
  4 25  1  0
  5 26  1  0
  8 27  1  0
  9 28  1  0
 10 29  1  0
 13 30  1  0
 14 31  1  0
 15 32  1  0
 17 33  1  0
 18 34  1  0
 35 36  2  0
 36 37  1  0
 37 38  2  0
 38 39  1  0
 39 40  1  0
 40 41  1  0
 40 42  2  0
 38 43  1  0
 43 44  2  0
 44 35  1  0
 36 45  1  0
 37 46  1  0
 39 47  1  0
 41 48  1  0
 41 49  1  0
 41 50  1  0
 43 51  1  0
 44 52  1  0
  6 35  1  0
M  CHG  1   5   1
M  END
>  <attachment_point>  (299) 
26

>  <score>  (299) 
<NA>

$$$$
CAT-4j
     RDKit          3D

 52 55  0  0  1  0  0  0  0  0999 V2000
   11.7106   -2.3098    1.2658 C   0  0  0  0  0  0  0  0  0  0  0  0
   13.0313   -2.6523    0.7225 N   0  0  0  0  0  0  0  0  0  0  0  0
   14.2010   -2.6281    1.3773 C   0  0  0  0  0  0  0  0  0  0  0  0
   14.3777   -2.3568    2.6732 N   0  0  0  0  0  0  0  0  0  0  0  0
   15.2217   -2.9197    0.5738 N   0  0  0  0  0  0  0  0  0  0  0  0
   14.7965   -3.2519   -0.7875 C   0  0  1  0  0  0  0  0  0  0  0  0
   15.3794   -2.2443   -1.7949 C   0  0  0  0  0  0  0  0  0  0  0  0
   15.9522   -2.6550   -3.0208 C   0  0  0  0  0  0  0  0  0  0  0  0
   16.4340   -1.6937   -3.9273 C   0  0  0  0  0  0  0  0  0  0  0  0
   16.3364   -0.3224   -3.6308 C   0  0  0  0  0  0  0  0  0  0  0  0
   15.7943    0.1250   -2.4073 C   0  0  0  0  0  0  0  0  0  0  0  0
   15.6711    1.5693   -2.0915 C   0  0  0  0  0  0  0  0  0  0  0  0
   15.3832    2.0354   -0.7903 C   0  0  0  0  0  0  0  0  0  0  0  0
   15.3534    3.4188   -0.5357 C   0  0  0  0  0  0  0  0  0  0  0  0
   15.5968    4.3049   -1.5946 C   0  0  0  0  0  0  0  0  0  0  0  0
   15.8275    3.8920   -2.8511 N   0  0  0  0  0  0  0  0  0  0  0  0
   15.8598    2.5642   -3.0762 C   0  0  0  0  0  0  0  0  0  0  0  0
   15.3327   -0.8573   -1.5012 C   0  0  0  0  0  0  0  0  0  0  0  0
   13.2767   -3.0094   -0.6368 C   0  0  0  0  0  0  0  0  0  0  0  0
   12.3981   -3.0674   -1.5055 O   0  0  0  0  0  0  0  0  0  0  0  0
    0.0000    0.0000    0.0000 H   0  0  0  0  0  0  0  0  0  0  0  0
    0.0000    0.0000    0.0000 H   0  0  0  0  0  0  0  0  0  0  0  0
    0.0000    0.0000    0.0000 H   0  0  0  0  0  0  0  0  0  0  0  0
    0.0000    0.0000    0.0000 H   0  0  0  0  0  0  0  0  0  0  0  0
    0.0000    0.0000    0.0000 H   0  0  0  0  0  0  0  0  0  0  0  0
    0.0000    0.0000    0.0000 H   0  0  0  0  0  0  0  0  0  0  0  0
    0.0000    0.0000    0.0000 H   0  0  0  0  0  0  0  0  0  0  0  0
    0.0000    0.0000    0.0000 H   0  0  0  0  0  0  0  0  0  0  0  0
    0.0000    0.0000    0.0000 H   0  0  0  0  0  0  0  0  0  0  0  0
    0.0000    0.0000    0.0000 H   0  0  0  0  0  0  0  0  0  0  0  0
    0.0000    0.0000    0.0000 H   0  0  0  0  0  0  0  0  0  0  0  0
    0.0000    0.0000    0.0000 H   0  0  0  0  0  0  0  0  0  0  0  0
    0.0000    0.0000    0.0000 H   0  0  0  0  0  0  0  0  0  0  0  0
    0.0000    0.0000    0.0000 H   0  0  0  0  0  0  0  0  0  0  0  0
    6.9503   -1.5275   -0.3699 C   0  0  0  0  0  0  0  0  0  0  0  0
    6.6633   -1.2296    1.0713 C   0  0  0  0  0  0  0  0  0  0  0  0
    6.0260   -2.1517    1.8693 C   0  0  0  0  0  0  0  0  0  0  0  0
    5.7440   -1.9099    3.2137 C   0  0  0  0  0  0  0  0  0  0  0  0
    6.1312   -0.6972    3.7282 C   0  0  0  0  0  0  0  0  0  0  0  0
    6.7675    0.2292    2.9392 C   0  0  0  0  0  0  0  0  0  0  0  0
    7.0493   -0.0149    1.5906 C   0  0  0  0  0  0  0  0  0  0  0  0
    7.6947    0.9314    0.7964 O   0  0  0  0  0  0  0  0  0  0  0  0
    8.0594    2.1704    1.4183 C   0  0  0  0  0  0  0  0  0  0  0  0
    6.4083   -2.4403   -0.6916 H   0  0  0  0  0  0  0  0  0  0  0  0
    6.7400   -0.6457   -1.0099 H   0  0  0  0  0  0  0  0  0  0  0  0
    5.7189   -3.1064    1.4835 H   0  0  0  0  0  0  0  0  0  0  0  0
    5.2328   -2.6660    3.8187 H   0  0  0  0  0  0  0  0  0  0  0  0
    5.9231   -0.4899    4.7598 H   0  0  0  0  0  0  0  0  0  0  0  0
    7.0769    1.1926    3.3275 H   0  0  0  0  0  0  0  0  0  0  0  0
    8.6812    1.9271    2.3134 H   0  0  0  0  0  0  0  0  0  0  0  0
    7.1524    2.6809    1.7993 H   0  0  0  0  0  0  0  0  0  0  0  0
    8.6808    2.7941    0.7470 H   0  0  0  0  0  0  0  0  0  0  0  0
  1  2  1  0
  2  3  1  0
  2 19  1  0
  3  4  1  0
  3  5  2  0
  5  6  1  0
  6  7  1  0
  6 19  1  0
  7  8  2  0
  7 18  1  0
  8  9  1  0
  9 10  2  0
 10 11  1  0
 11 12  1  0
 11 18  2  0
 12 13  2  0
 12 17  1  0
 13 14  1  0
 14 15  2  0
 15 16  1  0
 16 17  2  0
 19 20  2  0
  1 21  1  0
  1 22  1  0
  1 23  1  0
  4 24  1  0
  4 25  1  0
  5 26  1  0
  8 27  1  0
  9 28  1  0
 10 29  1  0
 13 30  1  0
 14 31  1  0
 15 32  1  0
 17 33  1  0
 18 34  1  0
 35 36  1  0
 36 37  2  0
 37 38  1  0
 38 39  2  0
 39 40  1  0
 40 41  2  0
 41 42  1  0
 42 43  1  0
 41 36  1  0
 35 44  1  0
 35 45  1  0
 37 46  1  0
 38 47  1  0
 39 48  1  0
 40 49  1  0
 43 50  1  0
 43 51  1  0
 43 52  1  0
  6 35  1  6
M  CHG  1   5   1
M  END
>  <attachment_point>  (300) 
26

>  <score>  (300) 
<NA>

$$$$
CAT-4j
     RDKit          3D

 59 61  0  0  1  0  0  0  0  0999 V2000
   11.7106   -2.3098    1.2658 C   0  0  0  0  0  0  0  0  0  0  0  0
   13.0313   -2.6523    0.7225 N   0  0  0  0  0  0  0  0  0  0  0  0
   14.2010   -2.6281    1.3773 C   0  0  0  0  0  0  0  0  0  0  0  0
   14.3777   -2.3568    2.6732 N   0  0  0  0  0  0  0  0  0  0  0  0
   15.2217   -2.9197    0.5738 N   0  0  0  0  0  0  0  0  0  0  0  0
   14.7965   -3.2519   -0.7875 C   0  0  1  0  0  0  0  0  0  0  0  0
   15.3794   -2.2443   -1.7949 C   0  0  0  0  0  0  0  0  0  0  0  0
   15.9522   -2.6550   -3.0208 C   0  0  0  0  0  0  0  0  0  0  0  0
   16.4340   -1.6937   -3.9273 C   0  0  0  0  0  0  0  0  0  0  0  0
   16.3364   -0.3224   -3.6308 C   0  0  0  0  0  0  0  0  0  0  0  0
   15.7943    0.1250   -2.4073 C   0  0  0  0  0  0  0  0  0  0  0  0
   15.6711    1.5693   -2.0915 C   0  0  0  0  0  0  0  0  0  0  0  0
   15.3832    2.0354   -0.7903 C   0  0  0  0  0  0  0  0  0  0  0  0
   15.3534    3.4188   -0.5357 C   0  0  0  0  0  0  0  0  0  0  0  0
   15.5968    4.3049   -1.5946 C   0  0  0  0  0  0  0  0  0  0  0  0
   15.8275    3.8920   -2.8511 N   0  0  0  0  0  0  0  0  0  0  0  0
   15.8598    2.5642   -3.0762 C   0  0  0  0  0  0  0  0  0  0  0  0
   15.3327   -0.8573   -1.5012 C   0  0  0  0  0  0  0  0  0  0  0  0
   13.2767   -3.0094   -0.6368 C   0  0  0  0  0  0  0  0  0  0  0  0
   12.3981   -3.0674   -1.5055 O   0  0  0  0  0  0  0  0  0  0  0  0
    0.0000    0.0000    0.0000 H   0  0  0  0  0  0  0  0  0  0  0  0
    0.0000    0.0000    0.0000 H   0  0  0  0  0  0  0  0  0  0  0  0
    0.0000    0.0000    0.0000 H   0  0  0  0  0  0  0  0  0  0  0  0
    0.0000    0.0000    0.0000 H   0  0  0  0  0  0  0  0  0  0  0  0
    0.0000    0.0000    0.0000 H   0  0  0  0  0  0  0  0  0  0  0  0
    0.0000    0.0000    0.0000 H   0  0  0  0  0  0  0  0  0  0  0  0
    0.0000    0.0000    0.0000 H   0  0  0  0  0  0  0  0  0  0  0  0
    0.0000    0.0000    0.0000 H   0  0  0  0  0  0  0  0  0  0  0  0
    0.0000    0.0000    0.0000 H   0  0  0  0  0  0  0  0  0  0  0  0
    0.0000    0.0000    0.0000 H   0  0  0  0  0  0  0  0  0  0  0  0
    0.0000    0.0000    0.0000 H   0  0  0  0  0  0  0  0  0  0  0  0
    0.0000    0.0000    0.0000 H   0  0  0  0  0  0  0  0  0  0  0  0
    0.0000    0.0000    0.0000 H   0  0  0  0  0  0  0  0  0  0  0  0
    0.0000    0.0000    0.0000 H   0  0  0  0  0  0  0  0  0  0  0  0
    6.9887   -1.5359   -0.3720 C   0  0  0  0  0  0  0  0  0  0  0  0
    6.6151   -1.2323    1.0753 C   0  0  0  0  0  0  0  0  0  0  0  0
    7.4354   -0.0274    1.5745 C   0  0  0  0  0  0  0  0  0  0  0  0
    6.9866    0.1781    3.0001 C   0  0  0  0  0  0  0  0  0  0  0  0
    7.6787    1.3156    3.6961 C   0  0  0  0  0  0  0  0  0  0  0  0
    7.3920    2.5823    2.9430 C   0  0  0  0  0  0  0  0  0  0  0  0
    8.0474    3.7887    3.5890 C   0  0  0  0  0  0  0  0  0  0  0  0
    7.7150    5.0004    2.7824 C   0  0  0  0  0  0  0  0  0  0  0  0
    6.3168   -2.3577   -0.6944 H   0  0  0  0  0  0  0  0  0  0  0  0
    6.8237   -0.6412   -1.0050 H   0  0  0  0  0  0  0  0  0  0  0  0
    6.8463   -2.1015    1.7227 H   0  0  0  0  0  0  0  0  0  0  0  0
    5.5365   -0.9728    1.0624 H   0  0  0  0  0  0  0  0  0  0  0  0
    7.1488    0.8469    0.9403 H   0  0  0  0  0  0  0  0  0  0  0  0
    8.4978   -0.2718    1.5390 H   0  0  0  0  0  0  0  0  0  0  0  0
    5.8714    0.3492    2.9439 H   0  0  0  0  0  0  0  0  0  0  0  0
    7.1221   -0.7861    3.5320 H   0  0  0  0  0  0  0  0  0  0  0  0
    7.3333    1.3705    4.7562 H   0  0  0  0  0  0  0  0  0  0  0  0
    8.7657    1.0787    3.7326 H   0  0  0  0  0  0  0  0  0  0  0  0
    7.7989    2.4720    1.9096 H   0  0  0  0  0  0  0  0  0  0  0  0
    6.2951    2.6998    2.8693 H   0  0  0  0  0  0  0  0  0  0  0  0
    7.5319    3.9088    4.5847 H   0  0  0  0  0  0  0  0  0  0  0  0
    9.1043    3.6327    3.7964 H   0  0  0  0  0  0  0  0  0  0  0  0
    6.6636    4.8587    2.3965 H   0  0  0  0  0  0  0  0  0  0  0  0
    7.6807    5.9312    3.3945 H   0  0  0  0  0  0  0  0  0  0  0  0
    8.4127    5.1829    1.9361 H   0  0  0  0  0  0  0  0  0  0  0  0
  1  2  1  0
  2  3  1  0
  2 19  1  0
  3  4  1  0
  3  5  2  0
  5  6  1  0
  6  7  1  0
  6 19  1  0
  7  8  2  0
  7 18  1  0
  8  9  1  0
  9 10  2  0
 10 11  1  0
 11 12  1  0
 11 18  2  0
 12 13  2  0
 12 17  1  0
 13 14  1  0
 14 15  2  0
 15 16  1  0
 16 17  2  0
 19 20  2  0
  1 21  1  0
  1 22  1  0
  1 23  1  0
  4 24  1  0
  4 25  1  0
  5 26  1  0
  8 27  1  0
  9 28  1  0
 10 29  1  0
 13 30  1  0
 14 31  1  0
 15 32  1  0
 17 33  1  0
 18 34  1  0
 35 36  1  0
 36 37  1  0
 37 38  1  0
 38 39  1  0
 39 40  1  0
 40 41  1  0
 41 42  1  0
 35 43  1  0
 35 44  1  0
 36 45  1  0
 36 46  1  0
 37 47  1  0
 37 48  1  0
 38 49  1  0
 38 50  1  0
 39 51  1  0
 39 52  1  0
 40 53  1  0
 40 54  1  0
 41 55  1  0
 41 56  1  0
 42 57  1  0
 42 58  1  0
 42 59  1  0
  6 35  1  6
M  CHG  1   5   1
M  END
>  <attachment_point>  (301) 
26

>  <score>  (301) 
<NA>

$$$$
CAT-4j
     RDKit          3D

 43 46  0  0  1  0  0  0  0  0999 V2000
   11.7106   -2.3098    1.2658 C   0  0  0  0  0  0  0  0  0  0  0  0
   13.0313   -2.6523    0.7225 N   0  0  0  0  0  0  0  0  0  0  0  0
   14.2010   -2.6281    1.3773 C   0  0  0  0  0  0  0  0  0  0  0  0
   14.3777   -2.3568    2.6732 N   0  0  0  0  0  0  0  0  0  0  0  0
   15.2217   -2.9197    0.5738 N   0  0  0  0  0  0  0  0  0  0  0  0
   14.7965   -3.2519   -0.7875 C   0  0  1  0  0  0  0  0  0  0  0  0
   15.3794   -2.2443   -1.7949 C   0  0  0  0  0  0  0  0  0  0  0  0
   15.9522   -2.6550   -3.0208 C   0  0  0  0  0  0  0  0  0  0  0  0
   16.4340   -1.6937   -3.9273 C   0  0  0  0  0  0  0  0  0  0  0  0
   16.3364   -0.3224   -3.6308 C   0  0  0  0  0  0  0  0  0  0  0  0
   15.7943    0.1250   -2.4073 C   0  0  0  0  0  0  0  0  0  0  0  0
   15.6711    1.5693   -2.0915 C   0  0  0  0  0  0  0  0  0  0  0  0
   15.3832    2.0354   -0.7903 C   0  0  0  0  0  0  0  0  0  0  0  0
   15.3534    3.4188   -0.5357 C   0  0  0  0  0  0  0  0  0  0  0  0
   15.5968    4.3049   -1.5946 C   0  0  0  0  0  0  0  0  0  0  0  0
   15.8275    3.8920   -2.8511 N   0  0  0  0  0  0  0  0  0  0  0  0
   15.8598    2.5642   -3.0762 C   0  0  0  0  0  0  0  0  0  0  0  0
   15.3327   -0.8573   -1.5012 C   0  0  0  0  0  0  0  0  0  0  0  0
   13.2767   -3.0094   -0.6368 C   0  0  0  0  0  0  0  0  0  0  0  0
   12.3981   -3.0674   -1.5055 O   0  0  0  0  0  0  0  0  0  0  0  0
    0.0000    0.0000    0.0000 H   0  0  0  0  0  0  0  0  0  0  0  0
    0.0000    0.0000    0.0000 H   0  0  0  0  0  0  0  0  0  0  0  0
    0.0000    0.0000    0.0000 H   0  0  0  0  0  0  0  0  0  0  0  0
    0.0000    0.0000    0.0000 H   0  0  0  0  0  0  0  0  0  0  0  0
    0.0000    0.0000    0.0000 H   0  0  0  0  0  0  0  0  0  0  0  0
    0.0000    0.0000    0.0000 H   0  0  0  0  0  0  0  0  0  0  0  0
    0.0000    0.0000    0.0000 H   0  0  0  0  0  0  0  0  0  0  0  0
    0.0000    0.0000    0.0000 H   0  0  0  0  0  0  0  0  0  0  0  0
    0.0000    0.0000    0.0000 H   0  0  0  0  0  0  0  0  0  0  0  0
    0.0000    0.0000    0.0000 H   0  0  0  0  0  0  0  0  0  0  0  0
    0.0000    0.0000    0.0000 H   0  0  0  0  0  0  0  0  0  0  0  0
    0.0000    0.0000    0.0000 H   0  0  0  0  0  0  0  0  0  0  0  0
    0.0000    0.0000    0.0000 H   0  0  0  0  0  0  0  0  0  0  0  0
    0.0000    0.0000    0.0000 H   0  0  0  0  0  0  0  0  0  0  0  0
    6.9914   -1.5365   -0.3721 N   0  0  0  0  0  0  0  0  0  0  0  0
    6.3945   -0.3901    0.2040 C   0  0  0  0  0  0  0  0  0  0  0  0
    7.0149    0.5575    0.7523 O   0  0  0  0  0  0  0  0  0  0  0  0
    4.9621   -0.5062    0.0491 C   0  0  0  0  0  0  0  0  0  0  0  0
    4.6774   -1.6274   -0.5706 C   0  0  0  0  0  0  0  0  0  0  0  0
    5.9105   -2.3133   -0.8586 C   0  0  0  0  0  0  0  0  0  0  0  0
    6.0087   -3.4359   -1.4543 O   0  0  0  0  0  0  0  0  0  0  0  0
    4.2213    0.2287    0.3952 H   0  0  0  0  0  0  0  0  0  0  0  0
    3.6703   -1.9836   -0.8268 H   0  0  0  0  0  0  0  0  0  0  0  0
  1  2  1  0
  2  3  1  0
  2 19  1  0
  3  4  1  0
  3  5  2  0
  5  6  1  0
  6  7  1  0
  6 19  1  0
  7  8  2  0
  7 18  1  0
  8  9  1  0
  9 10  2  0
 10 11  1  0
 11 12  1  0
 11 18  2  0
 12 13  2  0
 12 17  1  0
 13 14  1  0
 14 15  2  0
 15 16  1  0
 16 17  2  0
 19 20  2  0
  1 21  1  0
  1 22  1  0
  1 23  1  0
  4 24  1  0
  4 25  1  0
  5 26  1  0
  8 27  1  0
  9 28  1  0
 10 29  1  0
 13 30  1  0
 14 31  1  0
 15 32  1  0
 17 33  1  0
 18 34  1  0
 35 36  1  0
 36 37  2  0
 36 38  1  0
 38 39  2  0
 39 40  1  0
 40 41  2  0
 40 35  1  0
 38 42  1  0
 39 43  1  0
  6 35  1  6
M  CHG  1   5   1
M  END
>  <attachment_point>  (302) 
26

>  <score>  (302) 
<NA>

$$$$
CAT-4j
     RDKit          3D

 41 43  0  0  1  0  0  0  0  0999 V2000
   11.7106   -2.3098    1.2658 C   0  0  0  0  0  0  0  0  0  0  0  0
   13.0313   -2.6523    0.7225 N   0  0  0  0  0  0  0  0  0  0  0  0
   14.2010   -2.6281    1.3773 C   0  0  0  0  0  0  0  0  0  0  0  0
   14.3777   -2.3568    2.6732 N   0  0  0  0  0  0  0  0  0  0  0  0
   15.2217   -2.9197    0.5738 N   0  0  0  0  0  0  0  0  0  0  0  0
   14.7965   -3.2519   -0.7875 C   0  0  1  0  0  0  0  0  0  0  0  0
   15.3794   -2.2443   -1.7949 C   0  0  0  0  0  0  0  0  0  0  0  0
   15.9522   -2.6550   -3.0208 C   0  0  0  0  0  0  0  0  0  0  0  0
   16.4340   -1.6937   -3.9273 C   0  0  0  0  0  0  0  0  0  0  0  0
   16.3364   -0.3224   -3.6308 C   0  0  0  0  0  0  0  0  0  0  0  0
   15.7943    0.1250   -2.4073 C   0  0  0  0  0  0  0  0  0  0  0  0
   15.6711    1.5693   -2.0915 C   0  0  0  0  0  0  0  0  0  0  0  0
   15.3832    2.0354   -0.7903 C   0  0  0  0  0  0  0  0  0  0  0  0
   15.3534    3.4188   -0.5357 C   0  0  0  0  0  0  0  0  0  0  0  0
   15.5968    4.3049   -1.5946 C   0  0  0  0  0  0  0  0  0  0  0  0
   15.8275    3.8920   -2.8511 N   0  0  0  0  0  0  0  0  0  0  0  0
   15.8598    2.5642   -3.0762 C   0  0  0  0  0  0  0  0  0  0  0  0
   15.3327   -0.8573   -1.5012 C   0  0  0  0  0  0  0  0  0  0  0  0
   13.2767   -3.0094   -0.6368 C   0  0  0  0  0  0  0  0  0  0  0  0
   12.3981   -3.0674   -1.5055 O   0  0  0  0  0  0  0  0  0  0  0  0
    0.0000    0.0000    0.0000 H   0  0  0  0  0  0  0  0  0  0  0  0
    0.0000    0.0000    0.0000 H   0  0  0  0  0  0  0  0  0  0  0  0
    0.0000    0.0000    0.0000 H   0  0  0  0  0  0  0  0  0  0  0  0
    0.0000    0.0000    0.0000 H   0  0  0  0  0  0  0  0  0  0  0  0
    0.0000    0.0000    0.0000 H   0  0  0  0  0  0  0  0  0  0  0  0
    0.0000    0.0000    0.0000 H   0  0  0  0  0  0  0  0  0  0  0  0
    0.0000    0.0000    0.0000 H   0  0  0  0  0  0  0  0  0  0  0  0
    0.0000    0.0000    0.0000 H   0  0  0  0  0  0  0  0  0  0  0  0
    0.0000    0.0000    0.0000 H   0  0  0  0  0  0  0  0  0  0  0  0
    0.0000    0.0000    0.0000 H   0  0  0  0  0  0  0  0  0  0  0  0
    0.0000    0.0000    0.0000 H   0  0  0  0  0  0  0  0  0  0  0  0
    0.0000    0.0000    0.0000 H   0  0  0  0  0  0  0  0  0  0  0  0
    0.0000    0.0000    0.0000 H   0  0  0  0  0  0  0  0  0  0  0  0
    0.0000    0.0000    0.0000 H   0  0  0  0  0  0  0  0  0  0  0  0
    7.1047   -1.5614   -0.3781 O   0  0  0  0  0  0  0  0  0  0  0  0
    5.8922   -2.5441   -0.9830 S   0  0  0  0  0  6  0  0  0  0  0  0
    5.3611   -3.7286    0.0949 N   0  0  0  0  0  0  0  0  0  0  0  0
    6.4293   -3.1864   -2.2379 O   0  0  0  0  0  0  0  0  0  0  0  0
    4.7497   -1.6802   -1.3881 O   0  0  0  0  0  0  0  0  0  0  0  0
    6.0798   -4.3345    0.5028 H   0  0  0  0  0  0  0  0  0  0  0  0
    4.5771   -3.4758    0.7060 H   0  0  0  0  0  0  0  0  0  0  0  0
  1  2  1  0
  2  3  1  0
  2 19  1  0
  3  4  1  0
  3  5  2  0
  5  6  1  0
  6  7  1  0
  6 19  1  0
  7  8  2  0
  7 18  1  0
  8  9  1  0
  9 10  2  0
 10 11  1  0
 11 12  1  0
 11 18  2  0
 12 13  2  0
 12 17  1  0
 13 14  1  0
 14 15  2  0
 15 16  1  0
 16 17  2  0
 19 20  2  0
  1 21  1  0
  1 22  1  0
  1 23  1  0
  4 24  1  0
  4 25  1  0
  5 26  1  0
  8 27  1  0
  9 28  1  0
 10 29  1  0
 13 30  1  0
 14 31  1  0
 15 32  1  0
 17 33  1  0
 18 34  1  0
 35 36  1  0
 36 37  1  0
 36 38  2  0
 36 39  2  0
 37 40  1  0
 37 41  1  0
  6 35  1  6
M  CHG  1   5   1
M  END
>  <attachment_point>  (303) 
26

>  <score>  (303) 
<NA>

$$$$
CAT-4j
     RDKit          3D

 52 56  0  0  1  0  0  0  0  0999 V2000
   11.7106   -2.3098    1.2658 C   0  0  0  0  0  0  0  0  0  0  0  0
   13.0313   -2.6523    0.7225 N   0  0  0  0  0  0  0  0  0  0  0  0
   14.2010   -2.6281    1.3773 C   0  0  0  0  0  0  0  0  0  0  0  0
   14.3777   -2.3568    2.6732 N   0  0  0  0  0  0  0  0  0  0  0  0
   15.2217   -2.9197    0.5738 N   0  0  0  0  0  0  0  0  0  0  0  0
   14.7965   -3.2519   -0.7875 C   0  0  1  0  0  0  0  0  0  0  0  0
   15.3794   -2.2443   -1.7949 C   0  0  0  0  0  0  0  0  0  0  0  0
   15.9522   -2.6550   -3.0208 C   0  0  0  0  0  0  0  0  0  0  0  0
   16.4340   -1.6937   -3.9273 C   0  0  0  0  0  0  0  0  0  0  0  0
   16.3364   -0.3224   -3.6308 C   0  0  0  0  0  0  0  0  0  0  0  0
   15.7943    0.1250   -2.4073 C   0  0  0  0  0  0  0  0  0  0  0  0
   15.6711    1.5693   -2.0915 C   0  0  0  0  0  0  0  0  0  0  0  0
   15.3832    2.0354   -0.7903 C   0  0  0  0  0  0  0  0  0  0  0  0
   15.3534    3.4188   -0.5357 C   0  0  0  0  0  0  0  0  0  0  0  0
   15.5968    4.3049   -1.5946 C   0  0  0  0  0  0  0  0  0  0  0  0
   15.8275    3.8920   -2.8511 N   0  0  0  0  0  0  0  0  0  0  0  0
   15.8598    2.5642   -3.0762 C   0  0  0  0  0  0  0  0  0  0  0  0
   15.3327   -0.8573   -1.5012 C   0  0  0  0  0  0  0  0  0  0  0  0
   13.2767   -3.0094   -0.6368 C   0  0  0  0  0  0  0  0  0  0  0  0
   12.3981   -3.0674   -1.5055 O   0  0  0  0  0  0  0  0  0  0  0  0
    0.0000    0.0000    0.0000 H   0  0  0  0  0  0  0  0  0  0  0  0
    0.0000    0.0000    0.0000 H   0  0  0  0  0  0  0  0  0  0  0  0
    0.0000    0.0000    0.0000 H   0  0  0  0  0  0  0  0  0  0  0  0
    0.0000    0.0000    0.0000 H   0  0  0  0  0  0  0  0  0  0  0  0
    0.0000    0.0000    0.0000 H   0  0  0  0  0  0  0  0  0  0  0  0
    0.0000    0.0000    0.0000 H   0  0  0  0  0  0  0  0  0  0  0  0
    0.0000    0.0000    0.0000 H   0  0  0  0  0  0  0  0  0  0  0  0
    0.0000    0.0000    0.0000 H   0  0  0  0  0  0  0  0  0  0  0  0
    0.0000    0.0000    0.0000 H   0  0  0  0  0  0  0  0  0  0  0  0
    0.0000    0.0000    0.0000 H   0  0  0  0  0  0  0  0  0  0  0  0
    0.0000    0.0000    0.0000 H   0  0  0  0  0  0  0  0  0  0  0  0
    0.0000    0.0000    0.0000 H   0  0  0  0  0  0  0  0  0  0  0  0
    0.0000    0.0000    0.0000 H   0  0  0  0  0  0  0  0  0  0  0  0
    0.0000    0.0000    0.0000 H   0  0  0  0  0  0  0  0  0  0  0  0
    6.9636   -1.5304   -0.3706 C   0  0  0  0  0  0  0  0  0  0  0  0
    6.2440   -2.7877   -0.2666 N   0  0  0  0  0  0  0  0  0  0  0  0
    5.8953   -3.4698    0.9220 C   0  0  0  0  0  0  0  0  0  0  0  0
    6.1588   -3.0866    2.0922 O   0  0  0  0  0  0  0  0  0  0  0  0
    5.1766   -4.6988    0.6115 C   0  0  0  0  0  0  0  0  0  0  0  0
    4.6151   -5.7221    1.3524 C   0  0  0  0  0  0  0  0  0  0  0  0
    3.9788   -6.7897    0.7546 C   0  0  0  0  0  0  0  0  0  0  0  0
    3.8831   -6.8675   -0.6263 C   0  0  0  0  0  0  0  0  0  0  0  0
    4.4402   -5.8515   -1.3754 C   0  0  0  0  0  0  0  0  0  0  0  0
    5.0817   -4.7757   -0.7634 C   0  0  0  0  0  0  0  0  0  0  0  0
    5.7436   -3.5891   -1.3318 C   0  0  0  0  0  0  0  0  0  0  0  0
    5.8355   -3.3504   -2.5635 O   0  0  0  0  0  0  0  0  0  0  0  0
    6.6282   -1.0132   -1.2836 H   0  0  0  0  0  0  0  0  0  0  0  0
    6.8217   -0.9185    0.5559 H   0  0  0  0  0  0  0  0  0  0  0  0
    4.6810   -5.6764    2.4283 H   0  0  0  0  0  0  0  0  0  0  0  0
    3.5289   -7.6077    1.3200 H   0  0  0  0  0  0  0  0  0  0  0  0
    3.3781   -7.7150   -1.0990 H   0  0  0  0  0  0  0  0  0  0  0  0
    4.3781   -5.8891   -2.4731 H   0  0  0  0  0  0  0  0  0  0  0  0
  1  2  1  0
  2  3  1  0
  2 19  1  0
  3  4  1  0
  3  5  2  0
  5  6  1  0
  6  7  1  0
  6 19  1  0
  7  8  2  0
  7 18  1  0
  8  9  1  0
  9 10  2  0
 10 11  1  0
 11 12  1  0
 11 18  2  0
 12 13  2  0
 12 17  1  0
 13 14  1  0
 14 15  2  0
 15 16  1  0
 16 17  2  0
 19 20  2  0
  1 21  1  0
  1 22  1  0
  1 23  1  0
  4 24  1  0
  4 25  1  0
  5 26  1  0
  8 27  1  0
  9 28  1  0
 10 29  1  0
 13 30  1  0
 14 31  1  0
 15 32  1  0
 17 33  1  0
 18 34  1  0
 35 36  1  0
 36 37  1  0
 37 38  2  0
 37 39  1  0
 39 40  2  0
 40 41  1  0
 41 42  2  0
 42 43  1  0
 43 44  2  0
 44 45  1  0
 45 46  2  0
 45 36  1  0
 44 39  1  0
 35 47  1  0
 35 48  1  0
 40 49  1  0
 41 50  1  0
 42 51  1  0
 43 52  1  0
  6 35  1  6
M  CHG  1   5   1
M  END
>  <attachment_point>  (304) 
26

>  <score>  (304) 
<NA>

$$$$
CAT-4j
     RDKit          3D

 43 45  0  0  1  0  0  0  0  0999 V2000
   11.7106   -2.3098    1.2658 C   0  0  0  0  0  0  0  0  0  0  0  0
   13.0313   -2.6523    0.7225 N   0  0  0  0  0  0  0  0  0  0  0  0
   14.2010   -2.6281    1.3773 C   0  0  0  0  0  0  0  0  0  0  0  0
   14.3777   -2.3568    2.6732 N   0  0  0  0  0  0  0  0  0  0  0  0
   15.2217   -2.9197    0.5738 N   0  0  0  0  0  0  0  0  0  0  0  0
   14.7965   -3.2519   -0.7875 C   0  0  1  0  0  0  0  0  0  0  0  0
   15.3794   -2.2443   -1.7949 C   0  0  0  0  0  0  0  0  0  0  0  0
   15.9522   -2.6550   -3.0208 C   0  0  0  0  0  0  0  0  0  0  0  0
   16.4340   -1.6937   -3.9273 C   0  0  0  0  0  0  0  0  0  0  0  0
   16.3364   -0.3224   -3.6308 C   0  0  0  0  0  0  0  0  0  0  0  0
   15.7943    0.1250   -2.4073 C   0  0  0  0  0  0  0  0  0  0  0  0
   15.6711    1.5693   -2.0915 C   0  0  0  0  0  0  0  0  0  0  0  0
   15.3832    2.0354   -0.7903 C   0  0  0  0  0  0  0  0  0  0  0  0
   15.3534    3.4188   -0.5357 C   0  0  0  0  0  0  0  0  0  0  0  0
   15.5968    4.3049   -1.5946 C   0  0  0  0  0  0  0  0  0  0  0  0
   15.8275    3.8920   -2.8511 N   0  0  0  0  0  0  0  0  0  0  0  0
   15.8598    2.5642   -3.0762 C   0  0  0  0  0  0  0  0  0  0  0  0
   15.3327   -0.8573   -1.5012 C   0  0  0  0  0  0  0  0  0  0  0  0
   13.2767   -3.0094   -0.6368 C   0  0  0  0  0  0  0  0  0  0  0  0
   12.3981   -3.0674   -1.5055 O   0  0  0  0  0  0  0  0  0  0  0  0
    0.0000    0.0000    0.0000 H   0  0  0  0  0  0  0  0  0  0  0  0
    0.0000    0.0000    0.0000 H   0  0  0  0  0  0  0  0  0  0  0  0
    0.0000    0.0000    0.0000 H   0  0  0  0  0  0  0  0  0  0  0  0
    0.0000    0.0000    0.0000 H   0  0  0  0  0  0  0  0  0  0  0  0
    0.0000    0.0000    0.0000 H   0  0  0  0  0  0  0  0  0  0  0  0
    0.0000    0.0000    0.0000 H   0  0  0  0  0  0  0  0  0  0  0  0
    0.0000    0.0000    0.0000 H   0  0  0  0  0  0  0  0  0  0  0  0
    0.0000    0.0000    0.0000 H   0  0  0  0  0  0  0  0  0  0  0  0
    0.0000    0.0000    0.0000 H   0  0  0  0  0  0  0  0  0  0  0  0
    0.0000    0.0000    0.0000 H   0  0  0  0  0  0  0  0  0  0  0  0
    0.0000    0.0000    0.0000 H   0  0  0  0  0  0  0  0  0  0  0  0
    0.0000    0.0000    0.0000 H   0  0  0  0  0  0  0  0  0  0  0  0
    0.0000    0.0000    0.0000 H   0  0  0  0  0  0  0  0  0  0  0  0
    0.0000    0.0000    0.0000 H   0  0  0  0  0  0  0  0  0  0  0  0
    6.9597   -1.5296   -0.3704 C   0  0  0  0  0  0  0  0  0  0  0  0
    6.7979   -0.9296    0.8543 F   0  0  0  0  0  0  0  0  0  0  0  0
    6.7492   -0.6502   -1.4058 F   0  0  0  0  0  0  0  0  0  0  0  0
    6.0280   -3.0537   -0.5280 P   0  0  0  0  0  5  0  0  0  0  0  0
    6.9572   -4.2308   -0.7141 O   0  0  0  0  0  0  0  0  0  0  0  0
    5.0098   -2.9656   -1.8710 O   0  0  0  0  0  0  0  0  0  0  0  0
    5.0294   -3.3348    0.8254 O   0  0  0  0  0  0  0  0  0  0  0  0
    4.1400   -2.5664   -1.6506 H   0  0  0  0  0  0  0  0  0  0  0  0
    5.5808   -3.5391    1.6238 H   0  0  0  0  0  0  0  0  0  0  0  0
  1  2  1  0
  2  3  1  0
  2 19  1  0
  3  4  1  0
  3  5  2  0
  5  6  1  0
  6  7  1  0
  6 19  1  0
  7  8  2  0
  7 18  1  0
  8  9  1  0
  9 10  2  0
 10 11  1  0
 11 12  1  0
 11 18  2  0
 12 13  2  0
 12 17  1  0
 13 14  1  0
 14 15  2  0
 15 16  1  0
 16 17  2  0
 19 20  2  0
  1 21  1  0
  1 22  1  0
  1 23  1  0
  4 24  1  0
  4 25  1  0
  5 26  1  0
  8 27  1  0
  9 28  1  0
 10 29  1  0
 13 30  1  0
 14 31  1  0
 15 32  1  0
 17 33  1  0
 18 34  1  0
 35 36  1  0
 35 37  1  0
 35 38  1  0
 38 39  2  0
 38 40  1  0
 38 41  1  0
 40 42  1  0
 41 43  1  0
  6 35  1  6
M  CHG  1   5   1
M  END
>  <attachment_point>  (305) 
26

>  <score>  (305) 
<NA>

$$$$
CAT-4j
     RDKit          3D

 48 51  0  0  1  0  0  0  0  0999 V2000
   11.7106   -2.3098    1.2658 C   0  0  0  0  0  0  0  0  0  0  0  0
   13.0313   -2.6523    0.7225 N   0  0  0  0  0  0  0  0  0  0  0  0
   14.2010   -2.6281    1.3773 C   0  0  0  0  0  0  0  0  0  0  0  0
   14.3777   -2.3568    2.6732 N   0  0  0  0  0  0  0  0  0  0  0  0
   15.2217   -2.9197    0.5738 N   0  0  0  0  0  0  0  0  0  0  0  0
   14.7965   -3.2519   -0.7875 C   0  0  1  0  0  0  0  0  0  0  0  0
   15.3794   -2.2443   -1.7949 C   0  0  0  0  0  0  0  0  0  0  0  0
   15.9522   -2.6550   -3.0208 C   0  0  0  0  0  0  0  0  0  0  0  0
   16.4340   -1.6937   -3.9273 C   0  0  0  0  0  0  0  0  0  0  0  0
   16.3364   -0.3224   -3.6308 C   0  0  0  0  0  0  0  0  0  0  0  0
   15.7943    0.1250   -2.4073 C   0  0  0  0  0  0  0  0  0  0  0  0
   15.6711    1.5693   -2.0915 C   0  0  0  0  0  0  0  0  0  0  0  0
   15.3832    2.0354   -0.7903 C   0  0  0  0  0  0  0  0  0  0  0  0
   15.3534    3.4188   -0.5357 C   0  0  0  0  0  0  0  0  0  0  0  0
   15.5968    4.3049   -1.5946 C   0  0  0  0  0  0  0  0  0  0  0  0
   15.8275    3.8920   -2.8511 N   0  0  0  0  0  0  0  0  0  0  0  0
   15.8598    2.5642   -3.0762 C   0  0  0  0  0  0  0  0  0  0  0  0
   15.3327   -0.8573   -1.5012 C   0  0  0  0  0  0  0  0  0  0  0  0
   13.2767   -3.0094   -0.6368 C   0  0  0  0  0  0  0  0  0  0  0  0
   12.3981   -3.0674   -1.5055 O   0  0  0  0  0  0  0  0  0  0  0  0
    0.0000    0.0000    0.0000 H   0  0  0  0  0  0  0  0  0  0  0  0
    0.0000    0.0000    0.0000 H   0  0  0  0  0  0  0  0  0  0  0  0
    0.0000    0.0000    0.0000 H   0  0  0  0  0  0  0  0  0  0  0  0
    0.0000    0.0000    0.0000 H   0  0  0  0  0  0  0  0  0  0  0  0
    0.0000    0.0000    0.0000 H   0  0  0  0  0  0  0  0  0  0  0  0
    0.0000    0.0000    0.0000 H   0  0  0  0  0  0  0  0  0  0  0  0
    0.0000    0.0000    0.0000 H   0  0  0  0  0  0  0  0  0  0  0  0
    0.0000    0.0000    0.0000 H   0  0  0  0  0  0  0  0  0  0  0  0
    0.0000    0.0000    0.0000 H   0  0  0  0  0  0  0  0  0  0  0  0
    0.0000    0.0000    0.0000 H   0  0  0  0  0  0  0  0  0  0  0  0
    0.0000    0.0000    0.0000 H   0  0  0  0  0  0  0  0  0  0  0  0
    0.0000    0.0000    0.0000 H   0  0  0  0  0  0  0  0  0  0  0  0
    0.0000    0.0000    0.0000 H   0  0  0  0  0  0  0  0  0  0  0  0
    0.0000    0.0000    0.0000 H   0  0  0  0  0  0  0  0  0  0  0  0
    6.9590   -1.5294   -0.3704 C   0  0  0  0  0  0  0  0  0  0  0  0
    6.0491   -2.3479   -0.9990 C   0  0  0  0  0  0  0  0  0  0  0  0
    4.6863   -2.0765   -0.9452 C   0  0  0  0  0  0  0  0  0  0  0  0
    4.3080   -0.9893   -0.2576 N   0  0  0  0  0  0  0  0  0  0  0  0
    5.1359   -0.1669    0.3659 C   0  0  0  0  0  0  0  0  0  0  0  0
    4.6877    0.9371    1.0581 O   0  0  0  0  0  0  0  0  0  0  0  0
    3.2897    1.2147    1.1129 C   0  0  0  0  0  0  0  0  0  0  0  0
    6.4921   -0.4386    0.3113 C   0  0  0  0  0  0  0  0  0  0  0  0
    6.3982   -3.2082   -1.5384 H   0  0  0  0  0  0  0  0  0  0  0  0
    4.0450   -2.7637   -1.4616 H   0  0  0  0  0  0  0  0  0  0  0  0
    3.0771    2.2540    1.4051 H   0  0  0  0  0  0  0  0  0  0  0  0
    2.7954    0.5004    1.8051 H   0  0  0  0  0  0  0  0  0  0  0  0
    2.8513    1.0262    0.1013 H   0  0  0  0  0  0  0  0  0  0  0  0
    7.2352    0.1897    0.7980 H   0  0  0  0  0  0  0  0  0  0  0  0
  1  2  1  0
  2  3  1  0
  2 19  1  0
  3  4  1  0
  3  5  2  0
  5  6  1  0
  6  7  1  1
  6 19  1  0
  7  8  2  0
  7 18  1  0
  8  9  1  0
  9 10  2  0
 10 11  1  0
 11 12  1  0
 11 18  2  0
 12 13  2  0
 12 17  1  0
 13 14  1  0
 14 15  2  0
 15 16  1  0
 16 17  2  0
 19 20  2  0
  1 21  1  0
  1 22  1  0
  1 23  1  0
  4 24  1  0
  4 25  1  0
  5 26  1  0
  8 27  1  0
  9 28  1  0
 10 29  1  0
 13 30  1  0
 14 31  1  0
 15 32  1  0
 17 33  1  0
 18 34  1  0
 35 36  2  0
 36 37  1  0
 37 38  2  0
 38 39  1  0
 39 40  1  0
 40 41  1  0
 39 42  2  0
 42 35  1  0
 36 43  1  0
 37 44  1  0
 41 45  1  0
 41 46  1  0
 41 47  1  0
 42 48  1  0
  6 35  1  0
M  CHG  1   5   1
M  END
>  <attachment_point>  (306) 
26

>  <score>  (306) 
<NA>

$$$$
CAT-4j
     RDKit          3D

 45 48  0  0  1  0  0  0  0  0999 V2000
   11.7106   -2.3098    1.2658 C   0  0  0  0  0  0  0  0  0  0  0  0
   13.0313   -2.6523    0.7225 N   0  0  0  0  0  0  0  0  0  0  0  0
   14.2010   -2.6281    1.3773 C   0  0  0  0  0  0  0  0  0  0  0  0
   14.3777   -2.3568    2.6732 N   0  0  0  0  0  0  0  0  0  0  0  0
   15.2217   -2.9197    0.5738 N   0  0  0  0  0  0  0  0  0  0  0  0
   14.7965   -3.2519   -0.7875 C   0  0  1  0  0  0  0  0  0  0  0  0
   15.3794   -2.2443   -1.7949 C   0  0  0  0  0  0  0  0  0  0  0  0
   15.9522   -2.6550   -3.0208 C   0  0  0  0  0  0  0  0  0  0  0  0
   16.4340   -1.6937   -3.9273 C   0  0  0  0  0  0  0  0  0  0  0  0
   16.3364   -0.3224   -3.6308 C   0  0  0  0  0  0  0  0  0  0  0  0
   15.7943    0.1250   -2.4073 C   0  0  0  0  0  0  0  0  0  0  0  0
   15.6711    1.5693   -2.0915 C   0  0  0  0  0  0  0  0  0  0  0  0
   15.3832    2.0354   -0.7903 C   0  0  0  0  0  0  0  0  0  0  0  0
   15.3534    3.4188   -0.5357 C   0  0  0  0  0  0  0  0  0  0  0  0
   15.5968    4.3049   -1.5946 C   0  0  0  0  0  0  0  0  0  0  0  0
   15.8275    3.8920   -2.8511 N   0  0  0  0  0  0  0  0  0  0  0  0
   15.8598    2.5642   -3.0762 C   0  0  0  0  0  0  0  0  0  0  0  0
   15.3327   -0.8573   -1.5012 C   0  0  0  0  0  0  0  0  0  0  0  0
   13.2767   -3.0094   -0.6368 C   0  0  0  0  0  0  0  0  0  0  0  0
   12.3981   -3.0674   -1.5055 O   0  0  0  0  0  0  0  0  0  0  0  0
    0.0000    0.0000    0.0000 H   0  0  0  0  0  0  0  0  0  0  0  0
    0.0000    0.0000    0.0000 H   0  0  0  0  0  0  0  0  0  0  0  0
    0.0000    0.0000    0.0000 H   0  0  0  0  0  0  0  0  0  0  0  0
    0.0000    0.0000    0.0000 H   0  0  0  0  0  0  0  0  0  0  0  0
    0.0000    0.0000    0.0000 H   0  0  0  0  0  0  0  0  0  0  0  0
    0.0000    0.0000    0.0000 H   0  0  0  0  0  0  0  0  0  0  0  0
    0.0000    0.0000    0.0000 H   0  0  0  0  0  0  0  0  0  0  0  0
    0.0000    0.0000    0.0000 H   0  0  0  0  0  0  0  0  0  0  0  0
    0.0000    0.0000    0.0000 H   0  0  0  0  0  0  0  0  0  0  0  0
    0.0000    0.0000    0.0000 H   0  0  0  0  0  0  0  0  0  0  0  0
    0.0000    0.0000    0.0000 H   0  0  0  0  0  0  0  0  0  0  0  0
    0.0000    0.0000    0.0000 H   0  0  0  0  0  0  0  0  0  0  0  0
    0.0000    0.0000    0.0000 H   0  0  0  0  0  0  0  0  0  0  0  0
    0.0000    0.0000    0.0000 H   0  0  0  0  0  0  0  0  0  0  0  0
    6.9773   -1.5334   -0.3713 C   0  0  0  0  0  0  0  0  0  0  0  0
    6.6185   -0.2003   -0.3151 C   0  0  0  0  0  0  0  0  0  0  0  0
    5.2670    0.0771   -0.2437 C   0  0  0  0  0  0  0  0  0  0  0  0
    4.3694   -0.9250   -0.2314 N   0  0  0  0  0  0  0  0  0  0  0  0
    4.7185   -2.2185   -0.2861 C   0  0  0  0  0  0  0  0  0  0  0  0
    3.7273   -3.2357   -0.2699 N   0  0  0  0  0  0  0  0  0  0  0  0
    6.0347   -2.5007   -0.3560 N   0  0  0  0  0  0  0  0  0  0  0  0
    7.3825    0.5668   -0.3280 H   0  0  0  0  0  0  0  0  0  0  0  0
    4.9800    1.1227   -0.1992 H   0  0  0  0  0  0  0  0  0  0  0  0
    3.6652   -3.8664   -1.0936 H   0  0  0  0  0  0  0  0  0  0  0  0
    3.0671   -3.3754    0.5225 H   0  0  0  0  0  0  0  0  0  0  0  0
  1  2  1  0
  2  3  1  0
  2 19  1  0
  3  4  1  0
  3  5  2  0
  5  6  1  0
  6  7  1  1
  6 19  1  0
  7  8  2  0
  7 18  1  0
  8  9  1  0
  9 10  2  0
 10 11  1  0
 11 12  1  0
 11 18  2  0
 12 13  2  0
 12 17  1  0
 13 14  1  0
 14 15  2  0
 15 16  1  0
 16 17  2  0
 19 20  2  0
  1 21  1  0
  1 22  1  0
  1 23  1  0
  4 24  1  0
  4 25  1  0
  5 26  1  0
  8 27  1  0
  9 28  1  0
 10 29  1  0
 13 30  1  0
 14 31  1  0
 15 32  1  0
 17 33  1  0
 18 34  1  0
 35 36  2  0
 36 37  1  0
 37 38  2  0
 38 39  1  0
 39 40  1  0
 39 41  2  0
 41 35  1  0
 36 42  1  0
 37 43  1  0
 40 44  1  0
 40 45  1  0
  6 35  1  0
M  CHG  1   5   1
M  END
>  <attachment_point>  (307) 
26

>  <score>  (307) 
<NA>

$$$$
CAT-4j
     RDKit          3D

 52 56  0  0  1  0  0  0  0  0999 V2000
   11.7106   -2.3098    1.2658 C   0  0  0  0  0  0  0  0  0  0  0  0
   13.0313   -2.6523    0.7225 N   0  0  0  0  0  0  0  0  0  0  0  0
   14.2010   -2.6281    1.3773 C   0  0  0  0  0  0  0  0  0  0  0  0
   14.3777   -2.3568    2.6732 N   0  0  0  0  0  0  0  0  0  0  0  0
   15.2217   -2.9197    0.5738 N   0  0  0  0  0  0  0  0  0  0  0  0
   14.7965   -3.2519   -0.7875 C   0  0  1  0  0  0  0  0  0  0  0  0
   15.3794   -2.2443   -1.7949 C   0  0  0  0  0  0  0  0  0  0  0  0
   15.9522   -2.6550   -3.0208 C   0  0  0  0  0  0  0  0  0  0  0  0
   16.4340   -1.6937   -3.9273 C   0  0  0  0  0  0  0  0  0  0  0  0
   16.3364   -0.3224   -3.6308 C   0  0  0  0  0  0  0  0  0  0  0  0
   15.7943    0.1250   -2.4073 C   0  0  0  0  0  0  0  0  0  0  0  0
   15.6711    1.5693   -2.0915 C   0  0  0  0  0  0  0  0  0  0  0  0
   15.3832    2.0354   -0.7903 C   0  0  0  0  0  0  0  0  0  0  0  0
   15.3534    3.4188   -0.5357 C   0  0  0  0  0  0  0  0  0  0  0  0
   15.5968    4.3049   -1.5946 C   0  0  0  0  0  0  0  0  0  0  0  0
   15.8275    3.8920   -2.8511 N   0  0  0  0  0  0  0  0  0  0  0  0
   15.8598    2.5642   -3.0762 C   0  0  0  0  0  0  0  0  0  0  0  0
   15.3327   -0.8573   -1.5012 C   0  0  0  0  0  0  0  0  0  0  0  0
   13.2767   -3.0094   -0.6368 C   0  0  0  0  0  0  0  0  0  0  0  0
   12.3981   -3.0674   -1.5055 O   0  0  0  0  0  0  0  0  0  0  0  0
    0.0000    0.0000    0.0000 H   0  0  0  0  0  0  0  0  0  0  0  0
    0.0000    0.0000    0.0000 H   0  0  0  0  0  0  0  0  0  0  0  0
    0.0000    0.0000    0.0000 H   0  0  0  0  0  0  0  0  0  0  0  0
    0.0000    0.0000    0.0000 H   0  0  0  0  0  0  0  0  0  0  0  0
    0.0000    0.0000    0.0000 H   0  0  0  0  0  0  0  0  0  0  0  0
    0.0000    0.0000    0.0000 H   0  0  0  0  0  0  0  0  0  0  0  0
    0.0000    0.0000    0.0000 H   0  0  0  0  0  0  0  0  0  0  0  0
    0.0000    0.0000    0.0000 H   0  0  0  0  0  0  0  0  0  0  0  0
    0.0000    0.0000    0.0000 H   0  0  0  0  0  0  0  0  0  0  0  0
    0.0000    0.0000    0.0000 H   0  0  0  0  0  0  0  0  0  0  0  0
    0.0000    0.0000    0.0000 H   0  0  0  0  0  0  0  0  0  0  0  0
    0.0000    0.0000    0.0000 H   0  0  0  0  0  0  0  0  0  0  0  0
    0.0000    0.0000    0.0000 H   0  0  0  0  0  0  0  0  0  0  0  0
    0.0000    0.0000    0.0000 H   0  0  0  0  0  0  0  0  0  0  0  0
    6.9219   -1.5213   -0.3684 C   0  0  0  0  0  0  0  0  0  0  0  0
    6.4483   -0.2880   -0.2549 N   0  0  0  0  0  0  0  0  0  0  0  0
    5.0846   -0.3699   -0.2121 C   0  0  0  0  0  0  0  0  0  0  0  0
    4.0787    0.5623   -0.1030 C   0  0  0  0  0  0  0  0  0  0  0  0
    2.7488    0.1973   -0.0835 C   0  0  0  0  0  0  0  0  0  0  0  0
    1.6720    1.1712    0.0314 C   0  0  0  0  0  0  0  0  0  0  0  0
    0.3041    0.8038    0.0520 N   0  0  0  0  0  0  0  0  0  0  0  0
    1.9676    2.3934    0.1162 O   0  0  0  0  0  0  0  0  0  0  0  0
    2.4598   -1.1476   -0.1781 C   0  0  0  0  0  0  0  0  0  0  0  0
    3.4801   -2.0977   -0.2892 C   0  0  0  0  0  0  0  0  0  0  0  0
    4.7968   -1.7110   -0.3064 C   0  0  0  0  0  0  0  0  0  0  0  0
    5.9571   -2.4199   -0.4037 N   0  0  0  0  0  0  0  0  0  0  0  0
    4.3350    1.5955   -0.0316 H   0  0  0  0  0  0  0  0  0  0  0  0
   -0.4224    1.4888   -0.2685 H   0  0  0  0  0  0  0  0  0  0  0  0
   -0.0049   -0.1494    0.3844 H   0  0  0  0  0  0  0  0  0  0  0  0
    1.4302   -1.5094   -0.1692 H   0  0  0  0  0  0  0  0  0  0  0  0
    3.2637   -3.1576   -0.3641 H   0  0  0  0  0  0  0  0  0  0  0  0
    6.0770   -3.4530   -0.4887 H   0  0  0  0  0  0  0  0  0  0  0  0
  1  2  1  0
  2  3  1  0
  2 19  1  0
  3  4  1  0
  3  5  2  0
  5  6  1  0
  6  7  1  1
  6 19  1  0
  7  8  2  0
  7 18  1  0
  8  9  1  0
  9 10  2  0
 10 11  1  0
 11 12  1  0
 11 18  2  0
 12 13  2  0
 12 17  1  0
 13 14  1  0
 14 15  2  0
 15 16  1  0
 16 17  2  0
 19 20  2  0
  1 21  1  0
  1 22  1  0
  1 23  1  0
  4 24  1  0
  4 25  1  0
  5 26  1  0
  8 27  1  0
  9 28  1  0
 10 29  1  0
 13 30  1  0
 14 31  1  0
 15 32  1  0
 17 33  1  0
 18 34  1  0
 35 36  2  0
 36 37  1  0
 37 38  2  0
 38 39  1  0
 39 40  1  0
 40 41  1  0
 40 42  2  0
 39 43  2  0
 43 44  1  0
 44 45  2  0
 45 46  1  0
 46 35  1  0
 45 37  1  0
 38 47  1  0
 41 48  1  0
 41 49  1  0
 43 50  1  0
 44 51  1  0
 46 52  1  0
  6 35  1  0
M  CHG  1   5   1
M  END
>  <attachment_point>  (308) 
26

>  <score>  (308) 
<NA>

$$$$
CAT-4j
     RDKit          3D

 45 48  0  0  1  0  0  0  0  0999 V2000
   11.7106   -2.3098    1.2658 C   0  0  0  0  0  0  0  0  0  0  0  0
   13.0313   -2.6523    0.7225 N   0  0  0  0  0  0  0  0  0  0  0  0
   14.2010   -2.6281    1.3773 C   0  0  0  0  0  0  0  0  0  0  0  0
   14.3777   -2.3568    2.6732 N   0  0  0  0  0  0  0  0  0  0  0  0
   15.2217   -2.9197    0.5738 N   0  0  0  0  0  0  0  0  0  0  0  0
   14.7965   -3.2519   -0.7875 C   0  0  1  0  0  0  0  0  0  0  0  0
   15.3794   -2.2443   -1.7949 C   0  0  0  0  0  0  0  0  0  0  0  0
   15.9522   -2.6550   -3.0208 C   0  0  0  0  0  0  0  0  0  0  0  0
   16.4340   -1.6937   -3.9273 C   0  0  0  0  0  0  0  0  0  0  0  0
   16.3364   -0.3224   -3.6308 C   0  0  0  0  0  0  0  0  0  0  0  0
   15.7943    0.1250   -2.4073 C   0  0  0  0  0  0  0  0  0  0  0  0
   15.6711    1.5693   -2.0915 C   0  0  0  0  0  0  0  0  0  0  0  0
   15.3832    2.0354   -0.7903 C   0  0  0  0  0  0  0  0  0  0  0  0
   15.3534    3.4188   -0.5357 C   0  0  0  0  0  0  0  0  0  0  0  0
   15.5968    4.3049   -1.5946 C   0  0  0  0  0  0  0  0  0  0  0  0
   15.8275    3.8920   -2.8511 N   0  0  0  0  0  0  0  0  0  0  0  0
   15.8598    2.5642   -3.0762 C   0  0  0  0  0  0  0  0  0  0  0  0
   15.3327   -0.8573   -1.5012 C   0  0  0  0  0  0  0  0  0  0  0  0
   13.2767   -3.0094   -0.6368 C   0  0  0  0  0  0  0  0  0  0  0  0
   12.3981   -3.0674   -1.5055 O   0  0  0  0  0  0  0  0  0  0  0  0
    0.0000    0.0000    0.0000 H   0  0  0  0  0  0  0  0  0  0  0  0
    0.0000    0.0000    0.0000 H   0  0  0  0  0  0  0  0  0  0  0  0
    0.0000    0.0000    0.0000 H   0  0  0  0  0  0  0  0  0  0  0  0
    0.0000    0.0000    0.0000 H   0  0  0  0  0  0  0  0  0  0  0  0
    0.0000    0.0000    0.0000 H   0  0  0  0  0  0  0  0  0  0  0  0
    0.0000    0.0000    0.0000 H   0  0  0  0  0  0  0  0  0  0  0  0
    0.0000    0.0000    0.0000 H   0  0  0  0  0  0  0  0  0  0  0  0
    0.0000    0.0000    0.0000 H   0  0  0  0  0  0  0  0  0  0  0  0
    0.0000    0.0000    0.0000 H   0  0  0  0  0  0  0  0  0  0  0  0
    0.0000    0.0000    0.0000 H   0  0  0  0  0  0  0  0  0  0  0  0
    0.0000    0.0000    0.0000 H   0  0  0  0  0  0  0  0  0  0  0  0
    0.0000    0.0000    0.0000 H   0  0  0  0  0  0  0  0  0  0  0  0
    0.0000    0.0000    0.0000 H   0  0  0  0  0  0  0  0  0  0  0  0
    0.0000    0.0000    0.0000 H   0  0  0  0  0  0  0  0  0  0  0  0
    6.9145   -1.5196   -0.3680 C   0  0  0  0  0  0  0  0  0  0  0  0
    6.0250   -2.4829   -0.4265 N   0  0  0  0  0  0  0  0  0  0  0  0
    4.7879   -1.9009   -0.3324 C   0  0  0  0  0  0  0  0  0  0  0  0
    5.0348   -0.5550   -0.2176 C   0  0  0  0  0  0  0  0  0  0  0  0
    6.3909   -0.3318   -0.2421 N   0  0  0  0  0  0  0  0  0  0  0  0
    7.0561    0.9763   -0.1448 C   0  0  0  0  0  0  0  0  0  0  0  0
    3.8737   -2.4244   -0.3499 H   0  0  0  0  0  0  0  0  0  0  0  0
    4.3415    0.2701   -0.1193 H   0  0  0  0  0  0  0  0  0  0  0  0
    6.3724    1.7630   -0.5476 H   0  0  0  0  0  0  0  0  0  0  0  0
    7.3553    1.1267    0.8873 H   0  0  0  0  0  0  0  0  0  0  0  0
    7.9650    1.0131   -0.7795 H   0  0  0  0  0  0  0  0  0  0  0  0
  1  2  1  0
  2  3  1  0
  2 19  1  0
  3  4  1  0
  3  5  2  0
  5  6  1  0
  6  7  1  1
  6 19  1  0
  7  8  2  0
  7 18  1  0
  8  9  1  0
  9 10  2  0
 10 11  1  0
 11 12  1  0
 11 18  2  0
 12 13  2  0
 12 17  1  0
 13 14  1  0
 14 15  2  0
 15 16  1  0
 16 17  2  0
 19 20  2  0
  1 21  1  0
  1 22  1  0
  1 23  1  0
  4 24  1  0
  4 25  1  0
  5 26  1  0
  8 27  1  0
  9 28  1  0
 10 29  1  0
 13 30  1  0
 14 31  1  0
 15 32  1  0
 17 33  1  0
 18 34  1  0
 35 36  2  0
 36 37  1  0
 37 38  2  0
 38 39  1  0
 39 40  1  0
 39 35  1  0
 37 41  1  0
 38 42  1  0
 40 43  1  0
 40 44  1  0
 40 45  1  0
  6 35  1  0
M  CHG  1   5   1
M  END
>  <attachment_point>  (309) 
26

>  <score>  (309) 
<NA>

$$$$
CAT-4j
     RDKit          3D

 49 51  0  0  1  0  0  0  0  0999 V2000
   11.7106   -2.3098    1.2658 C   0  0  0  0  0  0  0  0  0  0  0  0
   13.0313   -2.6523    0.7225 N   0  0  0  0  0  0  0  0  0  0  0  0
   14.2010   -2.6281    1.3773 C   0  0  0  0  0  0  0  0  0  0  0  0
   14.3777   -2.3568    2.6732 N   0  0  0  0  0  0  0  0  0  0  0  0
   15.2217   -2.9197    0.5738 N   0  0  0  0  0  0  0  0  0  0  0  0
   14.7965   -3.2519   -0.7875 C   0  0  1  0  0  0  0  0  0  0  0  0
   15.3794   -2.2443   -1.7949 C   0  0  0  0  0  0  0  0  0  0  0  0
   15.9522   -2.6550   -3.0208 C   0  0  0  0  0  0  0  0  0  0  0  0
   16.4340   -1.6937   -3.9273 C   0  0  0  0  0  0  0  0  0  0  0  0
   16.3364   -0.3224   -3.6308 C   0  0  0  0  0  0  0  0  0  0  0  0
   15.7943    0.1250   -2.4073 C   0  0  0  0  0  0  0  0  0  0  0  0
   15.6711    1.5693   -2.0915 C   0  0  0  0  0  0  0  0  0  0  0  0
   15.3832    2.0354   -0.7903 C   0  0  0  0  0  0  0  0  0  0  0  0
   15.3534    3.4188   -0.5357 C   0  0  0  0  0  0  0  0  0  0  0  0
   15.5968    4.3049   -1.5946 C   0  0  0  0  0  0  0  0  0  0  0  0
   15.8275    3.8920   -2.8511 N   0  0  0  0  0  0  0  0  0  0  0  0
   15.8598    2.5642   -3.0762 C   0  0  0  0  0  0  0  0  0  0  0  0
   15.3327   -0.8573   -1.5012 C   0  0  0  0  0  0  0  0  0  0  0  0
   13.2767   -3.0094   -0.6368 C   0  0  0  0  0  0  0  0  0  0  0  0
   12.3981   -3.0674   -1.5055 O   0  0  0  0  0  0  0  0  0  0  0  0
    0.0000    0.0000    0.0000 H   0  0  0  0  0  0  0  0  0  0  0  0
    0.0000    0.0000    0.0000 H   0  0  0  0  0  0  0  0  0  0  0  0
    0.0000    0.0000    0.0000 H   0  0  0  0  0  0  0  0  0  0  0  0
    0.0000    0.0000    0.0000 H   0  0  0  0  0  0  0  0  0  0  0  0
    0.0000    0.0000    0.0000 H   0  0  0  0  0  0  0  0  0  0  0  0
    0.0000    0.0000    0.0000 H   0  0  0  0  0  0  0  0  0  0  0  0
    0.0000    0.0000    0.0000 H   0  0  0  0  0  0  0  0  0  0  0  0
    0.0000    0.0000    0.0000 H   0  0  0  0  0  0  0  0  0  0  0  0
    0.0000    0.0000    0.0000 H   0  0  0  0  0  0  0  0  0  0  0  0
    0.0000    0.0000    0.0000 H   0  0  0  0  0  0  0  0  0  0  0  0
    0.0000    0.0000    0.0000 H   0  0  0  0  0  0  0  0  0  0  0  0
    0.0000    0.0000    0.0000 H   0  0  0  0  0  0  0  0  0  0  0  0
    0.0000    0.0000    0.0000 H   0  0  0  0  0  0  0  0  0  0  0  0
    0.0000    0.0000    0.0000 H   0  0  0  0  0  0  0  0  0  0  0  0
    6.8831   -1.5127   -0.3663 N   0  0  0  0  0  0  0  0  0  0  0  0
    6.8071   -1.4663   -1.8331 C   0  0  0  0  0  0  0  0  0  0  0  0
    7.7655   -0.3769   -2.3015 C   0  0  0  0  0  0  0  0  0  0  0  0
    5.4109   -1.1415   -2.1976 C   0  0  0  0  0  0  0  0  0  0  0  0
    7.1923   -2.8106   -2.4165 C   0  0  0  0  0  0  0  0  0  0  0  0
    6.7051   -2.4702   -0.0016 H   0  0  0  0  0  0  0  0  0  0  0  0
    8.7419   -0.8932   -2.4672 H   0  0  0  0  0  0  0  0  0  0  0  0
    7.9192    0.3839   -1.5192 H   0  0  0  0  0  0  0  0  0  0  0  0
    7.4200    0.0285   -3.2657 H   0  0  0  0  0  0  0  0  0  0  0  0
    5.2530   -1.4087   -3.2848 H   0  0  0  0  0  0  0  0  0  0  0  0
    5.2090   -0.0349   -2.1664 H   0  0  0  0  0  0  0  0  0  0  0  0
    4.6710   -1.6811   -1.6060 H   0  0  0  0  0  0  0  0  0  0  0  0
    6.2938   -3.4133   -2.6735 H   0  0  0  0  0  0  0  0  0  0  0  0
    7.8367   -3.3124   -1.6544 H   0  0  0  0  0  0  0  0  0  0  0  0
    7.8281   -2.6271   -3.3174 H   0  0  0  0  0  0  0  0  0  0  0  0
  1  2  1  0
  2  3  1  0
  2 19  1  0
  3  4  1  0
  3  5  2  0
  5  6  1  0
  6  7  1  0
  6 19  1  0
  7  8  2  0
  7 18  1  0
  8  9  1  0
  9 10  2  0
 10 11  1  0
 11 12  1  0
 11 18  2  0
 12 13  2  0
 12 17  1  0
 13 14  1  0
 14 15  2  0
 15 16  1  0
 16 17  2  0
 19 20  2  0
  1 21  1  0
  1 22  1  0
  1 23  1  0
  4 24  1  0
  4 25  1  0
  5 26  1  0
  8 27  1  0
  9 28  1  0
 10 29  1  0
 13 30  1  0
 14 31  1  0
 15 32  1  0
 17 33  1  0
 18 34  1  0
 35 36  1  0
 36 37  1  0
 36 38  1  0
 36 39  1  0
 35 40  1  0
 37 41  1  0
 37 42  1  0
 37 43  1  0
 38 44  1  0
 38 45  1  0
 38 46  1  0
 39 47  1  0
 39 48  1  0
 39 49  1  0
  6 35  1  6
M  CHG  1   5   1
M  END
>  <attachment_point>  (310) 
26

>  <score>  (310) 
<NA>

$$$$
CAT-4j
     RDKit          3D

 49 52  0  0  1  0  0  0  0  0999 V2000
   11.7106   -2.3098    1.2658 C   0  0  0  0  0  0  0  0  0  0  0  0
   13.0313   -2.6523    0.7225 N   0  0  0  0  0  0  0  0  0  0  0  0
   14.2010   -2.6281    1.3773 C   0  0  0  0  0  0  0  0  0  0  0  0
   14.3777   -2.3568    2.6732 N   0  0  0  0  0  0  0  0  0  0  0  0
   15.2217   -2.9197    0.5738 N   0  0  0  0  0  0  0  0  0  0  0  0
   14.7965   -3.2519   -0.7875 C   0  0  1  0  0  0  0  0  0  0  0  0
   15.3794   -2.2443   -1.7949 C   0  0  0  0  0  0  0  0  0  0  0  0
   15.9522   -2.6550   -3.0208 C   0  0  0  0  0  0  0  0  0  0  0  0
   16.4340   -1.6937   -3.9273 C   0  0  0  0  0  0  0  0  0  0  0  0
   16.3364   -0.3224   -3.6308 C   0  0  0  0  0  0  0  0  0  0  0  0
   15.7943    0.1250   -2.4073 C   0  0  0  0  0  0  0  0  0  0  0  0
   15.6711    1.5693   -2.0915 C   0  0  0  0  0  0  0  0  0  0  0  0
   15.3832    2.0354   -0.7903 C   0  0  0  0  0  0  0  0  0  0  0  0
   15.3534    3.4188   -0.5357 C   0  0  0  0  0  0  0  0  0  0  0  0
   15.5968    4.3049   -1.5946 C   0  0  0  0  0  0  0  0  0  0  0  0
   15.8275    3.8920   -2.8511 N   0  0  0  0  0  0  0  0  0  0  0  0
   15.8598    2.5642   -3.0762 C   0  0  0  0  0  0  0  0  0  0  0  0
   15.3327   -0.8573   -1.5012 C   0  0  0  0  0  0  0  0  0  0  0  0
   13.2767   -3.0094   -0.6368 C   0  0  0  0  0  0  0  0  0  0  0  0
   12.3981   -3.0674   -1.5055 O   0  0  0  0  0  0  0  0  0  0  0  0
    0.0000    0.0000    0.0000 H   0  0  0  0  0  0  0  0  0  0  0  0
    0.0000    0.0000    0.0000 H   0  0  0  0  0  0  0  0  0  0  0  0
    0.0000    0.0000    0.0000 H   0  0  0  0  0  0  0  0  0  0  0  0
    0.0000    0.0000    0.0000 H   0  0  0  0  0  0  0  0  0  0  0  0
    0.0000    0.0000    0.0000 H   0  0  0  0  0  0  0  0  0  0  0  0
    0.0000    0.0000    0.0000 H   0  0  0  0  0  0  0  0  0  0  0  0
    0.0000    0.0000    0.0000 H   0  0  0  0  0  0  0  0  0  0  0  0
    0.0000    0.0000    0.0000 H   0  0  0  0  0  0  0  0  0  0  0  0
    0.0000    0.0000    0.0000 H   0  0  0  0  0  0  0  0  0  0  0  0
    0.0000    0.0000    0.0000 H   0  0  0  0  0  0  0  0  0  0  0  0
    0.0000    0.0000    0.0000 H   0  0  0  0  0  0  0  0  0  0  0  0
    0.0000    0.0000    0.0000 H   0  0  0  0  0  0  0  0  0  0  0  0
    0.0000    0.0000    0.0000 H   0  0  0  0  0  0  0  0  0  0  0  0
    0.0000    0.0000    0.0000 H   0  0  0  0  0  0  0  0  0  0  0  0
    6.9674   -1.5313   -0.3708 C   0  0  0  0  0  0  0  0  0  0  0  0
    6.0875   -2.3864   -0.6356 O   0  0  0  0  0  0  0  0  0  0  0  0
    6.5272   -0.2330    0.0097 N   0  0  0  0  0  0  0  0  0  0  0  0
    5.1482    0.1119    0.0956 C   0  0  0  0  0  0  0  0  0  0  0  0
    4.4915   -0.0776    1.3149 C   0  0  0  0  0  0  0  0  0  0  0  0
    3.1600    0.2322    1.4751 C   0  0  0  0  0  0  0  0  0  0  0  0
    2.4488    0.7401    0.4203 C   0  0  0  0  0  0  0  0  0  0  0  0
    1.1182    1.0576    0.5540 F   0  0  0  0  0  0  0  0  0  0  0  0
    3.0798    0.9336   -0.7891 C   0  0  0  0  0  0  0  0  0  0  0  0
    4.4144    0.6180   -0.9329 C   0  0  0  0  0  0  0  0  0  0  0  0
    7.2828    0.4694    0.2276 H   0  0  0  0  0  0  0  0  0  0  0  0
    5.0385   -0.4755    2.1509 H   0  0  0  0  0  0  0  0  0  0  0  0
    2.6381    0.0872    2.4252 H   0  0  0  0  0  0  0  0  0  0  0  0
    2.5181    1.3399   -1.6395 H   0  0  0  0  0  0  0  0  0  0  0  0
    4.9355    0.7653   -1.8899 H   0  0  0  0  0  0  0  0  0  0  0  0
  1  2  1  0
  2  3  1  0
  2 19  1  0
  3  4  1  0
  3  5  2  0
  5  6  1  0
  6  7  1  0
  6 19  1  0
  7  8  2  0
  7 18  1  0
  8  9  1  0
  9 10  2  0
 10 11  1  0
 11 12  1  0
 11 18  2  0
 12 13  2  0
 12 17  1  0
 13 14  1  0
 14 15  2  0
 15 16  1  0
 16 17  2  0
 19 20  2  0
  1 21  1  0
  1 22  1  0
  1 23  1  0
  4 24  1  0
  4 25  1  0
  5 26  1  0
  8 27  1  0
  9 28  1  0
 10 29  1  0
 13 30  1  0
 14 31  1  0
 15 32  1  0
 17 33  1  0
 18 34  1  0
 35 36  2  0
 35 37  1  0
 37 38  1  0
 38 39  2  0
 39 40  1  0
 40 41  2  0
 41 42  1  0
 41 43  1  0
 43 44  2  0
 44 38  1  0
 37 45  1  0
 39 46  1  0
 40 47  1  0
 43 48  1  0
 44 49  1  0
  6 35  1  6
M  CHG  1   5   1
M  END
>  <attachment_point>  (311) 
26

>  <score>  (311) 
<NA>

$$$$
CAT-4j
     RDKit          3D

 41 44  0  0  1  0  0  0  0  0999 V2000
   11.7106   -2.3098    1.2658 C   0  0  0  0  0  0  0  0  0  0  0  0
   13.0313   -2.6523    0.7225 N   0  0  0  0  0  0  0  0  0  0  0  0
   14.2010   -2.6281    1.3773 C   0  0  0  0  0  0  0  0  0  0  0  0
   14.3777   -2.3568    2.6732 N   0  0  0  0  0  0  0  0  0  0  0  0
   15.2217   -2.9197    0.5738 N   0  0  0  0  0  0  0  0  0  0  0  0
   14.7965   -3.2519   -0.7875 C   0  0  1  0  0  0  0  0  0  0  0  0
   15.3794   -2.2443   -1.7949 C   0  0  0  0  0  0  0  0  0  0  0  0
   15.9522   -2.6550   -3.0208 C   0  0  0  0  0  0  0  0  0  0  0  0
   16.4340   -1.6937   -3.9273 C   0  0  0  0  0  0  0  0  0  0  0  0
   16.3364   -0.3224   -3.6308 C   0  0  0  0  0  0  0  0  0  0  0  0
   15.7943    0.1250   -2.4073 C   0  0  0  0  0  0  0  0  0  0  0  0
   15.6711    1.5693   -2.0915 C   0  0  0  0  0  0  0  0  0  0  0  0
   15.3832    2.0354   -0.7903 C   0  0  0  0  0  0  0  0  0  0  0  0
   15.3534    3.4188   -0.5357 C   0  0  0  0  0  0  0  0  0  0  0  0
   15.5968    4.3049   -1.5946 C   0  0  0  0  0  0  0  0  0  0  0  0
   15.8275    3.8920   -2.8511 N   0  0  0  0  0  0  0  0  0  0  0  0
   15.8598    2.5642   -3.0762 C   0  0  0  0  0  0  0  0  0  0  0  0
   15.3327   -0.8573   -1.5012 C   0  0  0  0  0  0  0  0  0  0  0  0
   13.2767   -3.0094   -0.6368 C   0  0  0  0  0  0  0  0  0  0  0  0
   12.3981   -3.0674   -1.5055 O   0  0  0  0  0  0  0  0  0  0  0  0
    0.0000    0.0000    0.0000 H   0  0  0  0  0  0  0  0  0  0  0  0
    0.0000    0.0000    0.0000 H   0  0  0  0  0  0  0  0  0  0  0  0
    0.0000    0.0000    0.0000 H   0  0  0  0  0  0  0  0  0  0  0  0
    0.0000    0.0000    0.0000 H   0  0  0  0  0  0  0  0  0  0  0  0
    0.0000    0.0000    0.0000 H   0  0  0  0  0  0  0  0  0  0  0  0
    0.0000    0.0000    0.0000 H   0  0  0  0  0  0  0  0  0  0  0  0
    0.0000    0.0000    0.0000 H   0  0  0  0  0  0  0  0  0  0  0  0
    0.0000    0.0000    0.0000 H   0  0  0  0  0  0  0  0  0  0  0  0
    0.0000    0.0000    0.0000 H   0  0  0  0  0  0  0  0  0  0  0  0
    0.0000    0.0000    0.0000 H   0  0  0  0  0  0  0  0  0  0  0  0
    0.0000    0.0000    0.0000 H   0  0  0  0  0  0  0  0  0  0  0  0
    0.0000    0.0000    0.0000 H   0  0  0  0  0  0  0  0  0  0  0  0
    0.0000    0.0000    0.0000 H   0  0  0  0  0  0  0  0  0  0  0  0
    0.0000    0.0000    0.0000 H   0  0  0  0  0  0  0  0  0  0  0  0
    6.9153   -1.5198   -0.3680 C   0  0  0  0  0  0  0  0  0  0  0  0
    6.4295   -0.2589   -0.2822 C   0  0  0  0  0  0  0  0  0  0  0  0
    5.0844   -0.4211   -0.2343 N   0  0  0  0  0  0  0  0  0  0  0  0
    4.8338   -1.7397   -0.2923 C   0  0  0  0  0  0  0  0  0  0  0  0
    5.9920   -2.4058   -0.3754 O   0  0  0  0  0  0  0  0  0  0  0  0
    6.9996    0.6584   -0.2584 H   0  0  0  0  0  0  0  0  0  0  0  0
    3.8759   -2.2545   -0.2789 H   0  0  0  0  0  0  0  0  0  0  0  0
  1  2  1  0
  2  3  1  0
  2 19  1  0
  3  4  1  0
  3  5  2  0
  5  6  1  0
  6  7  1  1
  6 19  1  0
  7  8  2  0
  7 18  1  0
  8  9  1  0
  9 10  2  0
 10 11  1  0
 11 12  1  0
 11 18  2  0
 12 13  2  0
 12 17  1  0
 13 14  1  0
 14 15  2  0
 15 16  1  0
 16 17  2  0
 19 20  2  0
  1 21  1  0
  1 22  1  0
  1 23  1  0
  4 24  1  0
  4 25  1  0
  5 26  1  0
  8 27  1  0
  9 28  1  0
 10 29  1  0
 13 30  1  0
 14 31  1  0
 15 32  1  0
 17 33  1  0
 18 34  1  0
 35 36  2  0
 36 37  1  0
 37 38  2  0
 38 39  1  0
 39 35  1  0
 36 40  1  0
 38 41  1  0
  6 35  1  0
M  CHG  1   5   1
M  END
>  <attachment_point>  (312) 
26

>  <score>  (312) 
<NA>

$$$$
CAT-4j
     RDKit          3D

 48 51  0  0  1  0  0  0  0  0999 V2000
   11.7106   -2.3098    1.2658 C   0  0  0  0  0  0  0  0  0  0  0  0
   13.0313   -2.6523    0.7225 N   0  0  0  0  0  0  0  0  0  0  0  0
   14.2010   -2.6281    1.3773 C   0  0  0  0  0  0  0  0  0  0  0  0
   14.3777   -2.3568    2.6732 N   0  0  0  0  0  0  0  0  0  0  0  0
   15.2217   -2.9197    0.5738 N   0  0  0  0  0  0  0  0  0  0  0  0
   14.7965   -3.2519   -0.7875 C   0  0  1  0  0  0  0  0  0  0  0  0
   15.3794   -2.2443   -1.7949 C   0  0  0  0  0  0  0  0  0  0  0  0
   15.9522   -2.6550   -3.0208 C   0  0  0  0  0  0  0  0  0  0  0  0
   16.4340   -1.6937   -3.9273 C   0  0  0  0  0  0  0  0  0  0  0  0
   16.3364   -0.3224   -3.6308 C   0  0  0  0  0  0  0  0  0  0  0  0
   15.7943    0.1250   -2.4073 C   0  0  0  0  0  0  0  0  0  0  0  0
   15.6711    1.5693   -2.0915 C   0  0  0  0  0  0  0  0  0  0  0  0
   15.3832    2.0354   -0.7903 C   0  0  0  0  0  0  0  0  0  0  0  0
   15.3534    3.4188   -0.5357 C   0  0  0  0  0  0  0  0  0  0  0  0
   15.5968    4.3049   -1.5946 C   0  0  0  0  0  0  0  0  0  0  0  0
   15.8275    3.8920   -2.8511 N   0  0  0  0  0  0  0  0  0  0  0  0
   15.8598    2.5642   -3.0762 C   0  0  0  0  0  0  0  0  0  0  0  0
   15.3327   -0.8573   -1.5012 C   0  0  0  0  0  0  0  0  0  0  0  0
   13.2767   -3.0094   -0.6368 C   0  0  0  0  0  0  0  0  0  0  0  0
   12.3981   -3.0674   -1.5055 O   0  0  0  0  0  0  0  0  0  0  0  0
    0.0000    0.0000    0.0000 H   0  0  0  0  0  0  0  0  0  0  0  0
    0.0000    0.0000    0.0000 H   0  0  0  0  0  0  0  0  0  0  0  0
    0.0000    0.0000    0.0000 H   0  0  0  0  0  0  0  0  0  0  0  0
    0.0000    0.0000    0.0000 H   0  0  0  0  0  0  0  0  0  0  0  0
    0.0000    0.0000    0.0000 H   0  0  0  0  0  0  0  0  0  0  0  0
    0.0000    0.0000    0.0000 H   0  0  0  0  0  0  0  0  0  0  0  0
    0.0000    0.0000    0.0000 H   0  0  0  0  0  0  0  0  0  0  0  0
    0.0000    0.0000    0.0000 H   0  0  0  0  0  0  0  0  0  0  0  0
    0.0000    0.0000    0.0000 H   0  0  0  0  0  0  0  0  0  0  0  0
    0.0000    0.0000    0.0000 H   0  0  0  0  0  0  0  0  0  0  0  0
    0.0000    0.0000    0.0000 H   0  0  0  0  0  0  0  0  0  0  0  0
    0.0000    0.0000    0.0000 H   0  0  0  0  0  0  0  0  0  0  0  0
    0.0000    0.0000    0.0000 H   0  0  0  0  0  0  0  0  0  0  0  0
    0.0000    0.0000    0.0000 H   0  0  0  0  0  0  0  0  0  0  0  0
    6.9149   -1.5197   -0.3680 O   0  0  0  0  0  0  0  0  0  0  0  0
    6.9002   -1.1987    1.0020 C   0  0  0  0  0  0  0  0  0  0  0  0
    7.7991   -0.0750    1.3029 C   0  0  0  0  0  0  0  0  0  0  0  0
    9.1067   -0.3783    1.6265 C   0  0  0  0  0  0  0  0  0  0  0  0
    9.9680    0.6737    1.9133 C   0  0  0  0  0  0  0  0  0  0  0  0
    9.5137    1.9792    1.8716 C   0  0  0  0  0  0  0  0  0  0  0  0
    8.2374    2.2478    1.5541 N   0  0  0  0  0  0  0  0  0  0  0  0
    7.3757    1.2545    1.2707 C   0  0  0  0  0  0  0  0  0  0  0  0
    5.8563   -1.0226    1.2472 H   0  0  0  0  0  0  0  0  0  0  0  0
    7.2211   -2.0920    1.6074 H   0  0  0  0  0  0  0  0  0  0  0  0
    9.4730   -1.4144    1.6611 H   0  0  0  0  0  0  0  0  0  0  0  0
   10.9835    0.4546    2.1657 H   0  0  0  0  0  0  0  0  0  0  0  0
   10.2324    2.7714    2.1059 H   0  0  0  0  0  0  0  0  0  0  0  0
    6.3415    1.4189    1.0102 H   0  0  0  0  0  0  0  0  0  0  0  0
  1  2  1  0
  2  3  1  0
  2 19  1  0
  3  4  1  0
  3  5  2  0
  5  6  1  0
  6  7  1  0
  6 19  1  0
  7  8  2  0
  7 18  1  0
  8  9  1  0
  9 10  2  0
 10 11  1  0
 11 12  1  0
 11 18  2  0
 12 13  2  0
 12 17  1  0
 13 14  1  0
 14 15  2  0
 15 16  1  0
 16 17  2  0
 19 20  2  0
  1 21  1  0
  1 22  1  0
  1 23  1  0
  4 24  1  0
  4 25  1  0
  5 26  1  0
  8 27  1  0
  9 28  1  0
 10 29  1  0
 13 30  1  0
 14 31  1  0
 15 32  1  0
 17 33  1  0
 18 34  1  0
 35 36  1  0
 36 37  1  0
 37 38  2  0
 38 39  1  0
 39 40  2  0
 40 41  1  0
 41 42  2  0
 42 37  1  0
 36 43  1  0
 36 44  1  0
 38 45  1  0
 39 46  1  0
 40 47  1  0
 42 48  1  0
  6 35  1  6
M  CHG  1   5   1
M  END
>  <attachment_point>  (313) 
26

>  <score>  (313) 
<NA>

$$$$
CAT-4j
     RDKit          3D

 45 47  0  0  1  0  0  0  0  0999 V2000
   11.7106   -2.3098    1.2658 C   0  0  0  0  0  0  0  0  0  0  0  0
   13.0313   -2.6523    0.7225 N   0  0  0  0  0  0  0  0  0  0  0  0
   14.2010   -2.6281    1.3773 C   0  0  0  0  0  0  0  0  0  0  0  0
   14.3777   -2.3568    2.6732 N   0  0  0  0  0  0  0  0  0  0  0  0
   15.2217   -2.9197    0.5738 N   0  0  0  0  0  0  0  0  0  0  0  0
   14.7965   -3.2519   -0.7875 C   0  0  1  0  0  0  0  0  0  0  0  0
   15.3794   -2.2443   -1.7949 C   0  0  0  0  0  0  0  0  0  0  0  0
   15.9522   -2.6550   -3.0208 C   0  0  0  0  0  0  0  0  0  0  0  0
   16.4340   -1.6937   -3.9273 C   0  0  0  0  0  0  0  0  0  0  0  0
   16.3364   -0.3224   -3.6308 C   0  0  0  0  0  0  0  0  0  0  0  0
   15.7943    0.1250   -2.4073 C   0  0  0  0  0  0  0  0  0  0  0  0
   15.6711    1.5693   -2.0915 C   0  0  0  0  0  0  0  0  0  0  0  0
   15.3832    2.0354   -0.7903 C   0  0  0  0  0  0  0  0  0  0  0  0
   15.3534    3.4188   -0.5357 C   0  0  0  0  0  0  0  0  0  0  0  0
   15.5968    4.3049   -1.5946 C   0  0  0  0  0  0  0  0  0  0  0  0
   15.8275    3.8920   -2.8511 N   0  0  0  0  0  0  0  0  0  0  0  0
   15.8598    2.5642   -3.0762 C   0  0  0  0  0  0  0  0  0  0  0  0
   15.3327   -0.8573   -1.5012 C   0  0  0  0  0  0  0  0  0  0  0  0
   13.2767   -3.0094   -0.6368 C   0  0  0  0  0  0  0  0  0  0  0  0
   12.3981   -3.0674   -1.5055 O   0  0  0  0  0  0  0  0  0  0  0  0
    0.0000    0.0000    0.0000 H   0  0  0  0  0  0  0  0  0  0  0  0
    0.0000    0.0000    0.0000 H   0  0  0  0  0  0  0  0  0  0  0  0
    0.0000    0.0000    0.0000 H   0  0  0  0  0  0  0  0  0  0  0  0
    0.0000    0.0000    0.0000 H   0  0  0  0  0  0  0  0  0  0  0  0
    0.0000    0.0000    0.0000 H   0  0  0  0  0  0  0  0  0  0  0  0
    0.0000    0.0000    0.0000 H   0  0  0  0  0  0  0  0  0  0  0  0
    0.0000    0.0000    0.0000 H   0  0  0  0  0  0  0  0  0  0  0  0
    0.0000    0.0000    0.0000 H   0  0  0  0  0  0  0  0  0  0  0  0
    0.0000    0.0000    0.0000 H   0  0  0  0  0  0  0  0  0  0  0  0
    0.0000    0.0000    0.0000 H   0  0  0  0  0  0  0  0  0  0  0  0
    0.0000    0.0000    0.0000 H   0  0  0  0  0  0  0  0  0  0  0  0
    0.0000    0.0000    0.0000 H   0  0  0  0  0  0  0  0  0  0  0  0
    0.0000    0.0000    0.0000 H   0  0  0  0  0  0  0  0  0  0  0  0
    0.0000    0.0000    0.0000 H   0  0  0  0  0  0  0  0  0  0  0  0
    7.0164   -1.5420   -0.3734 C   0  0  0  0  0  0  0  0  0  0  0  0
    6.6334   -0.1218   -0.1478 C   0  0  0  0  0  0  0  0  0  0  0  0
    7.4465    0.8125   -0.0202 O   0  0  0  0  0  0  0  0  0  0  0  0
    5.2453    0.1901   -0.0727 N   0  0  0  0  0  0  0  0  0  0  0  0
    4.7443    1.5319    0.1432 C   0  0  0  0  0  0  0  0  0  0  0  0
    6.4804   -2.1282    0.4187 H   0  0  0  0  0  0  0  0  0  0  0  0
    6.5114   -1.8608   -1.3280 H   0  0  0  0  0  0  0  0  0  0  0  0
    4.5348   -0.5678   -0.1752 H   0  0  0  0  0  0  0  0  0  0  0  0
    5.5222    2.2589    0.3909 H   0  0  0  0  0  0  0  0  0  0  0  0
    4.0188    1.4753    1.0013 H   0  0  0  0  0  0  0  0  0  0  0  0
    4.2383    1.8390   -0.7965 H   0  0  0  0  0  0  0  0  0  0  0  0
  1  2  1  0
  2  3  1  0
  2 19  1  0
  3  4  1  0
  3  5  2  0
  5  6  1  0
  6  7  1  0
  6 19  1  0
  7  8  2  0
  7 18  1  0
  8  9  1  0
  9 10  2  0
 10 11  1  0
 11 12  1  0
 11 18  2  0
 12 13  2  0
 12 17  1  0
 13 14  1  0
 14 15  2  0
 15 16  1  0
 16 17  2  0
 19 20  2  0
  1 21  1  0
  1 22  1  0
  1 23  1  0
  4 24  1  0
  4 25  1  0
  5 26  1  0
  8 27  1  0
  9 28  1  0
 10 29  1  0
 13 30  1  0
 14 31  1  0
 15 32  1  0
 17 33  1  0
 18 34  1  0
 35 36  1  0
 36 37  2  0
 36 38  1  0
 38 39  1  0
 35 40  1  0
 35 41  1  0
 38 42  1  0
 39 43  1  0
 39 44  1  0
 39 45  1  0
  6 35  1  6
M  CHG  1   5   1
M  END
>  <attachment_point>  (314) 
26

>  <score>  (314) 
<NA>

$$$$
CAT-4j
     RDKit          3D

 48 51  0  0  1  0  0  0  0  0999 V2000
   11.7106   -2.3098    1.2658 C   0  0  0  0  0  0  0  0  0  0  0  0
   13.0313   -2.6523    0.7225 N   0  0  0  0  0  0  0  0  0  0  0  0
   14.2010   -2.6281    1.3773 C   0  0  0  0  0  0  0  0  0  0  0  0
   14.3777   -2.3568    2.6732 N   0  0  0  0  0  0  0  0  0  0  0  0
   15.2217   -2.9197    0.5738 N   0  0  0  0  0  0  0  0  0  0  0  0
   14.7965   -3.2519   -0.7875 C   0  0  1  0  0  0  0  0  0  0  0  0
   15.3794   -2.2443   -1.7949 C   0  0  0  0  0  0  0  0  0  0  0  0
   15.9522   -2.6550   -3.0208 C   0  0  0  0  0  0  0  0  0  0  0  0
   16.4340   -1.6937   -3.9273 C   0  0  0  0  0  0  0  0  0  0  0  0
   16.3364   -0.3224   -3.6308 C   0  0  0  0  0  0  0  0  0  0  0  0
   15.7943    0.1250   -2.4073 C   0  0  0  0  0  0  0  0  0  0  0  0
   15.6711    1.5693   -2.0915 C   0  0  0  0  0  0  0  0  0  0  0  0
   15.3832    2.0354   -0.7903 C   0  0  0  0  0  0  0  0  0  0  0  0
   15.3534    3.4188   -0.5357 C   0  0  0  0  0  0  0  0  0  0  0  0
   15.5968    4.3049   -1.5946 C   0  0  0  0  0  0  0  0  0  0  0  0
   15.8275    3.8920   -2.8511 N   0  0  0  0  0  0  0  0  0  0  0  0
   15.8598    2.5642   -3.0762 C   0  0  0  0  0  0  0  0  0  0  0  0
   15.3327   -0.8573   -1.5012 C   0  0  0  0  0  0  0  0  0  0  0  0
   13.2767   -3.0094   -0.6368 C   0  0  0  0  0  0  0  0  0  0  0  0
   12.3981   -3.0674   -1.5055 O   0  0  0  0  0  0  0  0  0  0  0  0
    0.0000    0.0000    0.0000 H   0  0  0  0  0  0  0  0  0  0  0  0
    0.0000    0.0000    0.0000 H   0  0  0  0  0  0  0  0  0  0  0  0
    0.0000    0.0000    0.0000 H   0  0  0  0  0  0  0  0  0  0  0  0
    0.0000    0.0000    0.0000 H   0  0  0  0  0  0  0  0  0  0  0  0
    0.0000    0.0000    0.0000 H   0  0  0  0  0  0  0  0  0  0  0  0
    0.0000    0.0000    0.0000 H   0  0  0  0  0  0  0  0  0  0  0  0
    0.0000    0.0000    0.0000 H   0  0  0  0  0  0  0  0  0  0  0  0
    0.0000    0.0000    0.0000 H   0  0  0  0  0  0  0  0  0  0  0  0
    0.0000    0.0000    0.0000 H   0  0  0  0  0  0  0  0  0  0  0  0
    0.0000    0.0000    0.0000 H   0  0  0  0  0  0  0  0  0  0  0  0
    0.0000    0.0000    0.0000 H   0  0  0  0  0  0  0  0  0  0  0  0
    0.0000    0.0000    0.0000 H   0  0  0  0  0  0  0  0  0  0  0  0
    0.0000    0.0000    0.0000 H   0  0  0  0  0  0  0  0  0  0  0  0
    0.0000    0.0000    0.0000 H   0  0  0  0  0  0  0  0  0  0  0  0
    6.9451   -1.5264   -0.3696 N   0  0  0  0  0  0  0  0  0  0  0  0
    6.2590   -1.2111   -1.5330 C   0  0  0  0  0  0  0  0  0  0  0  0
    6.9326   -1.2158   -2.6160 O   0  0  0  0  0  0  0  0  0  0  0  0
    4.8439   -0.8818   -1.5907 C   0  0  0  0  0  0  0  0  0  0  0  0
    4.2925   -0.5888   -2.8155 C   0  0  0  0  0  0  0  0  0  0  0  0
    2.9378   -0.2632   -2.9466 C   0  0  0  0  0  0  0  0  0  0  0  0
    2.1287   -0.2322   -1.8312 C   0  0  0  0  0  0  0  0  0  0  0  0
    2.7223   -0.5325   -0.6228 C   0  0  0  0  0  0  0  0  0  0  0  0
    4.0453   -0.8483   -0.5116 N   0  0  0  0  0  0  0  0  0  0  0  0
    6.5045   -1.5516    0.5461 H   0  0  0  0  0  0  0  0  0  0  0  0
    4.8949   -0.6014   -3.7218 H   0  0  0  0  0  0  0  0  0  0  0  0
    2.4872   -0.0300   -3.9014 H   0  0  0  0  0  0  0  0  0  0  0  0
    1.0715    0.0141   -1.8762 H   0  0  0  0  0  0  0  0  0  0  0  0
    2.1610   -0.5324    0.3064 H   0  0  0  0  0  0  0  0  0  0  0  0
  1  2  1  0
  2  3  1  0
  2 19  1  0
  3  4  1  0
  3  5  2  0
  5  6  1  0
  6  7  1  0
  6 19  1  0
  7  8  2  0
  7 18  1  0
  8  9  1  0
  9 10  2  0
 10 11  1  0
 11 12  1  0
 11 18  2  0
 12 13  2  0
 12 17  1  0
 13 14  1  0
 14 15  2  0
 15 16  1  0
 16 17  2  0
 19 20  2  0
  1 21  1  0
  1 22  1  0
  1 23  1  0
  4 24  1  0
  4 25  1  0
  5 26  1  0
  8 27  1  0
  9 28  1  0
 10 29  1  0
 13 30  1  0
 14 31  1  0
 15 32  1  0
 17 33  1  0
 18 34  1  0
 35 36  1  0
 36 37  2  0
 36 38  1  0
 38 39  2  0
 39 40  1  0
 40 41  2  0
 41 42  1  0
 42 43  2  0
 43 38  1  0
 35 44  1  0
 39 45  1  0
 40 46  1  0
 41 47  1  0
 42 48  1  0
  6 35  1  6
M  CHG  1   5   1
M  END
>  <attachment_point>  (315) 
26

>  <score>  (315) 
<NA>

$$$$
CAT-4j
     RDKit          3D

 45 48  0  0  1  0  0  0  0  0999 V2000
   11.7106   -2.3098    1.2658 C   0  0  0  0  0  0  0  0  0  0  0  0
   13.0313   -2.6523    0.7225 N   0  0  0  0  0  0  0  0  0  0  0  0
   14.2010   -2.6281    1.3773 C   0  0  0  0  0  0  0  0  0  0  0  0
   14.3777   -2.3568    2.6732 N   0  0  0  0  0  0  0  0  0  0  0  0
   15.2217   -2.9197    0.5738 N   0  0  0  0  0  0  0  0  0  0  0  0
   14.7965   -3.2519   -0.7875 C   0  0  1  0  0  0  0  0  0  0  0  0
   15.3794   -2.2443   -1.7949 C   0  0  0  0  0  0  0  0  0  0  0  0
   15.9522   -2.6550   -3.0208 C   0  0  0  0  0  0  0  0  0  0  0  0
   16.4340   -1.6937   -3.9273 C   0  0  0  0  0  0  0  0  0  0  0  0
   16.3364   -0.3224   -3.6308 C   0  0  0  0  0  0  0  0  0  0  0  0
   15.7943    0.1250   -2.4073 C   0  0  0  0  0  0  0  0  0  0  0  0
   15.6711    1.5693   -2.0915 C   0  0  0  0  0  0  0  0  0  0  0  0
   15.3832    2.0354   -0.7903 C   0  0  0  0  0  0  0  0  0  0  0  0
   15.3534    3.4188   -0.5357 C   0  0  0  0  0  0  0  0  0  0  0  0
   15.5968    4.3049   -1.5946 C   0  0  0  0  0  0  0  0  0  0  0  0
   15.8275    3.8920   -2.8511 N   0  0  0  0  0  0  0  0  0  0  0  0
   15.8598    2.5642   -3.0762 C   0  0  0  0  0  0  0  0  0  0  0  0
   15.3327   -0.8573   -1.5012 C   0  0  0  0  0  0  0  0  0  0  0  0
   13.2767   -3.0094   -0.6368 C   0  0  0  0  0  0  0  0  0  0  0  0
   12.3981   -3.0674   -1.5055 O   0  0  0  0  0  0  0  0  0  0  0  0
    0.0000    0.0000    0.0000 H   0  0  0  0  0  0  0  0  0  0  0  0
    0.0000    0.0000    0.0000 H   0  0  0  0  0  0  0  0  0  0  0  0
    0.0000    0.0000    0.0000 H   0  0  0  0  0  0  0  0  0  0  0  0
    0.0000    0.0000    0.0000 H   0  0  0  0  0  0  0  0  0  0  0  0
    0.0000    0.0000    0.0000 H   0  0  0  0  0  0  0  0  0  0  0  0
    0.0000    0.0000    0.0000 H   0  0  0  0  0  0  0  0  0  0  0  0
    0.0000    0.0000    0.0000 H   0  0  0  0  0  0  0  0  0  0  0  0
    0.0000    0.0000    0.0000 H   0  0  0  0  0  0  0  0  0  0  0  0
    0.0000    0.0000    0.0000 H   0  0  0  0  0  0  0  0  0  0  0  0
    0.0000    0.0000    0.0000 H   0  0  0  0  0  0  0  0  0  0  0  0
    0.0000    0.0000    0.0000 H   0  0  0  0  0  0  0  0  0  0  0  0
    0.0000    0.0000    0.0000 H   0  0  0  0  0  0  0  0  0  0  0  0
    0.0000    0.0000    0.0000 H   0  0  0  0  0  0  0  0  0  0  0  0
    0.0000    0.0000    0.0000 H   0  0  0  0  0  0  0  0  0  0  0  0
    6.9330   -1.5237   -0.3690 O   0  0  0  0  0  0  0  0  0  0  0  0
    6.8037   -0.3370    0.3688 C   0  0  0  0  0  0  0  0  0  0  0  0
    6.7984    0.8972   -0.2109 C   0  0  0  0  0  0  0  0  0  0  0  0
    6.6692    2.0440    0.5463 C   0  0  0  0  0  0  0  0  0  0  0  0
    6.5450    1.9077    1.9115 C   0  0  0  0  0  0  0  0  0  0  0  0
    6.5513    0.6930    2.4708 N   0  0  0  0  0  0  0  0  0  0  0  0
    6.6765   -0.4210    1.7385 C   0  0  0  0  0  0  0  0  0  0  0  0
    6.8999    0.9445   -1.2940 H   0  0  0  0  0  0  0  0  0  0  0  0
    6.6673    3.0196    0.0638 H   0  0  0  0  0  0  0  0  0  0  0  0
    6.4421    2.8258    2.5117 H   0  0  0  0  0  0  0  0  0  0  0  0
    6.6829   -1.4227    2.1871 H   0  0  0  0  0  0  0  0  0  0  0  0
  1  2  1  0
  2  3  1  0
  2 19  1  0
  3  4  1  0
  3  5  2  0
  5  6  1  0
  6  7  1  0
  6 19  1  0
  7  8  2  0
  7 18  1  0
  8  9  1  0
  9 10  2  0
 10 11  1  0
 11 12  1  0
 11 18  2  0
 12 13  2  0
 12 17  1  0
 13 14  1  0
 14 15  2  0
 15 16  1  0
 16 17  2  0
 19 20  2  0
  1 21  1  0
  1 22  1  0
  1 23  1  0
  4 24  1  0
  4 25  1  0
  5 26  1  0
  8 27  1  0
  9 28  1  0
 10 29  1  0
 13 30  1  0
 14 31  1  0
 15 32  1  0
 17 33  1  0
 18 34  1  0
 35 36  1  0
 36 37  2  0
 37 38  1  0
 38 39  2  0
 39 40  1  0
 40 41  2  0
 41 36  1  0
 37 42  1  0
 38 43  1  0
 39 44  1  0
 41 45  1  0
  6 35  1  6
M  CHG  1   5   1
M  END
>  <attachment_point>  (316) 
26

>  <score>  (316) 
<NA>

$$$$
CAT-4j
     RDKit          3D

 39 41  0  0  1  0  0  0  0  0999 V2000
   11.7106   -2.3098    1.2658 C   0  0  0  0  0  0  0  0  0  0  0  0
   13.0313   -2.6523    0.7225 N   0  0  0  0  0  0  0  0  0  0  0  0
   14.2010   -2.6281    1.3773 C   0  0  0  0  0  0  0  0  0  0  0  0
   14.3777   -2.3568    2.6732 N   0  0  0  0  0  0  0  0  0  0  0  0
   15.2217   -2.9197    0.5738 N   0  0  0  0  0  0  0  0  0  0  0  0
   14.7965   -3.2519   -0.7875 C   0  0  1  0  0  0  0  0  0  0  0  0
   15.3794   -2.2443   -1.7949 C   0  0  0  0  0  0  0  0  0  0  0  0
   15.9522   -2.6550   -3.0208 C   0  0  0  0  0  0  0  0  0  0  0  0
   16.4340   -1.6937   -3.9273 C   0  0  0  0  0  0  0  0  0  0  0  0
   16.3364   -0.3224   -3.6308 C   0  0  0  0  0  0  0  0  0  0  0  0
   15.7943    0.1250   -2.4073 C   0  0  0  0  0  0  0  0  0  0  0  0
   15.6711    1.5693   -2.0915 C   0  0  0  0  0  0  0  0  0  0  0  0
   15.3832    2.0354   -0.7903 C   0  0  0  0  0  0  0  0  0  0  0  0
   15.3534    3.4188   -0.5357 C   0  0  0  0  0  0  0  0  0  0  0  0
   15.5968    4.3049   -1.5946 C   0  0  0  0  0  0  0  0  0  0  0  0
   15.8275    3.8920   -2.8511 N   0  0  0  0  0  0  0  0  0  0  0  0
   15.8598    2.5642   -3.0762 C   0  0  0  0  0  0  0  0  0  0  0  0
   15.3327   -0.8573   -1.5012 C   0  0  0  0  0  0  0  0  0  0  0  0
   13.2767   -3.0094   -0.6368 C   0  0  0  0  0  0  0  0  0  0  0  0
   12.3981   -3.0674   -1.5055 O   0  0  0  0  0  0  0  0  0  0  0  0
    0.0000    0.0000    0.0000 H   0  0  0  0  0  0  0  0  0  0  0  0
    0.0000    0.0000    0.0000 H   0  0  0  0  0  0  0  0  0  0  0  0
    0.0000    0.0000    0.0000 H   0  0  0  0  0  0  0  0  0  0  0  0
    0.0000    0.0000    0.0000 H   0  0  0  0  0  0  0  0  0  0  0  0
    0.0000    0.0000    0.0000 H   0  0  0  0  0  0  0  0  0  0  0  0
    0.0000    0.0000    0.0000 H   0  0  0  0  0  0  0  0  0  0  0  0
    0.0000    0.0000    0.0000 H   0  0  0  0  0  0  0  0  0  0  0  0
    0.0000    0.0000    0.0000 H   0  0  0  0  0  0  0  0  0  0  0  0
    0.0000    0.0000    0.0000 H   0  0  0  0  0  0  0  0  0  0  0  0
    0.0000    0.0000    0.0000 H   0  0  0  0  0  0  0  0  0  0  0  0
    0.0000    0.0000    0.0000 H   0  0  0  0  0  0  0  0  0  0  0  0
    0.0000    0.0000    0.0000 H   0  0  0  0  0  0  0  0  0  0  0  0
    0.0000    0.0000    0.0000 H   0  0  0  0  0  0  0  0  0  0  0  0
    0.0000    0.0000    0.0000 H   0  0  0  0  0  0  0  0  0  0  0  0
    6.7798   -1.4900   -0.3608 C   0  0  0  0  0  0  0  0  0  0  0  0
    6.6997   -1.4597    1.3815 S   0  0  0  0  0  0  0  0  0  0  0  0
    6.6103   -2.4056   -0.8939 H   0  0  0  0  0  0  0  0  0  0  0  0
    6.9784   -0.5907   -0.9085 H   0  0  0  0  0  0  0  0  0  0  0  0
    5.8094   -2.4492    1.8689 H   0  0  0  0  0  0  0  0  0  0  0  0
  1  2  1  0
  2  3  1  0
  2 19  1  0
  3  4  1  0
  3  5  2  0
  5  6  1  0
  6  7  1  0
  6 19  1  0
  7  8  2  0
  7 18  1  0
  8  9  1  0
  9 10  2  0
 10 11  1  0
 11 12  1  0
 11 18  2  0
 12 13  2  0
 12 17  1  0
 13 14  1  0
 14 15  2  0
 15 16  1  0
 16 17  2  0
 19 20  2  0
  1 21  1  0
  1 22  1  0
  1 23  1  0
  4 24  1  0
  4 25  1  0
  5 26  1  0
  8 27  1  0
  9 28  1  0
 10 29  1  0
 13 30  1  0
 14 31  1  0
 15 32  1  0
 17 33  1  0
 18 34  1  0
 35 36  1  0
 35 37  1  0
 35 38  1  0
 36 39  1  0
  6 35  1  6
M  CHG  1   5   1
M  END
>  <attachment_point>  (317) 
26

>  <score>  (317) 
<NA>

$$$$
CAT-4j
     RDKit          3D

 46 49  0  0  1  0  0  0  0  0999 V2000
   11.7106   -2.3098    1.2658 C   0  0  0  0  0  0  0  0  0  0  0  0
   13.0313   -2.6523    0.7225 N   0  0  0  0  0  0  0  0  0  0  0  0
   14.2010   -2.6281    1.3773 C   0  0  0  0  0  0  0  0  0  0  0  0
   14.3777   -2.3568    2.6732 N   0  0  0  0  0  0  0  0  0  0  0  0
   15.2217   -2.9197    0.5738 N   0  0  0  0  0  0  0  0  0  0  0  0
   14.7965   -3.2519   -0.7875 C   0  0  1  0  0  0  0  0  0  0  0  0
   15.3794   -2.2443   -1.7949 C   0  0  0  0  0  0  0  0  0  0  0  0
   15.9522   -2.6550   -3.0208 C   0  0  0  0  0  0  0  0  0  0  0  0
   16.4340   -1.6937   -3.9273 C   0  0  0  0  0  0  0  0  0  0  0  0
   16.3364   -0.3224   -3.6308 C   0  0  0  0  0  0  0  0  0  0  0  0
   15.7943    0.1250   -2.4073 C   0  0  0  0  0  0  0  0  0  0  0  0
   15.6711    1.5693   -2.0915 C   0  0  0  0  0  0  0  0  0  0  0  0
   15.3832    2.0354   -0.7903 C   0  0  0  0  0  0  0  0  0  0  0  0
   15.3534    3.4188   -0.5357 C   0  0  0  0  0  0  0  0  0  0  0  0
   15.5968    4.3049   -1.5946 C   0  0  0  0  0  0  0  0  0  0  0  0
   15.8275    3.8920   -2.8511 N   0  0  0  0  0  0  0  0  0  0  0  0
   15.8598    2.5642   -3.0762 C   0  0  0  0  0  0  0  0  0  0  0  0
   15.3327   -0.8573   -1.5012 C   0  0  0  0  0  0  0  0  0  0  0  0
   13.2767   -3.0094   -0.6368 C   0  0  0  0  0  0  0  0  0  0  0  0
   12.3981   -3.0674   -1.5055 O   0  0  0  0  0  0  0  0  0  0  0  0
    0.0000    0.0000    0.0000 H   0  0  0  0  0  0  0  0  0  0  0  0
    0.0000    0.0000    0.0000 H   0  0  0  0  0  0  0  0  0  0  0  0
    0.0000    0.0000    0.0000 H   0  0  0  0  0  0  0  0  0  0  0  0
    0.0000    0.0000    0.0000 H   0  0  0  0  0  0  0  0  0  0  0  0
    0.0000    0.0000    0.0000 H   0  0  0  0  0  0  0  0  0  0  0  0
    0.0000    0.0000    0.0000 H   0  0  0  0  0  0  0  0  0  0  0  0
    0.0000    0.0000    0.0000 H   0  0  0  0  0  0  0  0  0  0  0  0
    0.0000    0.0000    0.0000 H   0  0  0  0  0  0  0  0  0  0  0  0
    0.0000    0.0000    0.0000 H   0  0  0  0  0  0  0  0  0  0  0  0
    0.0000    0.0000    0.0000 H   0  0  0  0  0  0  0  0  0  0  0  0
    0.0000    0.0000    0.0000 H   0  0  0  0  0  0  0  0  0  0  0  0
    0.0000    0.0000    0.0000 H   0  0  0  0  0  0  0  0  0  0  0  0
    0.0000    0.0000    0.0000 H   0  0  0  0  0  0  0  0  0  0  0  0
    0.0000    0.0000    0.0000 H   0  0  0  0  0  0  0  0  0  0  0  0
    6.9626   -1.5302   -0.3706 O   0  0  0  0  0  0  0  0  0  0  0  0
    6.5404   -2.3472    0.7085 C   0  0  0  0  0  0  0  0  0  0  0  0
    5.0858   -2.1141    0.8857 C   0  0  0  0  0  0  0  0  0  0  0  0
    4.2463   -2.4604   -0.3428 C   0  0  0  0  0  0  0  0  0  0  0  0
    4.0873   -3.1922    0.9470 C   0  0  0  0  0  0  0  0  0  0  0  0
    6.7943   -3.3800    0.3777 H   0  0  0  0  0  0  0  0  0  0  0  0
    7.1472   -2.1519    1.6047 H   0  0  0  0  0  0  0  0  0  0  0  0
    4.8352   -1.1807    1.4428 H   0  0  0  0  0  0  0  0  0  0  0  0
    3.5623   -1.6589   -0.6477 H   0  0  0  0  0  0  0  0  0  0  0  0
    4.7042   -3.0107   -1.1641 H   0  0  0  0  0  0  0  0  0  0  0  0
    3.1225   -2.9827    1.4672 H   0  0  0  0  0  0  0  0  0  0  0  0
    4.3715   -4.2566    1.0028 H   0  0  0  0  0  0  0  0  0  0  0  0
  1  2  1  0
  2  3  1  0
  2 19  1  0
  3  4  1  0
  3  5  2  0
  5  6  1  0
  6  7  1  0
  6 19  1  0
  7  8  2  0
  7 18  1  0
  8  9  1  0
  9 10  2  0
 10 11  1  0
 11 12  1  0
 11 18  2  0
 12 13  2  0
 12 17  1  0
 13 14  1  0
 14 15  2  0
 15 16  1  0
 16 17  2  0
 19 20  2  0
  1 21  1  0
  1 22  1  0
  1 23  1  0
  4 24  1  0
  4 25  1  0
  5 26  1  0
  8 27  1  0
  9 28  1  0
 10 29  1  0
 13 30  1  0
 14 31  1  0
 15 32  1  0
 17 33  1  0
 18 34  1  0
 35 36  1  0
 36 37  1  0
 37 38  1  0
 38 39  1  0
 39 37  1  0
 36 40  1  0
 36 41  1  0
 37 42  1  0
 38 43  1  0
 38 44  1  0
 39 45  1  0
 39 46  1  0
  6 35  1  6
M  CHG  1   5   1
M  END
>  <attachment_point>  (318) 
26

>  <score>  (318) 
<NA>

$$$$
CAT-4j
     RDKit          3D

 48 50  0  0  1  0  0  0  0  0999 V2000
   11.7106   -2.3098    1.2658 C   0  0  0  0  0  0  0  0  0  0  0  0
   13.0313   -2.6523    0.7225 N   0  0  0  0  0  0  0  0  0  0  0  0
   14.2010   -2.6281    1.3773 C   0  0  0  0  0  0  0  0  0  0  0  0
   14.3777   -2.3568    2.6732 N   0  0  0  0  0  0  0  0  0  0  0  0
   15.2217   -2.9197    0.5738 N   0  0  0  0  0  0  0  0  0  0  0  0
   14.7965   -3.2519   -0.7875 C   0  0  1  0  0  0  0  0  0  0  0  0
   15.3794   -2.2443   -1.7949 C   0  0  0  0  0  0  0  0  0  0  0  0
   15.9522   -2.6550   -3.0208 C   0  0  0  0  0  0  0  0  0  0  0  0
   16.4340   -1.6937   -3.9273 C   0  0  0  0  0  0  0  0  0  0  0  0
   16.3364   -0.3224   -3.6308 C   0  0  0  0  0  0  0  0  0  0  0  0
   15.7943    0.1250   -2.4073 C   0  0  0  0  0  0  0  0  0  0  0  0
   15.6711    1.5693   -2.0915 C   0  0  0  0  0  0  0  0  0  0  0  0
   15.3832    2.0354   -0.7903 C   0  0  0  0  0  0  0  0  0  0  0  0
   15.3534    3.4188   -0.5357 C   0  0  0  0  0  0  0  0  0  0  0  0
   15.5968    4.3049   -1.5946 C   0  0  0  0  0  0  0  0  0  0  0  0
   15.8275    3.8920   -2.8511 N   0  0  0  0  0  0  0  0  0  0  0  0
   15.8598    2.5642   -3.0762 C   0  0  0  0  0  0  0  0  0  0  0  0
   15.3327   -0.8573   -1.5012 C   0  0  0  0  0  0  0  0  0  0  0  0
   13.2767   -3.0094   -0.6368 C   0  0  0  0  0  0  0  0  0  0  0  0
   12.3981   -3.0674   -1.5055 O   0  0  0  0  0  0  0  0  0  0  0  0
    0.0000    0.0000    0.0000 H   0  0  0  0  0  0  0  0  0  0  0  0
    0.0000    0.0000    0.0000 H   0  0  0  0  0  0  0  0  0  0  0  0
    0.0000    0.0000    0.0000 H   0  0  0  0  0  0  0  0  0  0  0  0
    0.0000    0.0000    0.0000 H   0  0  0  0  0  0  0  0  0  0  0  0
    0.0000    0.0000    0.0000 H   0  0  0  0  0  0  0  0  0  0  0  0
    0.0000    0.0000    0.0000 H   0  0  0  0  0  0  0  0  0  0  0  0
    0.0000    0.0000    0.0000 H   0  0  0  0  0  0  0  0  0  0  0  0
    0.0000    0.0000    0.0000 H   0  0  0  0  0  0  0  0  0  0  0  0
    0.0000    0.0000    0.0000 H   0  0  0  0  0  0  0  0  0  0  0  0
    0.0000    0.0000    0.0000 H   0  0  0  0  0  0  0  0  0  0  0  0
    0.0000    0.0000    0.0000 H   0  0  0  0  0  0  0  0  0  0  0  0
    0.0000    0.0000    0.0000 H   0  0  0  0  0  0  0  0  0  0  0  0
    0.0000    0.0000    0.0000 H   0  0  0  0  0  0  0  0  0  0  0  0
    0.0000    0.0000    0.0000 H   0  0  0  0  0  0  0  0  0  0  0  0
    7.0509   -1.5496   -0.3753 O   0  0  0  0  0  0  0  0  0  0  0  0
    6.2424   -2.1593    0.5566 C   0  0  0  0  0  0  0  0  0  0  0  0
    4.8157   -1.6698    0.4354 C   0  0  0  0  0  0  0  0  0  0  0  0
    3.9882   -2.3694    1.4744 C   0  0  0  0  0  0  0  0  0  0  0  0
    4.6958   -0.1805    0.4717 C   0  0  0  0  0  0  0  0  0  0  0  0
    6.6248   -2.1145    1.5900 H   0  0  0  0  0  0  0  0  0  0  0  0
    6.1987   -3.2602    0.3033 H   0  0  0  0  0  0  0  0  0  0  0  0
    4.4595   -2.0082   -0.5718 H   0  0  0  0  0  0  0  0  0  0  0  0
    3.6236   -3.3412    1.0448 H   0  0  0  0  0  0  0  0  0  0  0  0
    4.6480   -2.5988    2.3449 H   0  0  0  0  0  0  0  0  0  0  0  0
    3.1676   -1.7461    1.8314 H   0  0  0  0  0  0  0  0  0  0  0  0
    4.6667    0.2515    1.4866 H   0  0  0  0  0  0  0  0  0  0  0  0
    5.5041    0.2642   -0.1354 H   0  0  0  0  0  0  0  0  0  0  0  0
    3.7449    0.0740   -0.0834 H   0  0  0  0  0  0  0  0  0  0  0  0
  1  2  1  0
  2  3  1  0
  2 19  1  0
  3  4  1  0
  3  5  2  0
  5  6  1  0
  6  7  1  0
  6 19  1  0
  7  8  2  0
  7 18  1  0
  8  9  1  0
  9 10  2  0
 10 11  1  0
 11 12  1  0
 11 18  2  0
 12 13  2  0
 12 17  1  0
 13 14  1  0
 14 15  2  0
 15 16  1  0
 16 17  2  0
 19 20  2  0
  1 21  1  0
  1 22  1  0
  1 23  1  0
  4 24  1  0
  4 25  1  0
  5 26  1  0
  8 27  1  0
  9 28  1  0
 10 29  1  0
 13 30  1  0
 14 31  1  0
 15 32  1  0
 17 33  1  0
 18 34  1  0
 35 36  1  0
 36 37  1  0
 37 38  1  0
 37 39  1  0
 36 40  1  0
 36 41  1  0
 37 42  1  0
 38 43  1  0
 38 44  1  0
 38 45  1  0
 39 46  1  0
 39 47  1  0
 39 48  1  0
  6 35  1  6
M  CHG  1   5   1
M  END
>  <attachment_point>  (319) 
26

>  <score>  (319) 
<NA>

$$$$
CAT-4j
     RDKit          3D

 46 48  0  0  1  0  0  0  0  0999 V2000
   11.7106   -2.3098    1.2658 C   0  0  0  0  0  0  0  0  0  0  0  0
   13.0313   -2.6523    0.7225 N   0  0  0  0  0  0  0  0  0  0  0  0
   14.2010   -2.6281    1.3773 C   0  0  0  0  0  0  0  0  0  0  0  0
   14.3777   -2.3568    2.6732 N   0  0  0  0  0  0  0  0  0  0  0  0
   15.2217   -2.9197    0.5738 N   0  0  0  0  0  0  0  0  0  0  0  0
   14.7965   -3.2519   -0.7875 C   0  0  1  0  0  0  0  0  0  0  0  0
   15.3794   -2.2443   -1.7949 C   0  0  0  0  0  0  0  0  0  0  0  0
   15.9522   -2.6550   -3.0208 C   0  0  0  0  0  0  0  0  0  0  0  0
   16.4340   -1.6937   -3.9273 C   0  0  0  0  0  0  0  0  0  0  0  0
   16.3364   -0.3224   -3.6308 C   0  0  0  0  0  0  0  0  0  0  0  0
   15.7943    0.1250   -2.4073 C   0  0  0  0  0  0  0  0  0  0  0  0
   15.6711    1.5693   -2.0915 C   0  0  0  0  0  0  0  0  0  0  0  0
   15.3832    2.0354   -0.7903 C   0  0  0  0  0  0  0  0  0  0  0  0
   15.3534    3.4188   -0.5357 C   0  0  0  0  0  0  0  0  0  0  0  0
   15.5968    4.3049   -1.5946 C   0  0  0  0  0  0  0  0  0  0  0  0
   15.8275    3.8920   -2.8511 N   0  0  0  0  0  0  0  0  0  0  0  0
   15.8598    2.5642   -3.0762 C   0  0  0  0  0  0  0  0  0  0  0  0
   15.3327   -0.8573   -1.5012 C   0  0  0  0  0  0  0  0  0  0  0  0
   13.2767   -3.0094   -0.6368 C   0  0  0  0  0  0  0  0  0  0  0  0
   12.3981   -3.0674   -1.5055 O   0  0  0  0  0  0  0  0  0  0  0  0
    0.0000    0.0000    0.0000 H   0  0  0  0  0  0  0  0  0  0  0  0
    0.0000    0.0000    0.0000 H   0  0  0  0  0  0  0  0  0  0  0  0
    0.0000    0.0000    0.0000 H   0  0  0  0  0  0  0  0  0  0  0  0
    0.0000    0.0000    0.0000 H   0  0  0  0  0  0  0  0  0  0  0  0
    0.0000    0.0000    0.0000 H   0  0  0  0  0  0  0  0  0  0  0  0
    0.0000    0.0000    0.0000 H   0  0  0  0  0  0  0  0  0  0  0  0
    0.0000    0.0000    0.0000 H   0  0  0  0  0  0  0  0  0  0  0  0
    0.0000    0.0000    0.0000 H   0  0  0  0  0  0  0  0  0  0  0  0
    0.0000    0.0000    0.0000 H   0  0  0  0  0  0  0  0  0  0  0  0
    0.0000    0.0000    0.0000 H   0  0  0  0  0  0  0  0  0  0  0  0
    0.0000    0.0000    0.0000 H   0  0  0  0  0  0  0  0  0  0  0  0
    0.0000    0.0000    0.0000 H   0  0  0  0  0  0  0  0  0  0  0  0
    0.0000    0.0000    0.0000 H   0  0  0  0  0  0  0  0  0  0  0  0
    0.0000    0.0000    0.0000 H   0  0  0  0  0  0  0  0  0  0  0  0
    7.0106   -1.5408   -0.3731 N   0  0  0  0  0  0  0  0  0  0  0  0
    6.6458   -0.1510   -0.4187 C   0  0  0  0  0  0  0  0  0  0  0  0
    7.5399    0.7271   -0.5196 O   0  0  0  0  0  0  0  0  0  0  0  0
    5.3298    0.2366   -0.3535 O   0  0  0  0  0  0  0  0  0  0  0  0
    4.8896    1.5755   -0.3917 C   0  0  0  0  0  0  0  0  0  0  0  0
    5.4176    2.4211    0.7109 C   0  0  0  0  0  0  0  0  0  0  0  0
    6.2409   -2.2488   -0.2886 H   0  0  0  0  0  0  0  0  0  0  0  0
    5.0831    2.0553   -1.3900 H   0  0  0  0  0  0  0  0  0  0  0  0
    3.7687    1.5573   -0.3007 H   0  0  0  0  0  0  0  0  0  0  0  0
    4.6191    2.7327    1.4473 H   0  0  0  0  0  0  0  0  0  0  0  0
    5.8307    3.4049    0.3427 H   0  0  0  0  0  0  0  0  0  0  0  0
    6.1903    1.9205    1.3101 H   0  0  0  0  0  0  0  0  0  0  0  0
  1  2  1  0
  2  3  1  0
  2 19  1  0
  3  4  1  0
  3  5  2  0
  5  6  1  0
  6  7  1  0
  6 19  1  0
  7  8  2  0
  7 18  1  0
  8  9  1  0
  9 10  2  0
 10 11  1  0
 11 12  1  0
 11 18  2  0
 12 13  2  0
 12 17  1  0
 13 14  1  0
 14 15  2  0
 15 16  1  0
 16 17  2  0
 19 20  2  0
  1 21  1  0
  1 22  1  0
  1 23  1  0
  4 24  1  0
  4 25  1  0
  5 26  1  0
  8 27  1  0
  9 28  1  0
 10 29  1  0
 13 30  1  0
 14 31  1  0
 15 32  1  0
 17 33  1  0
 18 34  1  0
 35 36  1  0
 36 37  2  0
 36 38  1  0
 38 39  1  0
 39 40  1  0
 35 41  1  0
 39 42  1  0
 39 43  1  0
 40 44  1  0
 40 45  1  0
 40 46  1  0
  6 35  1  6
M  CHG  1   5   1
M  END
>  <attachment_point>  (320) 
26

>  <score>  (320) 
<NA>

$$$$
CAT-4j
     RDKit          3D

 56 58  0  0  1  0  0  0  0  0999 V2000
   11.7106   -2.3098    1.2658 C   0  0  0  0  0  0  0  0  0  0  0  0
   13.0313   -2.6523    0.7225 N   0  0  0  0  0  0  0  0  0  0  0  0
   14.2010   -2.6281    1.3773 C   0  0  0  0  0  0  0  0  0  0  0  0
   14.3777   -2.3568    2.6732 N   0  0  0  0  0  0  0  0  0  0  0  0
   15.2217   -2.9197    0.5738 N   0  0  0  0  0  0  0  0  0  0  0  0
   14.7965   -3.2519   -0.7875 C   0  0  1  0  0  0  0  0  0  0  0  0
   15.3794   -2.2443   -1.7949 C   0  0  0  0  0  0  0  0  0  0  0  0
   15.9522   -2.6550   -3.0208 C   0  0  0  0  0  0  0  0  0  0  0  0
   16.4340   -1.6937   -3.9273 C   0  0  0  0  0  0  0  0  0  0  0  0
   16.3364   -0.3224   -3.6308 C   0  0  0  0  0  0  0  0  0  0  0  0
   15.7943    0.1250   -2.4073 C   0  0  0  0  0  0  0  0  0  0  0  0
   15.6711    1.5693   -2.0915 C   0  0  0  0  0  0  0  0  0  0  0  0
   15.3832    2.0354   -0.7903 C   0  0  0  0  0  0  0  0  0  0  0  0
   15.3534    3.4188   -0.5357 C   0  0  0  0  0  0  0  0  0  0  0  0
   15.5968    4.3049   -1.5946 C   0  0  0  0  0  0  0  0  0  0  0  0
   15.8275    3.8920   -2.8511 N   0  0  0  0  0  0  0  0  0  0  0  0
   15.8598    2.5642   -3.0762 C   0  0  0  0  0  0  0  0  0  0  0  0
   15.3327   -0.8573   -1.5012 C   0  0  0  0  0  0  0  0  0  0  0  0
   13.2767   -3.0094   -0.6368 C   0  0  0  0  0  0  0  0  0  0  0  0
   12.3981   -3.0674   -1.5055 O   0  0  0  0  0  0  0  0  0  0  0  0
    0.0000    0.0000    0.0000 H   0  0  0  0  0  0  0  0  0  0  0  0
    0.0000    0.0000    0.0000 H   0  0  0  0  0  0  0  0  0  0  0  0
    0.0000    0.0000    0.0000 H   0  0  0  0  0  0  0  0  0  0  0  0
    0.0000    0.0000    0.0000 H   0  0  0  0  0  0  0  0  0  0  0  0
    0.0000    0.0000    0.0000 H   0  0  0  0  0  0  0  0  0  0  0  0
    0.0000    0.0000    0.0000 H   0  0  0  0  0  0  0  0  0  0  0  0
    0.0000    0.0000    0.0000 H   0  0  0  0  0  0  0  0  0  0  0  0
    0.0000    0.0000    0.0000 H   0  0  0  0  0  0  0  0  0  0  0  0
    0.0000    0.0000    0.0000 H   0  0  0  0  0  0  0  0  0  0  0  0
    0.0000    0.0000    0.0000 H   0  0  0  0  0  0  0  0  0  0  0  0
    0.0000    0.0000    0.0000 H   0  0  0  0  0  0  0  0  0  0  0  0
    0.0000    0.0000    0.0000 H   0  0  0  0  0  0  0  0  0  0  0  0
    0.0000    0.0000    0.0000 H   0  0  0  0  0  0  0  0  0  0  0  0
    0.0000    0.0000    0.0000 H   0  0  0  0  0  0  0  0  0  0  0  0
    6.9189   -1.5206   -0.3682 O   0  0  0  0  0  0  0  0  0  0  0  0
    6.9743   -1.2636    1.0249 C   0  0  0  0  0  0  0  0  0  0  0  0
    5.6020   -0.8894    1.4734 C   0  0  0  0  0  0  0  0  0  0  0  0
    4.6125   -1.8816    1.2578 N   0  0  0  0  0  0  0  0  0  0  0  0
    4.6465   -3.0569    1.9773 C   0  0  0  0  0  0  0  0  0  0  0  0
    3.5280   -3.9858    1.5709 C   0  0  0  0  0  0  0  0  0  0  0  0
    3.6862   -1.6576    0.2470 C   0  0  0  0  0  0  0  0  0  0  0  0
    2.7158   -0.5372    0.4703 C   0  0  0  0  0  0  0  0  0  0  0  0
    7.4561   -2.0678    1.5680 H   0  0  0  0  0  0  0  0  0  0  0  0
    7.6140   -0.3615    1.1213 H   0  0  0  0  0  0  0  0  0  0  0  0
    5.6455   -0.6791    2.5622 H   0  0  0  0  0  0  0  0  0  0  0  0
    5.3094    0.0242    0.9132 H   0  0  0  0  0  0  0  0  0  0  0  0
    4.5393   -2.9716    3.0860 H   0  0  0  0  0  0  0  0  0  0  0  0
    5.5914   -3.6567    1.8264 H   0  0  0  0  0  0  0  0  0  0  0  0
    3.5539   -4.9072    2.2229 H   0  0  0  0  0  0  0  0  0  0  0  0
    2.5185   -3.5473    1.6750 H   0  0  0  0  0  0  0  0  0  0  0  0
    3.6719   -4.3935    0.5465 H   0  0  0  0  0  0  0  0  0  0  0  0
    4.2423   -1.4436   -0.7153 H   0  0  0  0  0  0  0  0  0  0  0  0
    3.0804   -2.5542    0.0331 H   0  0  0  0  0  0  0  0  0  0  0  0
    2.2452   -0.2670   -0.5226 H   0  0  0  0  0  0  0  0  0  0  0  0
    1.8701   -0.8021    1.1385 H   0  0  0  0  0  0  0  0  0  0  0  0
    3.1570    0.3769    0.8597 H   0  0  0  0  0  0  0  0  0  0  0  0
  1  2  1  0
  2  3  1  0
  2 19  1  0
  3  4  1  0
  3  5  2  0
  5  6  1  0
  6  7  1  0
  6 19  1  0
  7  8  2  0
  7 18  1  0
  8  9  1  0
  9 10  2  0
 10 11  1  0
 11 12  1  0
 11 18  2  0
 12 13  2  0
 12 17  1  0
 13 14  1  0
 14 15  2  0
 15 16  1  0
 16 17  2  0
 19 20  2  0
  1 21  1  0
  1 22  1  0
  1 23  1  0
  4 24  1  0
  4 25  1  0
  5 26  1  0
  8 27  1  0
  9 28  1  0
 10 29  1  0
 13 30  1  0
 14 31  1  0
 15 32  1  0
 17 33  1  0
 18 34  1  0
 35 36  1  0
 36 37  1  0
 37 38  1  0
 38 39  1  0
 39 40  1  0
 38 41  1  0
 41 42  1  0
 36 43  1  0
 36 44  1  0
 37 45  1  0
 37 46  1  0
 39 47  1  0
 39 48  1  0
 40 49  1  0
 40 50  1  0
 40 51  1  0
 41 52  1  0
 41 53  1  0
 42 54  1  0
 42 55  1  0
 42 56  1  0
  6 35  1  6
M  CHG  1   5   1
M  END
>  <attachment_point>  (321) 
26

>  <score>  (321) 
<NA>

$$$$
CAT-4j
     RDKit          3D

 47 50  0  0  1  0  0  0  0  0999 V2000
   11.7106   -2.3098    1.2658 C   0  0  0  0  0  0  0  0  0  0  0  0
   13.0313   -2.6523    0.7225 N   0  0  0  0  0  0  0  0  0  0  0  0
   14.2010   -2.6281    1.3773 C   0  0  0  0  0  0  0  0  0  0  0  0
   14.3777   -2.3568    2.6732 N   0  0  0  0  0  0  0  0  0  0  0  0
   15.2217   -2.9197    0.5738 N   0  0  0  0  0  0  0  0  0  0  0  0
   14.7965   -3.2519   -0.7875 C   0  0  1  0  0  0  0  0  0  0  0  0
   15.3794   -2.2443   -1.7949 C   0  0  0  0  0  0  0  0  0  0  0  0
   15.9522   -2.6550   -3.0208 C   0  0  0  0  0  0  0  0  0  0  0  0
   16.4340   -1.6937   -3.9273 C   0  0  0  0  0  0  0  0  0  0  0  0
   16.3364   -0.3224   -3.6308 C   0  0  0  0  0  0  0  0  0  0  0  0
   15.7943    0.1250   -2.4073 C   0  0  0  0  0  0  0  0  0  0  0  0
   15.6711    1.5693   -2.0915 C   0  0  0  0  0  0  0  0  0  0  0  0
   15.3832    2.0354   -0.7903 C   0  0  0  0  0  0  0  0  0  0  0  0
   15.3534    3.4188   -0.5357 C   0  0  0  0  0  0  0  0  0  0  0  0
   15.5968    4.3049   -1.5946 C   0  0  0  0  0  0  0  0  0  0  0  0
   15.8275    3.8920   -2.8511 N   0  0  0  0  0  0  0  0  0  0  0  0
   15.8598    2.5642   -3.0762 C   0  0  0  0  0  0  0  0  0  0  0  0
   15.3327   -0.8573   -1.5012 C   0  0  0  0  0  0  0  0  0  0  0  0
   13.2767   -3.0094   -0.6368 C   0  0  0  0  0  0  0  0  0  0  0  0
   12.3981   -3.0674   -1.5055 O   0  0  0  0  0  0  0  0  0  0  0  0
    0.0000    0.0000    0.0000 H   0  0  0  0  0  0  0  0  0  0  0  0
    0.0000    0.0000    0.0000 H   0  0  0  0  0  0  0  0  0  0  0  0
    0.0000    0.0000    0.0000 H   0  0  0  0  0  0  0  0  0  0  0  0
    0.0000    0.0000    0.0000 H   0  0  0  0  0  0  0  0  0  0  0  0
    0.0000    0.0000    0.0000 H   0  0  0  0  0  0  0  0  0  0  0  0
    0.0000    0.0000    0.0000 H   0  0  0  0  0  0  0  0  0  0  0  0
    0.0000    0.0000    0.0000 H   0  0  0  0  0  0  0  0  0  0  0  0
    0.0000    0.0000    0.0000 H   0  0  0  0  0  0  0  0  0  0  0  0
    0.0000    0.0000    0.0000 H   0  0  0  0  0  0  0  0  0  0  0  0
    0.0000    0.0000    0.0000 H   0  0  0  0  0  0  0  0  0  0  0  0
    0.0000    0.0000    0.0000 H   0  0  0  0  0  0  0  0  0  0  0  0
    0.0000    0.0000    0.0000 H   0  0  0  0  0  0  0  0  0  0  0  0
    0.0000    0.0000    0.0000 H   0  0  0  0  0  0  0  0  0  0  0  0
    0.0000    0.0000    0.0000 H   0  0  0  0  0  0  0  0  0  0  0  0
    6.9810   -1.5343   -0.3715 C   0  0  0  0  0  0  0  0  0  0  0  0
    6.2488   -1.3868   -1.5257 C   0  0  0  0  0  0  0  0  0  0  0  0
    4.8836   -1.0868   -1.4549 C   0  0  0  0  0  0  0  0  0  0  0  0
    4.2657   -0.9377   -0.2341 C   0  0  0  0  0  0  0  0  0  0  0  0
    2.9181   -0.6412   -0.1346 O   0  0  0  0  0  0  0  0  0  0  0  0
    5.0065   -1.0871    0.9154 C   0  0  0  0  0  0  0  0  0  0  0  0
    4.3510   -0.9297    2.1296 O   0  0  0  0  0  0  0  0  0  0  0  0
    6.3733   -1.3871    0.8692 C   0  0  0  0  0  0  0  0  0  0  0  0
    6.6910   -1.4946   -2.5021 H   0  0  0  0  0  0  0  0  0  0  0  0
    4.3045   -0.9701   -2.3617 H   0  0  0  0  0  0  0  0  0  0  0  0
    2.3369   -0.8730    0.6510 H   0  0  0  0  0  0  0  0  0  0  0  0
    4.2594   -0.0054    2.5326 H   0  0  0  0  0  0  0  0  0  0  0  0
    6.9283   -1.4984    1.7914 H   0  0  0  0  0  0  0  0  0  0  0  0
  1  2  1  0
  2  3  1  0
  2 19  1  0
  3  4  1  0
  3  5  2  0
  5  6  1  0
  6  7  1  1
  6 19  1  0
  7  8  2  0
  7 18  1  0
  8  9  1  0
  9 10  2  0
 10 11  1  0
 11 12  1  0
 11 18  2  0
 12 13  2  0
 12 17  1  0
 13 14  1  0
 14 15  2  0
 15 16  1  0
 16 17  2  0
 19 20  2  0
  1 21  1  0
  1 22  1  0
  1 23  1  0
  4 24  1  0
  4 25  1  0
  5 26  1  0
  8 27  1  0
  9 28  1  0
 10 29  1  0
 13 30  1  0
 14 31  1  0
 15 32  1  0
 17 33  1  0
 18 34  1  0
 35 36  2  0
 36 37  1  0
 37 38  2  0
 38 39  1  0
 38 40  1  0
 40 41  1  0
 40 42  2  0
 42 35  1  0
 36 43  1  0
 37 44  1  0
 39 45  1  0
 41 46  1  0
 42 47  1  0
  6 35  1  0
M  CHG  1   5   1
M  END
>  <attachment_point>  (322) 
26

>  <score>  (322) 
<NA>

$$$$
CAT-4j
     RDKit          3D

 43 45  0  0  1  0  0  0  0  0999 V2000
   11.7106   -2.3098    1.2658 C   0  0  0  0  0  0  0  0  0  0  0  0
   13.0313   -2.6523    0.7225 N   0  0  0  0  0  0  0  0  0  0  0  0
   14.2010   -2.6281    1.3773 C   0  0  0  0  0  0  0  0  0  0  0  0
   14.3777   -2.3568    2.6732 N   0  0  0  0  0  0  0  0  0  0  0  0
   15.2217   -2.9197    0.5738 N   0  0  0  0  0  0  0  0  0  0  0  0
   14.7965   -3.2519   -0.7875 C   0  0  1  0  0  0  0  0  0  0  0  0
   15.3794   -2.2443   -1.7949 C   0  0  0  0  0  0  0  0  0  0  0  0
   15.9522   -2.6550   -3.0208 C   0  0  0  0  0  0  0  0  0  0  0  0
   16.4340   -1.6937   -3.9273 C   0  0  0  0  0  0  0  0  0  0  0  0
   16.3364   -0.3224   -3.6308 C   0  0  0  0  0  0  0  0  0  0  0  0
   15.7943    0.1250   -2.4073 C   0  0  0  0  0  0  0  0  0  0  0  0
   15.6711    1.5693   -2.0915 C   0  0  0  0  0  0  0  0  0  0  0  0
   15.3832    2.0354   -0.7903 C   0  0  0  0  0  0  0  0  0  0  0  0
   15.3534    3.4188   -0.5357 C   0  0  0  0  0  0  0  0  0  0  0  0
   15.5968    4.3049   -1.5946 C   0  0  0  0  0  0  0  0  0  0  0  0
   15.8275    3.8920   -2.8511 N   0  0  0  0  0  0  0  0  0  0  0  0
   15.8598    2.5642   -3.0762 C   0  0  0  0  0  0  0  0  0  0  0  0
   15.3327   -0.8573   -1.5012 C   0  0  0  0  0  0  0  0  0  0  0  0
   13.2767   -3.0094   -0.6368 C   0  0  0  0  0  0  0  0  0  0  0  0
   12.3981   -3.0674   -1.5055 O   0  0  0  0  0  0  0  0  0  0  0  0
    0.0000    0.0000    0.0000 H   0  0  0  0  0  0  0  0  0  0  0  0
    0.0000    0.0000    0.0000 H   0  0  0  0  0  0  0  0  0  0  0  0
    0.0000    0.0000    0.0000 H   0  0  0  0  0  0  0  0  0  0  0  0
    0.0000    0.0000    0.0000 H   0  0  0  0  0  0  0  0  0  0  0  0
    0.0000    0.0000    0.0000 H   0  0  0  0  0  0  0  0  0  0  0  0
    0.0000    0.0000    0.0000 H   0  0  0  0  0  0  0  0  0  0  0  0
    0.0000    0.0000    0.0000 H   0  0  0  0  0  0  0  0  0  0  0  0
    0.0000    0.0000    0.0000 H   0  0  0  0  0  0  0  0  0  0  0  0
    0.0000    0.0000    0.0000 H   0  0  0  0  0  0  0  0  0  0  0  0
    0.0000    0.0000    0.0000 H   0  0  0  0  0  0  0  0  0  0  0  0
    0.0000    0.0000    0.0000 H   0  0  0  0  0  0  0  0  0  0  0  0
    0.0000    0.0000    0.0000 H   0  0  0  0  0  0  0  0  0  0  0  0
    0.0000    0.0000    0.0000 H   0  0  0  0  0  0  0  0  0  0  0  0
    0.0000    0.0000    0.0000 H   0  0  0  0  0  0  0  0  0  0  0  0
    7.0094   -1.5405   -0.3731 N   0  0  0  0  0  0  0  0  0  0  0  0
    6.1340   -2.4777   -0.9854 C   0  0  0  0  0  0  0  0  0  0  0  0
    6.5853   -3.5190   -1.5587 O   0  0  0  0  0  0  0  0  0  0  0  0
    4.6989   -2.2585   -0.9651 C   0  0  0  0  0  0  0  0  0  0  0  0
    3.8671   -3.1155   -1.5273 C   0  0  0  0  0  0  0  0  0  0  0  0
    6.6324   -0.6827    0.0989 H   0  0  0  0  0  0  0  0  0  0  0  0
    4.2919   -1.3903   -0.4893 H   0  0  0  0  0  0  0  0  0  0  0  0
    4.2676   -3.9862   -2.0050 H   0  0  0  0  0  0  0  0  0  0  0  0
    2.7991   -2.9572   -1.5150 H   0  0  0  0  0  0  0  0  0  0  0  0
  1  2  1  0
  2  3  1  0
  2 19  1  0
  3  4  1  0
  3  5  2  0
  5  6  1  0
  6  7  1  0
  6 19  1  0
  7  8  2  0
  7 18  1  0
  8  9  1  0
  9 10  2  0
 10 11  1  0
 11 12  1  0
 11 18  2  0
 12 13  2  0
 12 17  1  0
 13 14  1  0
 14 15  2  0
 15 16  1  0
 16 17  2  0
 19 20  2  0
  1 21  1  0
  1 22  1  0
  1 23  1  0
  4 24  1  0
  4 25  1  0
  5 26  1  0
  8 27  1  0
  9 28  1  0
 10 29  1  0
 13 30  1  0
 14 31  1  0
 15 32  1  0
 17 33  1  0
 18 34  1  0
 35 36  1  0
 36 37  2  0
 36 38  1  0
 38 39  2  3
 35 40  1  0
 38 41  1  0
 39 42  1  0
 39 43  1  0
  6 35  1  6
M  CHG  1   5   1
M  END
>  <attachment_point>  (323) 
26

>  <score>  (323) 
<NA>

$$$$
CAT-4j
     RDKit          3D

 44 47  0  0  1  0  0  0  0  0999 V2000
   11.7106   -2.3098    1.2658 C   0  0  0  0  0  0  0  0  0  0  0  0
   13.0313   -2.6523    0.7225 N   0  0  0  0  0  0  0  0  0  0  0  0
   14.2010   -2.6281    1.3773 C   0  0  0  0  0  0  0  0  0  0  0  0
   14.3777   -2.3568    2.6732 N   0  0  0  0  0  0  0  0  0  0  0  0
   15.2217   -2.9197    0.5738 N   0  0  0  0  0  0  0  0  0  0  0  0
   14.7965   -3.2519   -0.7875 C   0  0  1  0  0  0  0  0  0  0  0  0
   15.3794   -2.2443   -1.7949 C   0  0  0  0  0  0  0  0  0  0  0  0
   15.9522   -2.6550   -3.0208 C   0  0  0  0  0  0  0  0  0  0  0  0
   16.4340   -1.6937   -3.9273 C   0  0  0  0  0  0  0  0  0  0  0  0
   16.3364   -0.3224   -3.6308 C   0  0  0  0  0  0  0  0  0  0  0  0
   15.7943    0.1250   -2.4073 C   0  0  0  0  0  0  0  0  0  0  0  0
   15.6711    1.5693   -2.0915 C   0  0  0  0  0  0  0  0  0  0  0  0
   15.3832    2.0354   -0.7903 C   0  0  0  0  0  0  0  0  0  0  0  0
   15.3534    3.4188   -0.5357 C   0  0  0  0  0  0  0  0  0  0  0  0
   15.5968    4.3049   -1.5946 C   0  0  0  0  0  0  0  0  0  0  0  0
   15.8275    3.8920   -2.8511 N   0  0  0  0  0  0  0  0  0  0  0  0
   15.8598    2.5642   -3.0762 C   0  0  0  0  0  0  0  0  0  0  0  0
   15.3327   -0.8573   -1.5012 C   0  0  0  0  0  0  0  0  0  0  0  0
   13.2767   -3.0094   -0.6368 C   0  0  0  0  0  0  0  0  0  0  0  0
   12.3981   -3.0674   -1.5055 O   0  0  0  0  0  0  0  0  0  0  0  0
    0.0000    0.0000    0.0000 H   0  0  0  0  0  0  0  0  0  0  0  0
    0.0000    0.0000    0.0000 H   0  0  0  0  0  0  0  0  0  0  0  0
    0.0000    0.0000    0.0000 H   0  0  0  0  0  0  0  0  0  0  0  0
    0.0000    0.0000    0.0000 H   0  0  0  0  0  0  0  0  0  0  0  0
    0.0000    0.0000    0.0000 H   0  0  0  0  0  0  0  0  0  0  0  0
    0.0000    0.0000    0.0000 H   0  0  0  0  0  0  0  0  0  0  0  0
    0.0000    0.0000    0.0000 H   0  0  0  0  0  0  0  0  0  0  0  0
    0.0000    0.0000    0.0000 H   0  0  0  0  0  0  0  0  0  0  0  0
    0.0000    0.0000    0.0000 H   0  0  0  0  0  0  0  0  0  0  0  0
    0.0000    0.0000    0.0000 H   0  0  0  0  0  0  0  0  0  0  0  0
    0.0000    0.0000    0.0000 H   0  0  0  0  0  0  0  0  0  0  0  0
    0.0000    0.0000    0.0000 H   0  0  0  0  0  0  0  0  0  0  0  0
    0.0000    0.0000    0.0000 H   0  0  0  0  0  0  0  0  0  0  0  0
    0.0000    0.0000    0.0000 H   0  0  0  0  0  0  0  0  0  0  0  0
    7.0047   -1.5395   -0.3728 N   0  0  0  0  0  0  0  0  0  0  0  0
    6.3135   -1.7133   -1.6552 C   0  0  0  0  0  0  0  0  0  0  0  0
    5.1714   -2.3034   -0.8459 C   0  0  0  0  0  0  0  0  0  0  0  0
    6.2926   -2.7434    0.0718 C   0  0  0  0  0  0  0  0  0  0  0  0
    6.0994   -0.7972   -2.1983 H   0  0  0  0  0  0  0  0  0  0  0  0
    6.8280   -2.5294   -2.2124 H   0  0  0  0  0  0  0  0  0  0  0  0
    4.6824   -3.0899   -1.4267 H   0  0  0  0  0  0  0  0  0  0  0  0
    4.5253   -1.5780   -0.3396 H   0  0  0  0  0  0  0  0  0  0  0  0
    6.8202   -3.6643   -0.2537 H   0  0  0  0  0  0  0  0  0  0  0  0
    6.0973   -2.6914    1.1416 H   0  0  0  0  0  0  0  0  0  0  0  0
  1  2  1  0
  2  3  1  0
  2 19  1  0
  3  4  1  0
  3  5  2  0
  5  6  1  0
  6  7  1  0
  6 19  1  0
  7  8  2  0
  7 18  1  0
  8  9  1  0
  9 10  2  0
 10 11  1  0
 11 12  1  0
 11 18  2  0
 12 13  2  0
 12 17  1  0
 13 14  1  0
 14 15  2  0
 15 16  1  0
 16 17  2  0
 19 20  2  0
  1 21  1  0
  1 22  1  0
  1 23  1  0
  4 24  1  0
  4 25  1  0
  5 26  1  0
  8 27  1  0
  9 28  1  0
 10 29  1  0
 13 30  1  0
 14 31  1  0
 15 32  1  0
 17 33  1  0
 18 34  1  0
 35 36  1  0
 36 37  1  0
 37 38  1  0
 38 35  1  0
 36 39  1  0
 36 40  1  0
 37 41  1  0
 37 42  1  0
 38 43  1  0
 38 44  1  0
  6 35  1  6
M  CHG  1   5   1
M  END
>  <attachment_point>  (324) 
26

>  <score>  (324) 
<NA>

$$$$
CAT-4j
     RDKit          3D

 51 54  0  0  1  0  0  0  0  0999 V2000
   11.7106   -2.3098    1.2658 C   0  0  0  0  0  0  0  0  0  0  0  0
   13.0313   -2.6523    0.7225 N   0  0  0  0  0  0  0  0  0  0  0  0
   14.2010   -2.6281    1.3773 C   0  0  0  0  0  0  0  0  0  0  0  0
   14.3777   -2.3568    2.6732 N   0  0  0  0  0  0  0  0  0  0  0  0
   15.2217   -2.9197    0.5738 N   0  0  0  0  0  0  0  0  0  0  0  0
   14.7965   -3.2519   -0.7875 C   0  0  1  0  0  0  0  0  0  0  0  0
   15.3794   -2.2443   -1.7949 C   0  0  0  0  0  0  0  0  0  0  0  0
   15.9522   -2.6550   -3.0208 C   0  0  0  0  0  0  0  0  0  0  0  0
   16.4340   -1.6937   -3.9273 C   0  0  0  0  0  0  0  0  0  0  0  0
   16.3364   -0.3224   -3.6308 C   0  0  0  0  0  0  0  0  0  0  0  0
   15.7943    0.1250   -2.4073 C   0  0  0  0  0  0  0  0  0  0  0  0
   15.6711    1.5693   -2.0915 C   0  0  0  0  0  0  0  0  0  0  0  0
   15.3832    2.0354   -0.7903 C   0  0  0  0  0  0  0  0  0  0  0  0
   15.3534    3.4188   -0.5357 C   0  0  0  0  0  0  0  0  0  0  0  0
   15.5968    4.3049   -1.5946 C   0  0  0  0  0  0  0  0  0  0  0  0
   15.8275    3.8920   -2.8511 N   0  0  0  0  0  0  0  0  0  0  0  0
   15.8598    2.5642   -3.0762 C   0  0  0  0  0  0  0  0  0  0  0  0
   15.3327   -0.8573   -1.5012 C   0  0  0  0  0  0  0  0  0  0  0  0
   13.2767   -3.0094   -0.6368 C   0  0  0  0  0  0  0  0  0  0  0  0
   12.3981   -3.0674   -1.5055 O   0  0  0  0  0  0  0  0  0  0  0  0
    0.0000    0.0000    0.0000 H   0  0  0  0  0  0  0  0  0  0  0  0
    0.0000    0.0000    0.0000 H   0  0  0  0  0  0  0  0  0  0  0  0
    0.0000    0.0000    0.0000 H   0  0  0  0  0  0  0  0  0  0  0  0
    0.0000    0.0000    0.0000 H   0  0  0  0  0  0  0  0  0  0  0  0
    0.0000    0.0000    0.0000 H   0  0  0  0  0  0  0  0  0  0  0  0
    0.0000    0.0000    0.0000 H   0  0  0  0  0  0  0  0  0  0  0  0
    0.0000    0.0000    0.0000 H   0  0  0  0  0  0  0  0  0  0  0  0
    0.0000    0.0000    0.0000 H   0  0  0  0  0  0  0  0  0  0  0  0
    0.0000    0.0000    0.0000 H   0  0  0  0  0  0  0  0  0  0  0  0
    0.0000    0.0000    0.0000 H   0  0  0  0  0  0  0  0  0  0  0  0
    0.0000    0.0000    0.0000 H   0  0  0  0  0  0  0  0  0  0  0  0
    0.0000    0.0000    0.0000 H   0  0  0  0  0  0  0  0  0  0  0  0
    0.0000    0.0000    0.0000 H   0  0  0  0  0  0  0  0  0  0  0  0
    0.0000    0.0000    0.0000 H   0  0  0  0  0  0  0  0  0  0  0  0
    6.7708   -1.4880   -0.3604 C   0  0  0  0  0  0  0  0  0  0  0  0
    6.4000   -2.8694   -0.5897 C   0  0  0  0  0  0  0  0  0  0  0  0
    6.2216   -3.7980    0.4181 C   0  0  0  0  0  0  0  0  0  0  0  0
    5.8682   -5.1041    0.1573 C   0  0  0  0  0  0  0  0  0  0  0  0
    5.6751   -5.5475   -1.1298 C   0  0  0  0  0  0  0  0  0  0  0  0
    5.2906   -6.9653   -1.4305 C   0  0  0  0  0  0  0  0  0  0  0  0
    5.8520   -4.6220   -2.1503 C   0  0  0  0  0  0  0  0  0  0  0  0
    6.2058   -3.3164   -1.8794 C   0  0  0  0  0  0  0  0  0  0  0  0
    6.9977   -0.8755   -1.2022 H   0  0  0  0  0  0  0  0  0  0  0  0
    7.0268   -1.1829    0.6298 H   0  0  0  0  0  0  0  0  0  0  0  0
    6.3763   -3.4376    1.4279 H   0  0  0  0  0  0  0  0  0  0  0  0
    5.7428   -5.7832    0.9757 H   0  0  0  0  0  0  0  0  0  0  0  0
    5.5130   -7.1751   -2.5044 H   0  0  0  0  0  0  0  0  0  0  0  0
    5.9131   -7.6802   -0.8322 H   0  0  0  0  0  0  0  0  0  0  0  0
    4.2311   -7.0855   -1.1801 H   0  0  0  0  0  0  0  0  0  0  0  0
    5.6956   -4.9899   -3.1555 H   0  0  0  0  0  0  0  0  0  0  0  0
    6.3274   -2.6473   -2.7197 H   0  0  0  0  0  0  0  0  0  0  0  0
  1  2  1  0
  2  3  1  0
  2 19  1  0
  3  4  1  0
  3  5  2  0
  5  6  1  0
  6  7  1  0
  6 19  1  0
  7  8  2  0
  7 18  1  0
  8  9  1  0
  9 10  2  0
 10 11  1  0
 11 12  1  0
 11 18  2  0
 12 13  2  0
 12 17  1  0
 13 14  1  0
 14 15  2  0
 15 16  1  0
 16 17  2  0
 19 20  2  0
  1 21  1  0
  1 22  1  0
  1 23  1  0
  4 24  1  0
  4 25  1  0
  5 26  1  0
  8 27  1  0
  9 28  1  0
 10 29  1  0
 13 30  1  0
 14 31  1  0
 15 32  1  0
 17 33  1  0
 18 34  1  0
 35 36  1  0
 36 37  2  0
 37 38  1  0
 38 39  2  0
 39 40  1  0
 39 41  1  0
 41 42  2  0
 42 36  1  0
 35 43  1  0
 35 44  1  0
 37 45  1  0
 38 46  1  0
 40 47  1  0
 40 48  1  0
 40 49  1  0
 41 50  1  0
 42 51  1  0
  6 35  1  6
M  CHG  1   5   1
M  END
>  <attachment_point>  (325) 
26

>  <score>  (325) 
<NA>

$$$$
CAT-4j
     RDKit          3D

 49 52  0  0  1  0  0  0  0  0999 V2000
   11.7106   -2.3098    1.2658 C   0  0  0  0  0  0  0  0  0  0  0  0
   13.0313   -2.6523    0.7225 N   0  0  0  0  0  0  0  0  0  0  0  0
   14.2010   -2.6281    1.3773 C   0  0  0  0  0  0  0  0  0  0  0  0
   14.3777   -2.3568    2.6732 N   0  0  0  0  0  0  0  0  0  0  0  0
   15.2217   -2.9197    0.5738 N   0  0  0  0  0  0  0  0  0  0  0  0
   14.7965   -3.2519   -0.7875 C   0  0  1  0  0  0  0  0  0  0  0  0
   15.3794   -2.2443   -1.7949 C   0  0  0  0  0  0  0  0  0  0  0  0
   15.9522   -2.6550   -3.0208 C   0  0  0  0  0  0  0  0  0  0  0  0
   16.4340   -1.6937   -3.9273 C   0  0  0  0  0  0  0  0  0  0  0  0
   16.3364   -0.3224   -3.6308 C   0  0  0  0  0  0  0  0  0  0  0  0
   15.7943    0.1250   -2.4073 C   0  0  0  0  0  0  0  0  0  0  0  0
   15.6711    1.5693   -2.0915 C   0  0  0  0  0  0  0  0  0  0  0  0
   15.3832    2.0354   -0.7903 C   0  0  0  0  0  0  0  0  0  0  0  0
   15.3534    3.4188   -0.5357 C   0  0  0  0  0  0  0  0  0  0  0  0
   15.5968    4.3049   -1.5946 C   0  0  0  0  0  0  0  0  0  0  0  0
   15.8275    3.8920   -2.8511 N   0  0  0  0  0  0  0  0  0  0  0  0
   15.8598    2.5642   -3.0762 C   0  0  0  0  0  0  0  0  0  0  0  0
   15.3327   -0.8573   -1.5012 C   0  0  0  0  0  0  0  0  0  0  0  0
   13.2767   -3.0094   -0.6368 C   0  0  0  0  0  0  0  0  0  0  0  0
   12.3981   -3.0674   -1.5055 O   0  0  0  0  0  0  0  0  0  0  0  0
    0.0000    0.0000    0.0000 H   0  0  0  0  0  0  0  0  0  0  0  0
    0.0000    0.0000    0.0000 H   0  0  0  0  0  0  0  0  0  0  0  0
    0.0000    0.0000    0.0000 H   0  0  0  0  0  0  0  0  0  0  0  0
    0.0000    0.0000    0.0000 H   0  0  0  0  0  0  0  0  0  0  0  0
    0.0000    0.0000    0.0000 H   0  0  0  0  0  0  0  0  0  0  0  0
    0.0000    0.0000    0.0000 H   0  0  0  0  0  0  0  0  0  0  0  0
    0.0000    0.0000    0.0000 H   0  0  0  0  0  0  0  0  0  0  0  0
    0.0000    0.0000    0.0000 H   0  0  0  0  0  0  0  0  0  0  0  0
    0.0000    0.0000    0.0000 H   0  0  0  0  0  0  0  0  0  0  0  0
    0.0000    0.0000    0.0000 H   0  0  0  0  0  0  0  0  0  0  0  0
    0.0000    0.0000    0.0000 H   0  0  0  0  0  0  0  0  0  0  0  0
    0.0000    0.0000    0.0000 H   0  0  0  0  0  0  0  0  0  0  0  0
    0.0000    0.0000    0.0000 H   0  0  0  0  0  0  0  0  0  0  0  0
    0.0000    0.0000    0.0000 H   0  0  0  0  0  0  0  0  0  0  0  0
    6.9551   -1.5285   -0.3702 C   0  0  0  0  0  0  0  0  0  0  0  0
    6.5217   -0.2590   -0.0788 C   0  0  0  0  0  0  0  0  0  0  0  0
    5.1532   -0.0325   -0.0230 C   0  0  0  0  0  0  0  0  0  0  0  0
    4.2272   -1.0245   -0.2470 C   0  0  0  0  0  0  0  0  0  0  0  0
    2.7942   -0.6717   -0.1622 C   0  0  0  0  0  0  0  0  0  0  0  0
    2.2901   -0.8315    1.1139 O   0  0  0  0  0  0  0  0  0  0  0  0
    4.6688   -2.2978   -0.5392 C   0  0  0  0  0  0  0  0  0  0  0  0
    6.0443   -2.5137   -0.5926 C   0  0  0  0  0  0  0  0  0  0  0  0
    7.2075    0.5337    0.1003 H   0  0  0  0  0  0  0  0  0  0  0  0
    4.8576    0.9966    0.2130 H   0  0  0  0  0  0  0  0  0  0  0  0
    2.6838    0.3898   -0.5295 H   0  0  0  0  0  0  0  0  0  0  0  0
    2.2499   -1.2983   -0.8780 H   0  0  0  0  0  0  0  0  0  0  0  0
    1.3900   -1.2374    1.0347 H   0  0  0  0  0  0  0  0  0  0  0  0
    3.9532   -3.0980   -0.7200 H   0  0  0  0  0  0  0  0  0  0  0  0
    6.3683   -3.5164   -0.8228 H   0  0  0  0  0  0  0  0  0  0  0  0
  1  2  1  0
  2  3  1  0
  2 19  1  0
  3  4  1  0
  3  5  2  0
  5  6  1  0
  6  7  1  1
  6 19  1  0
  7  8  2  0
  7 18  1  0
  8  9  1  0
  9 10  2  0
 10 11  1  0
 11 12  1  0
 11 18  2  0
 12 13  2  0
 12 17  1  0
 13 14  1  0
 14 15  2  0
 15 16  1  0
 16 17  2  0
 19 20  2  0
  1 21  1  0
  1 22  1  0
  1 23  1  0
  4 24  1  0
  4 25  1  0
  5 26  1  0
  8 27  1  0
  9 28  1  0
 10 29  1  0
 13 30  1  0
 14 31  1  0
 15 32  1  0
 17 33  1  0
 18 34  1  0
 35 36  2  0
 36 37  1  0
 37 38  2  0
 38 39  1  0
 39 40  1  0
 38 41  1  0
 41 42  2  0
 42 35  1  0
 36 43  1  0
 37 44  1  0
 39 45  1  0
 39 46  1  0
 40 47  1  0
 41 48  1  0
 42 49  1  0
  6 35  1  0
M  CHG  1   5   1
M  END
>  <attachment_point>  (326) 
26

>  <score>  (326) 
<NA>

$$$$
CAT-4j
     RDKit          3D

 54 57  0  0  1  0  0  0  0  0999 V2000
   11.7106   -2.3098    1.2658 C   0  0  0  0  0  0  0  0  0  0  0  0
   13.0313   -2.6523    0.7225 N   0  0  0  0  0  0  0  0  0  0  0  0
   14.2010   -2.6281    1.3773 C   0  0  0  0  0  0  0  0  0  0  0  0
   14.3777   -2.3568    2.6732 N   0  0  0  0  0  0  0  0  0  0  0  0
   15.2217   -2.9197    0.5738 N   0  0  0  0  0  0  0  0  0  0  0  0
   14.7965   -3.2519   -0.7875 C   0  0  1  0  0  0  0  0  0  0  0  0
   15.3794   -2.2443   -1.7949 C   0  0  0  0  0  0  0  0  0  0  0  0
   15.9522   -2.6550   -3.0208 C   0  0  0  0  0  0  0  0  0  0  0  0
   16.4340   -1.6937   -3.9273 C   0  0  0  0  0  0  0  0  0  0  0  0
   16.3364   -0.3224   -3.6308 C   0  0  0  0  0  0  0  0  0  0  0  0
   15.7943    0.1250   -2.4073 C   0  0  0  0  0  0  0  0  0  0  0  0
   15.6711    1.5693   -2.0915 C   0  0  0  0  0  0  0  0  0  0  0  0
   15.3832    2.0354   -0.7903 C   0  0  0  0  0  0  0  0  0  0  0  0
   15.3534    3.4188   -0.5357 C   0  0  0  0  0  0  0  0  0  0  0  0
   15.5968    4.3049   -1.5946 C   0  0  0  0  0  0  0  0  0  0  0  0
   15.8275    3.8920   -2.8511 N   0  0  0  0  0  0  0  0  0  0  0  0
   15.8598    2.5642   -3.0762 C   0  0  0  0  0  0  0  0  0  0  0  0
   15.3327   -0.8573   -1.5012 C   0  0  0  0  0  0  0  0  0  0  0  0
   13.2767   -3.0094   -0.6368 C   0  0  0  0  0  0  0  0  0  0  0  0
   12.3981   -3.0674   -1.5055 O   0  0  0  0  0  0  0  0  0  0  0  0
    0.0000    0.0000    0.0000 H   0  0  0  0  0  0  0  0  0  0  0  0
    0.0000    0.0000    0.0000 H   0  0  0  0  0  0  0  0  0  0  0  0
    0.0000    0.0000    0.0000 H   0  0  0  0  0  0  0  0  0  0  0  0
    0.0000    0.0000    0.0000 H   0  0  0  0  0  0  0  0  0  0  0  0
    0.0000    0.0000    0.0000 H   0  0  0  0  0  0  0  0  0  0  0  0
    0.0000    0.0000    0.0000 H   0  0  0  0  0  0  0  0  0  0  0  0
    0.0000    0.0000    0.0000 H   0  0  0  0  0  0  0  0  0  0  0  0
    0.0000    0.0000    0.0000 H   0  0  0  0  0  0  0  0  0  0  0  0
    0.0000    0.0000    0.0000 H   0  0  0  0  0  0  0  0  0  0  0  0
    0.0000    0.0000    0.0000 H   0  0  0  0  0  0  0  0  0  0  0  0
    0.0000    0.0000    0.0000 H   0  0  0  0  0  0  0  0  0  0  0  0
    0.0000    0.0000    0.0000 H   0  0  0  0  0  0  0  0  0  0  0  0
    0.0000    0.0000    0.0000 H   0  0  0  0  0  0  0  0  0  0  0  0
    0.0000    0.0000    0.0000 H   0  0  0  0  0  0  0  0  0  0  0  0
    6.9327   -1.5236   -0.3690 O   0  0  0  0  0  0  0  0  0  0  0  0
    6.4334   -2.7617   -0.7150 C   0  0  0  0  0  0  0  0  0  0  0  0
    5.6357   -2.5638   -2.0037 C   0  0  0  0  0  0  0  0  0  0  0  0
    4.9360   -3.8338   -2.3779 C   0  0  0  0  0  0  0  0  0  0  0  0
    4.7597   -4.7430   -1.2981 N   0  0  0  0  0  0  0  0  0  0  0  0
    3.8365   -5.7680   -1.6783 C   0  0  0  0  0  0  0  0  0  0  0  0
    4.4405   -4.1342   -0.0378 C   0  0  0  0  0  0  0  0  0  0  0  0
    5.4999   -3.1820    0.3988 C   0  0  0  0  0  0  0  0  0  0  0  0
    7.2262   -3.4711   -0.9050 H   0  0  0  0  0  0  0  0  0  0  0  0
    6.3970   -2.2491   -2.7739 H   0  0  0  0  0  0  0  0  0  0  0  0
    4.9386   -1.7254   -1.8104 H   0  0  0  0  0  0  0  0  0  0  0  0
    5.5781   -4.3407   -3.1496 H   0  0  0  0  0  0  0  0  0  0  0  0
    3.9784   -3.6002   -2.9287 H   0  0  0  0  0  0  0  0  0  0  0  0
    4.3587   -6.4994   -2.3324 H   0  0  0  0  0  0  0  0  0  0  0  0
    2.9909   -5.3746   -2.2841 H   0  0  0  0  0  0  0  0  0  0  0  0
    3.3807   -6.3000   -0.8192 H   0  0  0  0  0  0  0  0  0  0  0  0
    4.4039   -4.9624    0.7188 H   0  0  0  0  0  0  0  0  0  0  0  0
    3.4262   -3.6743   -0.0106 H   0  0  0  0  0  0  0  0  0  0  0  0
    5.0377   -2.2760    0.8337 H   0  0  0  0  0  0  0  0  0  0  0  0
    6.1561   -3.5998    1.2081 H   0  0  0  0  0  0  0  0  0  0  0  0
  1  2  1  0
  2  3  1  0
  2 19  1  0
  3  4  1  0
  3  5  2  0
  5  6  1  0
  6  7  1  0
  6 19  1  0
  7  8  2  0
  7 18  1  0
  8  9  1  0
  9 10  2  0
 10 11  1  0
 11 12  1  0
 11 18  2  0
 12 13  2  0
 12 17  1  0
 13 14  1  0
 14 15  2  0
 15 16  1  0
 16 17  2  0
 19 20  2  0
  1 21  1  0
  1 22  1  0
  1 23  1  0
  4 24  1  0
  4 25  1  0
  5 26  1  0
  8 27  1  0
  9 28  1  0
 10 29  1  0
 13 30  1  0
 14 31  1  0
 15 32  1  0
 17 33  1  0
 18 34  1  0
 35 36  1  0
 36 37  1  0
 37 38  1  0
 38 39  1  0
 39 40  1  0
 39 41  1  0
 41 42  1  0
 42 36  1  0
 36 43  1  0
 37 44  1  0
 37 45  1  0
 38 46  1  0
 38 47  1  0
 40 48  1  0
 40 49  1  0
 40 50  1  0
 41 51  1  0
 41 52  1  0
 42 53  1  0
 42 54  1  0
  6 35  1  6
M  CHG  1   5   1
M  END
>  <attachment_point>  (327) 
26

>  <score>  (327) 
<NA>

$$$$
CAT-4j
     RDKit          3D

 51 54  0  0  1  0  0  0  0  0999 V2000
   11.7106   -2.3098    1.2658 C   0  0  0  0  0  0  0  0  0  0  0  0
   13.0313   -2.6523    0.7225 N   0  0  0  0  0  0  0  0  0  0  0  0
   14.2010   -2.6281    1.3773 C   0  0  0  0  0  0  0  0  0  0  0  0
   14.3777   -2.3568    2.6732 N   0  0  0  0  0  0  0  0  0  0  0  0
   15.2217   -2.9197    0.5738 N   0  0  0  0  0  0  0  0  0  0  0  0
   14.7965   -3.2519   -0.7875 C   0  0  1  0  0  0  0  0  0  0  0  0
   15.3794   -2.2443   -1.7949 C   0  0  0  0  0  0  0  0  0  0  0  0
   15.9522   -2.6550   -3.0208 C   0  0  0  0  0  0  0  0  0  0  0  0
   16.4340   -1.6937   -3.9273 C   0  0  0  0  0  0  0  0  0  0  0  0
   16.3364   -0.3224   -3.6308 C   0  0  0  0  0  0  0  0  0  0  0  0
   15.7943    0.1250   -2.4073 C   0  0  0  0  0  0  0  0  0  0  0  0
   15.6711    1.5693   -2.0915 C   0  0  0  0  0  0  0  0  0  0  0  0
   15.3832    2.0354   -0.7903 C   0  0  0  0  0  0  0  0  0  0  0  0
   15.3534    3.4188   -0.5357 C   0  0  0  0  0  0  0  0  0  0  0  0
   15.5968    4.3049   -1.5946 C   0  0  0  0  0  0  0  0  0  0  0  0
   15.8275    3.8920   -2.8511 N   0  0  0  0  0  0  0  0  0  0  0  0
   15.8598    2.5642   -3.0762 C   0  0  0  0  0  0  0  0  0  0  0  0
   15.3327   -0.8573   -1.5012 C   0  0  0  0  0  0  0  0  0  0  0  0
   13.2767   -3.0094   -0.6368 C   0  0  0  0  0  0  0  0  0  0  0  0
   12.3981   -3.0674   -1.5055 O   0  0  0  0  0  0  0  0  0  0  0  0
    0.0000    0.0000    0.0000 H   0  0  0  0  0  0  0  0  0  0  0  0
    0.0000    0.0000    0.0000 H   0  0  0  0  0  0  0  0  0  0  0  0
    0.0000    0.0000    0.0000 H   0  0  0  0  0  0  0  0  0  0  0  0
    0.0000    0.0000    0.0000 H   0  0  0  0  0  0  0  0  0  0  0  0
    0.0000    0.0000    0.0000 H   0  0  0  0  0  0  0  0  0  0  0  0
    0.0000    0.0000    0.0000 H   0  0  0  0  0  0  0  0  0  0  0  0
    0.0000    0.0000    0.0000 H   0  0  0  0  0  0  0  0  0  0  0  0
    0.0000    0.0000    0.0000 H   0  0  0  0  0  0  0  0  0  0  0  0
    0.0000    0.0000    0.0000 H   0  0  0  0  0  0  0  0  0  0  0  0
    0.0000    0.0000    0.0000 H   0  0  0  0  0  0  0  0  0  0  0  0
    0.0000    0.0000    0.0000 H   0  0  0  0  0  0  0  0  0  0  0  0
    0.0000    0.0000    0.0000 H   0  0  0  0  0  0  0  0  0  0  0  0
    0.0000    0.0000    0.0000 H   0  0  0  0  0  0  0  0  0  0  0  0
    0.0000    0.0000    0.0000 H   0  0  0  0  0  0  0  0  0  0  0  0
    6.9813   -1.5343   -0.3716 S   0  0  0  0  0  6  0  0  0  0  0  0
    6.2269   -2.5999    0.3900 O   0  0  0  0  0  0  0  0  0  0  0  0
    6.4260   -1.5654   -1.7899 O   0  0  0  0  0  0  0  0  0  0  0  0
    6.6509    0.0203    0.2487 N   0  0  0  0  0  0  0  0  0  0  0  0
    7.1049    0.2356    1.5874 C   0  0  0  0  0  0  0  0  0  0  0  0
    7.0448    1.7193    1.8702 C   0  0  0  0  0  0  0  0  0  0  0  0
    6.1572    2.4021    1.0895 O   0  0  0  0  0  0  0  0  0  0  0  0
    5.0257    1.7095    0.7362 C   0  0  0  0  0  0  0  0  0  0  0  0
    5.2965    0.4203    0.0088 C   0  0  0  0  0  0  0  0  0  0  0  0
    6.4996   -0.2685    2.3511 H   0  0  0  0  0  0  0  0  0  0  0  0
    8.1334   -0.1755    1.6652 H   0  0  0  0  0  0  0  0  0  0  0  0
    6.9171    1.8997    2.9482 H   0  0  0  0  0  0  0  0  0  0  0  0
    8.0734    2.1131    1.6212 H   0  0  0  0  0  0  0  0  0  0  0  0
    4.4297    2.3744    0.0613 H   0  0  0  0  0  0  0  0  0  0  0  0
    4.3595    1.5066    1.6055 H   0  0  0  0  0  0  0  0  0  0  0  0
    4.6118   -0.3898    0.3044 H   0  0  0  0  0  0  0  0  0  0  0  0
    5.2081    0.5957   -1.0849 H   0  0  0  0  0  0  0  0  0  0  0  0
  1  2  1  0
  2  3  1  0
  2 19  1  0
  3  4  1  0
  3  5  2  0
  5  6  1  0
  6  7  1  1
  6 19  1  0
  7  8  2  0
  7 18  1  0
  8  9  1  0
  9 10  2  0
 10 11  1  0
 11 12  1  0
 11 18  2  0
 12 13  2  0
 12 17  1  0
 13 14  1  0
 14 15  2  0
 15 16  1  0
 16 17  2  0
 19 20  2  0
  1 21  1  0
  1 22  1  0
  1 23  1  0
  4 24  1  0
  4 25  1  0
  5 26  1  0
  8 27  1  0
  9 28  1  0
 10 29  1  0
 13 30  1  0
 14 31  1  0
 15 32  1  0
 17 33  1  0
 18 34  1  0
 35 36  2  0
 35 37  2  0
 35 38  1  0
 38 39  1  0
 39 40  1  0
 40 41  1  0
 41 42  1  0
 42 43  1  0
 43 38  1  0
 39 44  1  0
 39 45  1  0
 40 46  1  0
 40 47  1  0
 42 48  1  0
 42 49  1  0
 43 50  1  0
 43 51  1  0
  6 35  1  0
M  CHG  1   5   1
M  END
>  <attachment_point>  (328) 
26

>  <score>  (328) 
<NA>

$$$$
CAT-4j
     RDKit          3D

 45 48  0  0  1  0  0  0  0  0999 V2000
   11.7106   -2.3098    1.2658 C   0  0  0  0  0  0  0  0  0  0  0  0
   13.0313   -2.6523    0.7225 N   0  0  0  0  0  0  0  0  0  0  0  0
   14.2010   -2.6281    1.3773 C   0  0  0  0  0  0  0  0  0  0  0  0
   14.3777   -2.3568    2.6732 N   0  0  0  0  0  0  0  0  0  0  0  0
   15.2217   -2.9197    0.5738 N   0  0  0  0  0  0  0  0  0  0  0  0
   14.7965   -3.2519   -0.7875 C   0  0  1  0  0  0  0  0  0  0  0  0
   15.3794   -2.2443   -1.7949 C   0  0  0  0  0  0  0  0  0  0  0  0
   15.9522   -2.6550   -3.0208 C   0  0  0  0  0  0  0  0  0  0  0  0
   16.4340   -1.6937   -3.9273 C   0  0  0  0  0  0  0  0  0  0  0  0
   16.3364   -0.3224   -3.6308 C   0  0  0  0  0  0  0  0  0  0  0  0
   15.7943    0.1250   -2.4073 C   0  0  0  0  0  0  0  0  0  0  0  0
   15.6711    1.5693   -2.0915 C   0  0  0  0  0  0  0  0  0  0  0  0
   15.3832    2.0354   -0.7903 C   0  0  0  0  0  0  0  0  0  0  0  0
   15.3534    3.4188   -0.5357 C   0  0  0  0  0  0  0  0  0  0  0  0
   15.5968    4.3049   -1.5946 C   0  0  0  0  0  0  0  0  0  0  0  0
   15.8275    3.8920   -2.8511 N   0  0  0  0  0  0  0  0  0  0  0  0
   15.8598    2.5642   -3.0762 C   0  0  0  0  0  0  0  0  0  0  0  0
   15.3327   -0.8573   -1.5012 C   0  0  0  0  0  0  0  0  0  0  0  0
   13.2767   -3.0094   -0.6368 C   0  0  0  0  0  0  0  0  0  0  0  0
   12.3981   -3.0674   -1.5055 O   0  0  0  0  0  0  0  0  0  0  0  0
    0.0000    0.0000    0.0000 H   0  0  0  0  0  0  0  0  0  0  0  0
    0.0000    0.0000    0.0000 H   0  0  0  0  0  0  0  0  0  0  0  0
    0.0000    0.0000    0.0000 H   0  0  0  0  0  0  0  0  0  0  0  0
    0.0000    0.0000    0.0000 H   0  0  0  0  0  0  0  0  0  0  0  0
    0.0000    0.0000    0.0000 H   0  0  0  0  0  0  0  0  0  0  0  0
    0.0000    0.0000    0.0000 H   0  0  0  0  0  0  0  0  0  0  0  0
    0.0000    0.0000    0.0000 H   0  0  0  0  0  0  0  0  0  0  0  0
    0.0000    0.0000    0.0000 H   0  0  0  0  0  0  0  0  0  0  0  0
    0.0000    0.0000    0.0000 H   0  0  0  0  0  0  0  0  0  0  0  0
    0.0000    0.0000    0.0000 H   0  0  0  0  0  0  0  0  0  0  0  0
    0.0000    0.0000    0.0000 H   0  0  0  0  0  0  0  0  0  0  0  0
    0.0000    0.0000    0.0000 H   0  0  0  0  0  0  0  0  0  0  0  0
    0.0000    0.0000    0.0000 H   0  0  0  0  0  0  0  0  0  0  0  0
    0.0000    0.0000    0.0000 H   0  0  0  0  0  0  0  0  0  0  0  0
    6.9532   -1.5281   -0.3701 C   0  0  0  0  0  0  0  0  0  0  0  0
    6.2778   -2.8303   -0.1508 C   0  0  0  0  0  0  0  0  0  0  0  0
    5.9723   -3.4512    1.0404 C   0  0  0  0  0  0  0  0  0  0  0  0
    5.3661   -4.6061    0.7475 N   0  0  0  0  0  0  0  0  0  0  0  0
    5.2955   -4.7028   -0.5862 C   0  0  0  0  0  0  0  0  0  0  0  0
    5.8546   -3.6135   -1.1567 N   0  0  0  0  0  0  0  0  0  0  0  0
    6.8931   -0.8684    0.5163 H   0  0  0  0  0  0  0  0  0  0  0  0
    6.6549   -1.0408   -1.3069 H   0  0  0  0  0  0  0  0  0  0  0  0
    6.2055   -3.0323    2.0297 H   0  0  0  0  0  0  0  0  0  0  0  0
    5.0081   -5.3122    1.4087 H   0  0  0  0  0  0  0  0  0  0  0  0
    4.8736   -5.4950   -1.1933 H   0  0  0  0  0  0  0  0  0  0  0  0
  1  2  1  0
  2  3  1  0
  2 19  1  0
  3  4  1  0
  3  5  2  0
  5  6  1  0
  6  7  1  0
  6 19  1  0
  7  8  2  0
  7 18  1  0
  8  9  1  0
  9 10  2  0
 10 11  1  0
 11 12  1  0
 11 18  2  0
 12 13  2  0
 12 17  1  0
 13 14  1  0
 14 15  2  0
 15 16  1  0
 16 17  2  0
 19 20  2  0
  1 21  1  0
  1 22  1  0
  1 23  1  0
  4 24  1  0
  4 25  1  0
  5 26  1  0
  8 27  1  0
  9 28  1  0
 10 29  1  0
 13 30  1  0
 14 31  1  0
 15 32  1  0
 17 33  1  0
 18 34  1  0
 35 36  1  0
 36 37  2  0
 37 38  1  0
 38 39  1  0
 39 40  2  0
 40 36  1  0
 35 41  1  0
 35 42  1  0
 37 43  1  0
 38 44  1  0
 39 45  1  0
  6 35  1  6
M  CHG  1   5   1
M  END
>  <attachment_point>  (329) 
26

>  <score>  (329) 
<NA>

$$$$
CAT-4j
     RDKit          3D

 48 51  0  0  1  0  0  0  0  0999 V2000
   11.7106   -2.3098    1.2658 C   0  0  0  0  0  0  0  0  0  0  0  0
   13.0313   -2.6523    0.7225 N   0  0  0  0  0  0  0  0  0  0  0  0
   14.2010   -2.6281    1.3773 C   0  0  0  0  0  0  0  0  0  0  0  0
   14.3777   -2.3568    2.6732 N   0  0  0  0  0  0  0  0  0  0  0  0
   15.2217   -2.9197    0.5738 N   0  0  0  0  0  0  0  0  0  0  0  0
   14.7965   -3.2519   -0.7875 C   0  0  1  0  0  0  0  0  0  0  0  0
   15.3794   -2.2443   -1.7949 C   0  0  0  0  0  0  0  0  0  0  0  0
   15.9522   -2.6550   -3.0208 C   0  0  0  0  0  0  0  0  0  0  0  0
   16.4340   -1.6937   -3.9273 C   0  0  0  0  0  0  0  0  0  0  0  0
   16.3364   -0.3224   -3.6308 C   0  0  0  0  0  0  0  0  0  0  0  0
   15.7943    0.1250   -2.4073 C   0  0  0  0  0  0  0  0  0  0  0  0
   15.6711    1.5693   -2.0915 C   0  0  0  0  0  0  0  0  0  0  0  0
   15.3832    2.0354   -0.7903 C   0  0  0  0  0  0  0  0  0  0  0  0
   15.3534    3.4188   -0.5357 C   0  0  0  0  0  0  0  0  0  0  0  0
   15.5968    4.3049   -1.5946 C   0  0  0  0  0  0  0  0  0  0  0  0
   15.8275    3.8920   -2.8511 N   0  0  0  0  0  0  0  0  0  0  0  0
   15.8598    2.5642   -3.0762 C   0  0  0  0  0  0  0  0  0  0  0  0
   15.3327   -0.8573   -1.5012 C   0  0  0  0  0  0  0  0  0  0  0  0
   13.2767   -3.0094   -0.6368 C   0  0  0  0  0  0  0  0  0  0  0  0
   12.3981   -3.0674   -1.5055 O   0  0  0  0  0  0  0  0  0  0  0  0
    0.0000    0.0000    0.0000 H   0  0  0  0  0  0  0  0  0  0  0  0
    0.0000    0.0000    0.0000 H   0  0  0  0  0  0  0  0  0  0  0  0
    0.0000    0.0000    0.0000 H   0  0  0  0  0  0  0  0  0  0  0  0
    0.0000    0.0000    0.0000 H   0  0  0  0  0  0  0  0  0  0  0  0
    0.0000    0.0000    0.0000 H   0  0  0  0  0  0  0  0  0  0  0  0
    0.0000    0.0000    0.0000 H   0  0  0  0  0  0  0  0  0  0  0  0
    0.0000    0.0000    0.0000 H   0  0  0  0  0  0  0  0  0  0  0  0
    0.0000    0.0000    0.0000 H   0  0  0  0  0  0  0  0  0  0  0  0
    0.0000    0.0000    0.0000 H   0  0  0  0  0  0  0  0  0  0  0  0
    0.0000    0.0000    0.0000 H   0  0  0  0  0  0  0  0  0  0  0  0
    0.0000    0.0000    0.0000 H   0  0  0  0  0  0  0  0  0  0  0  0
    0.0000    0.0000    0.0000 H   0  0  0  0  0  0  0  0  0  0  0  0
    0.0000    0.0000    0.0000 H   0  0  0  0  0  0  0  0  0  0  0  0
    0.0000    0.0000    0.0000 H   0  0  0  0  0  0  0  0  0  0  0  0
    6.9707   -1.5320   -0.3710 C   0  0  0  0  0  0  0  0  0  0  0  0
    6.5724   -0.3470   -0.1567 O   0  0  0  0  0  0  0  0  0  0  0  0
    6.0041   -2.5860   -0.5423 N   0  0  0  0  0  0  0  0  0  0  0  0
    4.6433   -2.2359   -0.4609 C   0  0  0  0  0  0  0  0  0  0  0  0
    3.9781   -2.2696    0.7694 C   0  0  0  0  0  0  0  0  0  0  0  0
    2.6474   -1.9273    0.8492 C   0  0  0  0  0  0  0  0  0  0  0  0
    2.0051   -1.5624   -0.2732 N   0  0  0  0  0  0  0  0  0  0  0  0
    2.6272   -1.5220   -1.4747 C   0  0  0  0  0  0  0  0  0  0  0  0
    3.9571   -1.8578   -1.5917 C   0  0  0  0  0  0  0  0  0  0  0  0
    6.3287   -3.5634   -0.7189 H   0  0  0  0  0  0  0  0  0  0  0  0
    4.4932   -2.5608    1.6605 H   0  0  0  0  0  0  0  0  0  0  0  0
    2.0924   -1.9425    1.7999 H   0  0  0  0  0  0  0  0  0  0  0  0
    2.1004   -1.2254   -2.3795 H   0  0  0  0  0  0  0  0  0  0  0  0
    4.4755   -1.8345   -2.5334 H   0  0  0  0  0  0  0  0  0  0  0  0
  1  2  1  0
  2  3  1  0
  2 19  1  0
  3  4  1  0
  3  5  2  0
  5  6  1  0
  6  7  1  0
  6 19  1  0
  7  8  2  0
  7 18  1  0
  8  9  1  0
  9 10  2  0
 10 11  1  0
 11 12  1  0
 11 18  2  0
 12 13  2  0
 12 17  1  0
 13 14  1  0
 14 15  2  0
 15 16  1  0
 16 17  2  0
 19 20  2  0
  1 21  1  0
  1 22  1  0
  1 23  1  0
  4 24  1  0
  4 25  1  0
  5 26  1  0
  8 27  1  0
  9 28  1  0
 10 29  1  0
 13 30  1  0
 14 31  1  0
 15 32  1  0
 17 33  1  0
 18 34  1  0
 35 36  2  0
 35 37  1  0
 37 38  1  0
 38 39  2  0
 39 40  1  0
 40 41  2  0
 41 42  1  0
 42 43  2  0
 43 38  1  0
 37 44  1  0
 39 45  1  0
 40 46  1  0
 42 47  1  0
 43 48  1  0
  6 35  1  6
M  CHG  1   5   1
M  END
>  <attachment_point>  (330) 
26

>  <score>  (330) 
<NA>

$$$$
CAT-4j
     RDKit          3D

 50 53  0  0  1  0  0  0  0  0999 V2000
   11.7106   -2.3098    1.2658 C   0  0  0  0  0  0  0  0  0  0  0  0
   13.0313   -2.6523    0.7225 N   0  0  0  0  0  0  0  0  0  0  0  0
   14.2010   -2.6281    1.3773 C   0  0  0  0  0  0  0  0  0  0  0  0
   14.3777   -2.3568    2.6732 N   0  0  0  0  0  0  0  0  0  0  0  0
   15.2217   -2.9197    0.5738 N   0  0  0  0  0  0  0  0  0  0  0  0
   14.7965   -3.2519   -0.7875 C   0  0  1  0  0  0  0  0  0  0  0  0
   15.3794   -2.2443   -1.7949 C   0  0  0  0  0  0  0  0  0  0  0  0
   15.9522   -2.6550   -3.0208 C   0  0  0  0  0  0  0  0  0  0  0  0
   16.4340   -1.6937   -3.9273 C   0  0  0  0  0  0  0  0  0  0  0  0
   16.3364   -0.3224   -3.6308 C   0  0  0  0  0  0  0  0  0  0  0  0
   15.7943    0.1250   -2.4073 C   0  0  0  0  0  0  0  0  0  0  0  0
   15.6711    1.5693   -2.0915 C   0  0  0  0  0  0  0  0  0  0  0  0
   15.3832    2.0354   -0.7903 C   0  0  0  0  0  0  0  0  0  0  0  0
   15.3534    3.4188   -0.5357 C   0  0  0  0  0  0  0  0  0  0  0  0
   15.5968    4.3049   -1.5946 C   0  0  0  0  0  0  0  0  0  0  0  0
   15.8275    3.8920   -2.8511 N   0  0  0  0  0  0  0  0  0  0  0  0
   15.8598    2.5642   -3.0762 C   0  0  0  0  0  0  0  0  0  0  0  0
   15.3327   -0.8573   -1.5012 C   0  0  0  0  0  0  0  0  0  0  0  0
   13.2767   -3.0094   -0.6368 C   0  0  0  0  0  0  0  0  0  0  0  0
   12.3981   -3.0674   -1.5055 O   0  0  0  0  0  0  0  0  0  0  0  0
    0.0000    0.0000    0.0000 H   0  0  0  0  0  0  0  0  0  0  0  0
    0.0000    0.0000    0.0000 H   0  0  0  0  0  0  0  0  0  0  0  0
    0.0000    0.0000    0.0000 H   0  0  0  0  0  0  0  0  0  0  0  0
    0.0000    0.0000    0.0000 H   0  0  0  0  0  0  0  0  0  0  0  0
    0.0000    0.0000    0.0000 H   0  0  0  0  0  0  0  0  0  0  0  0
    0.0000    0.0000    0.0000 H   0  0  0  0  0  0  0  0  0  0  0  0
    0.0000    0.0000    0.0000 H   0  0  0  0  0  0  0  0  0  0  0  0
    0.0000    0.0000    0.0000 H   0  0  0  0  0  0  0  0  0  0  0  0
    0.0000    0.0000    0.0000 H   0  0  0  0  0  0  0  0  0  0  0  0
    0.0000    0.0000    0.0000 H   0  0  0  0  0  0  0  0  0  0  0  0
    0.0000    0.0000    0.0000 H   0  0  0  0  0  0  0  0  0  0  0  0
    0.0000    0.0000    0.0000 H   0  0  0  0  0  0  0  0  0  0  0  0
    0.0000    0.0000    0.0000 H   0  0  0  0  0  0  0  0  0  0  0  0
    0.0000    0.0000    0.0000 H   0  0  0  0  0  0  0  0  0  0  0  0
    6.8518   -1.5058   -0.3647 O   0  0  0  0  0  0  0  0  0  0  0  0
    6.6877   -1.3548    0.9949 C   0  0  0  0  0  0  0  0  0  0  0  0
    7.4643   -0.4758    1.7487 C   0  0  0  0  0  0  0  0  0  0  0  0
    7.2521   -0.3687    3.1087 C   0  0  0  0  0  0  0  0  0  0  0  0
    6.2764   -1.1284    3.7159 C   0  0  0  0  0  0  0  0  0  0  0  0
    6.0616   -1.0242    5.0731 O   0  0  0  0  0  0  0  0  0  0  0  0
    6.8336   -0.1435    5.8540 C   0  0  0  0  0  0  0  0  0  0  0  0
    5.5001   -2.0056    2.9680 C   0  0  0  0  0  0  0  0  0  0  0  0
    5.7131   -2.1104    1.6154 C   0  0  0  0  0  0  0  0  0  0  0  0
    8.2259    0.1138    1.2597 H   0  0  0  0  0  0  0  0  0  0  0  0
    7.8205    0.2938    3.7471 H   0  0  0  0  0  0  0  0  0  0  0  0
    7.8940   -0.4539    5.8094 H   0  0  0  0  0  0  0  0  0  0  0  0
    6.4365   -0.1554    6.8906 H   0  0  0  0  0  0  0  0  0  0  0  0
    6.7311    0.8657    5.4076 H   0  0  0  0  0  0  0  0  0  0  0  0
    4.7342   -2.6057    3.4275 H   0  0  0  0  0  0  0  0  0  0  0  0
    5.1171   -2.7879    1.0233 H   0  0  0  0  0  0  0  0  0  0  0  0
  1  2  1  0
  2  3  1  0
  2 19  1  0
  3  4  1  0
  3  5  2  0
  5  6  1  0
  6  7  1  0
  6 19  1  0
  7  8  2  0
  7 18  1  0
  8  9  1  0
  9 10  2  0
 10 11  1  0
 11 12  1  0
 11 18  2  0
 12 13  2  0
 12 17  1  0
 13 14  1  0
 14 15  2  0
 15 16  1  0
 16 17  2  0
 19 20  2  0
  1 21  1  0
  1 22  1  0
  1 23  1  0
  4 24  1  0
  4 25  1  0
  5 26  1  0
  8 27  1  0
  9 28  1  0
 10 29  1  0
 13 30  1  0
 14 31  1  0
 15 32  1  0
 17 33  1  0
 18 34  1  0
 35 36  1  0
 36 37  2  0
 37 38  1  0
 38 39  2  0
 39 40  1  0
 40 41  1  0
 39 42  1  0
 42 43  2  0
 43 36  1  0
 37 44  1  0
 38 45  1  0
 41 46  1  0
 41 47  1  0
 41 48  1  0
 42 49  1  0
 43 50  1  0
  6 35  1  6
M  CHG  1   5   1
M  END
>  <attachment_point>  (331) 
26

>  <score>  (331) 
<NA>

$$$$
CAT-4j
     RDKit          3D

 52 55  0  0  1  0  0  0  0  0999 V2000
   11.7106   -2.3098    1.2658 C   0  0  0  0  0  0  0  0  0  0  0  0
   13.0313   -2.6523    0.7225 N   0  0  0  0  0  0  0  0  0  0  0  0
   14.2010   -2.6281    1.3773 C   0  0  0  0  0  0  0  0  0  0  0  0
   14.3777   -2.3568    2.6732 N   0  0  0  0  0  0  0  0  0  0  0  0
   15.2217   -2.9197    0.5738 N   0  0  0  0  0  0  0  0  0  0  0  0
   14.7965   -3.2519   -0.7875 C   0  0  1  0  0  0  0  0  0  0  0  0
   15.3794   -2.2443   -1.7949 C   0  0  0  0  0  0  0  0  0  0  0  0
   15.9522   -2.6550   -3.0208 C   0  0  0  0  0  0  0  0  0  0  0  0
   16.4340   -1.6937   -3.9273 C   0  0  0  0  0  0  0  0  0  0  0  0
   16.3364   -0.3224   -3.6308 C   0  0  0  0  0  0  0  0  0  0  0  0
   15.7943    0.1250   -2.4073 C   0  0  0  0  0  0  0  0  0  0  0  0
   15.6711    1.5693   -2.0915 C   0  0  0  0  0  0  0  0  0  0  0  0
   15.3832    2.0354   -0.7903 C   0  0  0  0  0  0  0  0  0  0  0  0
   15.3534    3.4188   -0.5357 C   0  0  0  0  0  0  0  0  0  0  0  0
   15.5968    4.3049   -1.5946 C   0  0  0  0  0  0  0  0  0  0  0  0
   15.8275    3.8920   -2.8511 N   0  0  0  0  0  0  0  0  0  0  0  0
   15.8598    2.5642   -3.0762 C   0  0  0  0  0  0  0  0  0  0  0  0
   15.3327   -0.8573   -1.5012 C   0  0  0  0  0  0  0  0  0  0  0  0
   13.2767   -3.0094   -0.6368 C   0  0  0  0  0  0  0  0  0  0  0  0
   12.3981   -3.0674   -1.5055 O   0  0  0  0  0  0  0  0  0  0  0  0
    0.0000    0.0000    0.0000 H   0  0  0  0  0  0  0  0  0  0  0  0
    0.0000    0.0000    0.0000 H   0  0  0  0  0  0  0  0  0  0  0  0
    0.0000    0.0000    0.0000 H   0  0  0  0  0  0  0  0  0  0  0  0
    0.0000    0.0000    0.0000 H   0  0  0  0  0  0  0  0  0  0  0  0
    0.0000    0.0000    0.0000 H   0  0  0  0  0  0  0  0  0  0  0  0
    0.0000    0.0000    0.0000 H   0  0  0  0  0  0  0  0  0  0  0  0
    0.0000    0.0000    0.0000 H   0  0  0  0  0  0  0  0  0  0  0  0
    0.0000    0.0000    0.0000 H   0  0  0  0  0  0  0  0  0  0  0  0
    0.0000    0.0000    0.0000 H   0  0  0  0  0  0  0  0  0  0  0  0
    0.0000    0.0000    0.0000 H   0  0  0  0  0  0  0  0  0  0  0  0
    0.0000    0.0000    0.0000 H   0  0  0  0  0  0  0  0  0  0  0  0
    0.0000    0.0000    0.0000 H   0  0  0  0  0  0  0  0  0  0  0  0
    0.0000    0.0000    0.0000 H   0  0  0  0  0  0  0  0  0  0  0  0
    0.0000    0.0000    0.0000 H   0  0  0  0  0  0  0  0  0  0  0  0
    6.9766   -1.5333   -0.3713 C   0  0  0  0  0  0  0  0  0  0  0  0
    6.7393   -0.1164   -0.6144 N   0  0  0  0  0  0  0  0  0  0  0  0
    7.3408    0.8357    0.2543 C   0  0  0  0  0  0  0  0  0  0  0  0
    8.0557    0.3471    1.1966 O   0  0  0  0  0  0  0  0  0  0  0  0
    7.1704    2.2660    0.1025 C   0  0  0  0  0  0  0  0  0  0  0  0
    7.8011    3.0916    1.0039 C   0  0  0  0  0  0  0  0  0  0  0  0
    7.6564    4.4796    0.8847 C   0  0  0  0  0  0  0  0  0  0  0  0
    6.8897    5.0221   -0.1249 C   0  0  0  0  0  0  0  0  0  0  0  0
    6.2649    4.2089   -1.0175 C   0  0  0  0  0  0  0  0  0  0  0  0
    6.4160    2.8216   -0.8897 C   0  0  0  0  0  0  0  0  0  0  0  0
    6.5253   -1.8816    0.5754 H   0  0  0  0  0  0  0  0  0  0  0  0
    6.4414   -2.1079   -1.1815 H   0  0  0  0  0  0  0  0  0  0  0  0
    6.1426    0.2098   -1.4057 H   0  0  0  0  0  0  0  0  0  0  0  0
    8.4081    2.7412    1.8077 H   0  0  0  0  0  0  0  0  0  0  0  0
    8.1439    5.1517    1.5832 H   0  0  0  0  0  0  0  0  0  0  0  0
    6.7746    6.0964   -0.2213 H   0  0  0  0  0  0  0  0  0  0  0  0
    5.6540    4.6299   -1.8226 H   0  0  0  0  0  0  0  0  0  0  0  0
    5.9123    2.1953   -1.6076 H   0  0  0  0  0  0  0  0  0  0  0  0
  1  2  1  0
  2  3  1  0
  2 19  1  0
  3  4  1  0
  3  5  2  0
  5  6  1  0
  6  7  1  0
  6 19  1  0
  7  8  2  0
  7 18  1  0
  8  9  1  0
  9 10  2  0
 10 11  1  0
 11 12  1  0
 11 18  2  0
 12 13  2  0
 12 17  1  0
 13 14  1  0
 14 15  2  0
 15 16  1  0
 16 17  2  0
 19 20  2  0
  1 21  1  0
  1 22  1  0
  1 23  1  0
  4 24  1  0
  4 25  1  0
  5 26  1  0
  8 27  1  0
  9 28  1  0
 10 29  1  0
 13 30  1  0
 14 31  1  0
 15 32  1  0
 17 33  1  0
 18 34  1  0
 35 36  1  0
 36 37  1  0
 37 38  2  0
 37 39  1  0
 39 40  2  0
 40 41  1  0
 41 42  2  0
 42 43  1  0
 43 44  2  0
 44 39  1  0
 35 45  1  0
 35 46  1  0
 36 47  1  0
 40 48  1  0
 41 49  1  0
 42 50  1  0
 43 51  1  0
 44 52  1  0
  6 35  1  6
M  CHG  1   5   1
M  END
>  <attachment_point>  (332) 
26

>  <score>  (332) 
<NA>

$$$$
CAT-4j
     RDKit          3D

 38 40  0  0  1  0  0  0  0  0999 V2000
   11.7106   -2.3098    1.2658 C   0  0  0  0  0  0  0  0  0  0  0  0
   13.0313   -2.6523    0.7225 N   0  0  0  0  0  0  0  0  0  0  0  0
   14.2010   -2.6281    1.3773 C   0  0  0  0  0  0  0  0  0  0  0  0
   14.3777   -2.3568    2.6732 N   0  0  0  0  0  0  0  0  0  0  0  0
   15.2217   -2.9197    0.5738 N   0  0  0  0  0  0  0  0  0  0  0  0
   14.7965   -3.2519   -0.7875 C   0  0  1  0  0  0  0  0  0  0  0  0
   15.3794   -2.2443   -1.7949 C   0  0  0  0  0  0  0  0  0  0  0  0
   15.9522   -2.6550   -3.0208 C   0  0  0  0  0  0  0  0  0  0  0  0
   16.4340   -1.6937   -3.9273 C   0  0  0  0  0  0  0  0  0  0  0  0
   16.3364   -0.3224   -3.6308 C   0  0  0  0  0  0  0  0  0  0  0  0
   15.7943    0.1250   -2.4073 C   0  0  0  0  0  0  0  0  0  0  0  0
   15.6711    1.5693   -2.0915 C   0  0  0  0  0  0  0  0  0  0  0  0
   15.3832    2.0354   -0.7903 C   0  0  0  0  0  0  0  0  0  0  0  0
   15.3534    3.4188   -0.5357 C   0  0  0  0  0  0  0  0  0  0  0  0
   15.5968    4.3049   -1.5946 C   0  0  0  0  0  0  0  0  0  0  0  0
   15.8275    3.8920   -2.8511 N   0  0  0  0  0  0  0  0  0  0  0  0
   15.8598    2.5642   -3.0762 C   0  0  0  0  0  0  0  0  0  0  0  0
   15.3327   -0.8573   -1.5012 C   0  0  0  0  0  0  0  0  0  0  0  0
   13.2767   -3.0094   -0.6368 C   0  0  0  0  0  0  0  0  0  0  0  0
   12.3981   -3.0674   -1.5055 O   0  0  0  0  0  0  0  0  0  0  0  0
    0.0000    0.0000    0.0000 H   0  0  0  0  0  0  0  0  0  0  0  0
    0.0000    0.0000    0.0000 H   0  0  0  0  0  0  0  0  0  0  0  0
    0.0000    0.0000    0.0000 H   0  0  0  0  0  0  0  0  0  0  0  0
    0.0000    0.0000    0.0000 H   0  0  0  0  0  0  0  0  0  0  0  0
    0.0000    0.0000    0.0000 H   0  0  0  0  0  0  0  0  0  0  0  0
    0.0000    0.0000    0.0000 H   0  0  0  0  0  0  0  0  0  0  0  0
    0.0000    0.0000    0.0000 H   0  0  0  0  0  0  0  0  0  0  0  0
    0.0000    0.0000    0.0000 H   0  0  0  0  0  0  0  0  0  0  0  0
    0.0000    0.0000    0.0000 H   0  0  0  0  0  0  0  0  0  0  0  0
    0.0000    0.0000    0.0000 H   0  0  0  0  0  0  0  0  0  0  0  0
    0.0000    0.0000    0.0000 H   0  0  0  0  0  0  0  0  0  0  0  0
    0.0000    0.0000    0.0000 H   0  0  0  0  0  0  0  0  0  0  0  0
    0.0000    0.0000    0.0000 H   0  0  0  0  0  0  0  0  0  0  0  0
    0.0000    0.0000    0.0000 H   0  0  0  0  0  0  0  0  0  0  0  0
    6.9267   -1.5223   -0.3687 C   0  0  0  0  0  0  0  0  0  0  0  0
    6.5924   -1.0287   -1.5844 F   0  0  0  0  0  0  0  0  0  0  0  0
    6.8391   -0.7626    0.4169 H   0  0  0  0  0  0  0  0  0  0  0  0
    6.4531   -2.4594   -0.0807 H   0  0  0  0  0  0  0  0  0  0  0  0
  1  2  1  0
  2  3  1  0
  2 19  1  0
  3  4  1  0
  3  5  2  0
  5  6  1  0
  6  7  1  0
  6 19  1  0
  7  8  2  0
  7 18  1  0
  8  9  1  0
  9 10  2  0
 10 11  1  0
 11 12  1  0
 11 18  2  0
 12 13  2  0
 12 17  1  0
 13 14  1  0
 14 15  2  0
 15 16  1  0
 16 17  2  0
 19 20  2  0
  1 21  1  0
  1 22  1  0
  1 23  1  0
  4 24  1  0
  4 25  1  0
  5 26  1  0
  8 27  1  0
  9 28  1  0
 10 29  1  0
 13 30  1  0
 14 31  1  0
 15 32  1  0
 17 33  1  0
 18 34  1  0
 35 36  1  0
 35 37  1  0
 35 38  1  0
  6 35  1  6
M  CHG  1   5   1
M  END
>  <attachment_point>  (333) 
26

>  <score>  (333) 
<NA>

$$$$
CAT-4j
     RDKit          3D

 46 49  0  0  1  0  0  0  0  0999 V2000
   11.7106   -2.3098    1.2658 C   0  0  0  0  0  0  0  0  0  0  0  0
   13.0313   -2.6523    0.7225 N   0  0  0  0  0  0  0  0  0  0  0  0
   14.2010   -2.6281    1.3773 C   0  0  0  0  0  0  0  0  0  0  0  0
   14.3777   -2.3568    2.6732 N   0  0  0  0  0  0  0  0  0  0  0  0
   15.2217   -2.9197    0.5738 N   0  0  0  0  0  0  0  0  0  0  0  0
   14.7965   -3.2519   -0.7875 C   0  0  1  0  0  0  0  0  0  0  0  0
   15.3794   -2.2443   -1.7949 C   0  0  0  0  0  0  0  0  0  0  0  0
   15.9522   -2.6550   -3.0208 C   0  0  0  0  0  0  0  0  0  0  0  0
   16.4340   -1.6937   -3.9273 C   0  0  0  0  0  0  0  0  0  0  0  0
   16.3364   -0.3224   -3.6308 C   0  0  0  0  0  0  0  0  0  0  0  0
   15.7943    0.1250   -2.4073 C   0  0  0  0  0  0  0  0  0  0  0  0
   15.6711    1.5693   -2.0915 C   0  0  0  0  0  0  0  0  0  0  0  0
   15.3832    2.0354   -0.7903 C   0  0  0  0  0  0  0  0  0  0  0  0
   15.3534    3.4188   -0.5357 C   0  0  0  0  0  0  0  0  0  0  0  0
   15.5968    4.3049   -1.5946 C   0  0  0  0  0  0  0  0  0  0  0  0
   15.8275    3.8920   -2.8511 N   0  0  0  0  0  0  0  0  0  0  0  0
   15.8598    2.5642   -3.0762 C   0  0  0  0  0  0  0  0  0  0  0  0
   15.3327   -0.8573   -1.5012 C   0  0  0  0  0  0  0  0  0  0  0  0
   13.2767   -3.0094   -0.6368 C   0  0  0  0  0  0  0  0  0  0  0  0
   12.3981   -3.0674   -1.5055 O   0  0  0  0  0  0  0  0  0  0  0  0
    0.0000    0.0000    0.0000 H   0  0  0  0  0  0  0  0  0  0  0  0
    0.0000    0.0000    0.0000 H   0  0  0  0  0  0  0  0  0  0  0  0
    0.0000    0.0000    0.0000 H   0  0  0  0  0  0  0  0  0  0  0  0
    0.0000    0.0000    0.0000 H   0  0  0  0  0  0  0  0  0  0  0  0
    0.0000    0.0000    0.0000 H   0  0  0  0  0  0  0  0  0  0  0  0
    0.0000    0.0000    0.0000 H   0  0  0  0  0  0  0  0  0  0  0  0
    0.0000    0.0000    0.0000 H   0  0  0  0  0  0  0  0  0  0  0  0
    0.0000    0.0000    0.0000 H   0  0  0  0  0  0  0  0  0  0  0  0
    0.0000    0.0000    0.0000 H   0  0  0  0  0  0  0  0  0  0  0  0
    0.0000    0.0000    0.0000 H   0  0  0  0  0  0  0  0  0  0  0  0
    0.0000    0.0000    0.0000 H   0  0  0  0  0  0  0  0  0  0  0  0
    0.0000    0.0000    0.0000 H   0  0  0  0  0  0  0  0  0  0  0  0
    0.0000    0.0000    0.0000 H   0  0  0  0  0  0  0  0  0  0  0  0
    0.0000    0.0000    0.0000 H   0  0  0  0  0  0  0  0  0  0  0  0
    6.9266   -1.5223   -0.3686 N   0  0  0  0  0  0  0  0  0  0  0  0
    6.6375   -0.2965    0.2315 C   0  0  0  0  0  0  0  0  0  0  0  0
    6.5538    0.8766   -0.5052 C   0  0  0  0  0  0  0  0  0  0  0  0
    6.2650    2.0290    0.1703 C   0  0  0  0  0  0  0  0  0  0  0  0
    6.0573    2.0781    1.5228 C   0  0  0  0  0  0  0  0  0  0  0  0
    6.1484    0.9189    2.1943 N   0  0  0  0  0  0  0  0  0  0  0  0
    6.4256   -0.2396    1.6038 C   0  0  0  0  0  0  0  0  0  0  0  0
    6.3562   -2.2456   -0.7647 H   0  0  0  0  0  0  0  0  0  0  0  0
    6.7198    0.8301   -1.5774 H   0  0  0  0  0  0  0  0  0  0  0  0
    6.1940    2.9568   -0.3801 H   0  0  0  0  0  0  0  0  0  0  0  0
    5.8314    3.0218    2.0038 H   0  0  0  0  0  0  0  0  0  0  0  0
    6.4992   -1.1898    2.1638 H   0  0  0  0  0  0  0  0  0  0  0  0
  1  2  1  0
  2  3  1  0
  2 19  1  0
  3  4  1  0
  3  5  2  0
  5  6  1  0
  6  7  1  0
  6 19  1  0
  7  8  2  0
  7 18  1  0
  8  9  1  0
  9 10  2  0
 10 11  1  0
 11 12  1  0
 11 18  2  0
 12 13  2  0
 12 17  1  0
 13 14  1  0
 14 15  2  0
 15 16  1  0
 16 17  2  0
 19 20  2  0
  1 21  1  0
  1 22  1  0
  1 23  1  0
  4 24  1  0
  4 25  1  0
  5 26  1  0
  8 27  1  0
  9 28  1  0
 10 29  1  0
 13 30  1  0
 14 31  1  0
 15 32  1  0
 17 33  1  0
 18 34  1  0
 35 36  1  0
 36 37  2  0
 37 38  1  0
 38 39  2  0
 39 40  1  0
 40 41  2  0
 41 36  1  0
 35 42  1  0
 37 43  1  0
 38 44  1  0
 39 45  1  0
 41 46  1  0
  6 35  1  6
M  CHG  1   5   1
M  END
>  <attachment_point>  (334) 
26

>  <score>  (334) 
<NA>

$$$$
CAT-4j
     RDKit          3D

 49 52  0  0  1  0  0  0  0  0999 V2000
   11.7106   -2.3098    1.2658 C   0  0  0  0  0  0  0  0  0  0  0  0
   13.0313   -2.6523    0.7225 N   0  0  0  0  0  0  0  0  0  0  0  0
   14.2010   -2.6281    1.3773 C   0  0  0  0  0  0  0  0  0  0  0  0
   14.3777   -2.3568    2.6732 N   0  0  0  0  0  0  0  0  0  0  0  0
   15.2217   -2.9197    0.5738 N   0  0  0  0  0  0  0  0  0  0  0  0
   14.7965   -3.2519   -0.7875 C   0  0  1  0  0  0  0  0  0  0  0  0
   15.3794   -2.2443   -1.7949 C   0  0  0  0  0  0  0  0  0  0  0  0
   15.9522   -2.6550   -3.0208 C   0  0  0  0  0  0  0  0  0  0  0  0
   16.4340   -1.6937   -3.9273 C   0  0  0  0  0  0  0  0  0  0  0  0
   16.3364   -0.3224   -3.6308 C   0  0  0  0  0  0  0  0  0  0  0  0
   15.7943    0.1250   -2.4073 C   0  0  0  0  0  0  0  0  0  0  0  0
   15.6711    1.5693   -2.0915 C   0  0  0  0  0  0  0  0  0  0  0  0
   15.3832    2.0354   -0.7903 C   0  0  0  0  0  0  0  0  0  0  0  0
   15.3534    3.4188   -0.5357 C   0  0  0  0  0  0  0  0  0  0  0  0
   15.5968    4.3049   -1.5946 C   0  0  0  0  0  0  0  0  0  0  0  0
   15.8275    3.8920   -2.8511 N   0  0  0  0  0  0  0  0  0  0  0  0
   15.8598    2.5642   -3.0762 C   0  0  0  0  0  0  0  0  0  0  0  0
   15.3327   -0.8573   -1.5012 C   0  0  0  0  0  0  0  0  0  0  0  0
   13.2767   -3.0094   -0.6368 C   0  0  0  0  0  0  0  0  0  0  0  0
   12.3981   -3.0674   -1.5055 O   0  0  0  0  0  0  0  0  0  0  0  0
    0.0000    0.0000    0.0000 H   0  0  0  0  0  0  0  0  0  0  0  0
    0.0000    0.0000    0.0000 H   0  0  0  0  0  0  0  0  0  0  0  0
    0.0000    0.0000    0.0000 H   0  0  0  0  0  0  0  0  0  0  0  0
    0.0000    0.0000    0.0000 H   0  0  0  0  0  0  0  0  0  0  0  0
    0.0000    0.0000    0.0000 H   0  0  0  0  0  0  0  0  0  0  0  0
    0.0000    0.0000    0.0000 H   0  0  0  0  0  0  0  0  0  0  0  0
    0.0000    0.0000    0.0000 H   0  0  0  0  0  0  0  0  0  0  0  0
    0.0000    0.0000    0.0000 H   0  0  0  0  0  0  0  0  0  0  0  0
    0.0000    0.0000    0.0000 H   0  0  0  0  0  0  0  0  0  0  0  0
    0.0000    0.0000    0.0000 H   0  0  0  0  0  0  0  0  0  0  0  0
    0.0000    0.0000    0.0000 H   0  0  0  0  0  0  0  0  0  0  0  0
    0.0000    0.0000    0.0000 H   0  0  0  0  0  0  0  0  0  0  0  0
    0.0000    0.0000    0.0000 H   0  0  0  0  0  0  0  0  0  0  0  0
    0.0000    0.0000    0.0000 H   0  0  0  0  0  0  0  0  0  0  0  0
    6.9884   -1.5359   -0.3719 N   0  0  0  0  0  0  0  0  0  0  0  0
    6.3725   -2.5695    0.4531 C   0  0  0  0  0  0  0  0  0  0  0  0
    6.6087   -3.8688   -0.2053 C   0  0  0  0  0  0  0  0  0  0  0  0
    7.7390   -4.5798    0.1066 C   0  0  0  0  0  0  0  0  0  0  0  0
    7.9580   -5.8015   -0.5146 C   0  0  0  0  0  0  0  0  0  0  0  0
    7.0668   -6.2714   -1.4084 N   0  0  0  0  0  0  0  0  0  0  0  0
    5.9424   -5.6063   -1.7452 C   0  0  0  0  0  0  0  0  0  0  0  0
    5.7372   -4.3868   -1.1162 C   0  0  0  0  0  0  0  0  0  0  0  0
    6.5706   -1.5403   -1.3216 H   0  0  0  0  0  0  0  0  0  0  0  0
    6.8414   -2.5127    1.4732 H   0  0  0  0  0  0  0  0  0  0  0  0
    5.2911   -2.3994    0.5744 H   0  0  0  0  0  0  0  0  0  0  0  0
    8.4814   -4.2296    0.8252 H   0  0  0  0  0  0  0  0  0  0  0  0
    8.8600   -6.3478   -0.2523 H   0  0  0  0  0  0  0  0  0  0  0  0
    5.2272   -5.9812   -2.4613 H   0  0  0  0  0  0  0  0  0  0  0  0
    4.8539   -3.8178   -1.3515 H   0  0  0  0  0  0  0  0  0  0  0  0
  1  2  1  0
  2  3  1  0
  2 19  1  0
  3  4  1  0
  3  5  2  0
  5  6  1  0
  6  7  1  0
  6 19  1  0
  7  8  2  0
  7 18  1  0
  8  9  1  0
  9 10  2  0
 10 11  1  0
 11 12  1  0
 11 18  2  0
 12 13  2  0
 12 17  1  0
 13 14  1  0
 14 15  2  0
 15 16  1  0
 16 17  2  0
 19 20  2  0
  1 21  1  0
  1 22  1  0
  1 23  1  0
  4 24  1  0
  4 25  1  0
  5 26  1  0
  8 27  1  0
  9 28  1  0
 10 29  1  0
 13 30  1  0
 14 31  1  0
 15 32  1  0
 17 33  1  0
 18 34  1  0
 35 36  1  0
 36 37  1  0
 37 38  2  0
 38 39  1  0
 39 40  2  0
 40 41  1  0
 41 42  2  0
 42 37  1  0
 35 43  1  0
 36 44  1  0
 36 45  1  0
 38 46  1  0
 39 47  1  0
 41 48  1  0
 42 49  1  0
  6 35  1  6
M  CHG  1   5   1
M  END
>  <attachment_point>  (335) 
26

>  <score>  (335) 
<NA>

$$$$
CAT-4j
     RDKit          3D

 42 45  0  0  1  0  0  0  0  0999 V2000
   11.7106   -2.3098    1.2658 C   0  0  0  0  0  0  0  0  0  0  0  0
   13.0313   -2.6523    0.7225 N   0  0  0  0  0  0  0  0  0  0  0  0
   14.2010   -2.6281    1.3773 C   0  0  0  0  0  0  0  0  0  0  0  0
   14.3777   -2.3568    2.6732 N   0  0  0  0  0  0  0  0  0  0  0  0
   15.2217   -2.9197    0.5738 N   0  0  0  0  0  0  0  0  0  0  0  0
   14.7965   -3.2519   -0.7875 C   0  0  1  0  0  0  0  0  0  0  0  0
   15.3794   -2.2443   -1.7949 C   0  0  0  0  0  0  0  0  0  0  0  0
   15.9522   -2.6550   -3.0208 C   0  0  0  0  0  0  0  0  0  0  0  0
   16.4340   -1.6937   -3.9273 C   0  0  0  0  0  0  0  0  0  0  0  0
   16.3364   -0.3224   -3.6308 C   0  0  0  0  0  0  0  0  0  0  0  0
   15.7943    0.1250   -2.4073 C   0  0  0  0  0  0  0  0  0  0  0  0
   15.6711    1.5693   -2.0915 C   0  0  0  0  0  0  0  0  0  0  0  0
   15.3832    2.0354   -0.7903 C   0  0  0  0  0  0  0  0  0  0  0  0
   15.3534    3.4188   -0.5357 C   0  0  0  0  0  0  0  0  0  0  0  0
   15.5968    4.3049   -1.5946 C   0  0  0  0  0  0  0  0  0  0  0  0
   15.8275    3.8920   -2.8511 N   0  0  0  0  0  0  0  0  0  0  0  0
   15.8598    2.5642   -3.0762 C   0  0  0  0  0  0  0  0  0  0  0  0
   15.3327   -0.8573   -1.5012 C   0  0  0  0  0  0  0  0  0  0  0  0
   13.2767   -3.0094   -0.6368 C   0  0  0  0  0  0  0  0  0  0  0  0
   12.3981   -3.0674   -1.5055 O   0  0  0  0  0  0  0  0  0  0  0  0
    0.0000    0.0000    0.0000 H   0  0  0  0  0  0  0  0  0  0  0  0
    0.0000    0.0000    0.0000 H   0  0  0  0  0  0  0  0  0  0  0  0
    0.0000    0.0000    0.0000 H   0  0  0  0  0  0  0  0  0  0  0  0
    0.0000    0.0000    0.0000 H   0  0  0  0  0  0  0  0  0  0  0  0
    0.0000    0.0000    0.0000 H   0  0  0  0  0  0  0  0  0  0  0  0
    0.0000    0.0000    0.0000 H   0  0  0  0  0  0  0  0  0  0  0  0
    0.0000    0.0000    0.0000 H   0  0  0  0  0  0  0  0  0  0  0  0
    0.0000    0.0000    0.0000 H   0  0  0  0  0  0  0  0  0  0  0  0
    0.0000    0.0000    0.0000 H   0  0  0  0  0  0  0  0  0  0  0  0
    0.0000    0.0000    0.0000 H   0  0  0  0  0  0  0  0  0  0  0  0
    0.0000    0.0000    0.0000 H   0  0  0  0  0  0  0  0  0  0  0  0
    0.0000    0.0000    0.0000 H   0  0  0  0  0  0  0  0  0  0  0  0
    0.0000    0.0000    0.0000 H   0  0  0  0  0  0  0  0  0  0  0  0
    0.0000    0.0000    0.0000 H   0  0  0  0  0  0  0  0  0  0  0  0
    6.9324   -1.5236   -0.3690 C   0  0  0  0  0  0  0  0  0  0  0  0
    6.3974   -0.3341   -0.2481 N   0  0  0  0  0  0  0  0  0  0  0  0
    5.0419   -0.4877   -0.2148 C   0  0  0  0  0  0  0  0  0  0  0  0
    4.8282   -1.8503   -0.3247 C   0  0  0  0  0  0  0  0  0  0  0  0
    6.0260   -2.4898   -0.4209 N   0  0  0  0  0  0  0  0  0  0  0  0
    4.3032    0.2887   -0.1225 H   0  0  0  0  0  0  0  0  0  0  0  0
    3.8727   -2.3498   -0.3349 H   0  0  0  0  0  0  0  0  0  0  0  0
    6.2436   -3.4931   -0.5148 H   0  0  0  0  0  0  0  0  0  0  0  0
  1  2  1  0
  2  3  1  0
  2 19  1  0
  3  4  1  0
  3  5  2  0
  5  6  1  0
  6  7  1  1
  6 19  1  0
  7  8  2  0
  7 18  1  0
  8  9  1  0
  9 10  2  0
 10 11  1  0
 11 12  1  0
 11 18  2  0
 12 13  2  0
 12 17  1  0
 13 14  1  0
 14 15  2  0
 15 16  1  0
 16 17  2  0
 19 20  2  0
  1 21  1  0
  1 22  1  0
  1 23  1  0
  4 24  1  0
  4 25  1  0
  5 26  1  0
  8 27  1  0
  9 28  1  0
 10 29  1  0
 13 30  1  0
 14 31  1  0
 15 32  1  0
 17 33  1  0
 18 34  1  0
 35 36  2  0
 36 37  1  0
 37 38  2  0
 38 39  1  0
 39 35  1  0
 37 40  1  0
 38 41  1  0
 39 42  1  0
  6 35  1  0
M  CHG  1   5   1
M  END
>  <attachment_point>  (336) 
26

>  <score>  (336) 
<NA>

$$$$
CAT-4j
     RDKit          3D

 46 49  0  0  1  0  0  0  0  0999 V2000
   11.7106   -2.3098    1.2658 C   0  0  0  0  0  0  0  0  0  0  0  0
   13.0313   -2.6523    0.7225 N   0  0  0  0  0  0  0  0  0  0  0  0
   14.2010   -2.6281    1.3773 C   0  0  0  0  0  0  0  0  0  0  0  0
   14.3777   -2.3568    2.6732 N   0  0  0  0  0  0  0  0  0  0  0  0
   15.2217   -2.9197    0.5738 N   0  0  0  0  0  0  0  0  0  0  0  0
   14.7965   -3.2519   -0.7875 C   0  0  1  0  0  0  0  0  0  0  0  0
   15.3794   -2.2443   -1.7949 C   0  0  0  0  0  0  0  0  0  0  0  0
   15.9522   -2.6550   -3.0208 C   0  0  0  0  0  0  0  0  0  0  0  0
   16.4340   -1.6937   -3.9273 C   0  0  0  0  0  0  0  0  0  0  0  0
   16.3364   -0.3224   -3.6308 C   0  0  0  0  0  0  0  0  0  0  0  0
   15.7943    0.1250   -2.4073 C   0  0  0  0  0  0  0  0  0  0  0  0
   15.6711    1.5693   -2.0915 C   0  0  0  0  0  0  0  0  0  0  0  0
   15.3832    2.0354   -0.7903 C   0  0  0  0  0  0  0  0  0  0  0  0
   15.3534    3.4188   -0.5357 C   0  0  0  0  0  0  0  0  0  0  0  0
   15.5968    4.3049   -1.5946 C   0  0  0  0  0  0  0  0  0  0  0  0
   15.8275    3.8920   -2.8511 N   0  0  0  0  0  0  0  0  0  0  0  0
   15.8598    2.5642   -3.0762 C   0  0  0  0  0  0  0  0  0  0  0  0
   15.3327   -0.8573   -1.5012 C   0  0  0  0  0  0  0  0  0  0  0  0
   13.2767   -3.0094   -0.6368 C   0  0  0  0  0  0  0  0  0  0  0  0
   12.3981   -3.0674   -1.5055 O   0  0  0  0  0  0  0  0  0  0  0  0
    0.0000    0.0000    0.0000 H   0  0  0  0  0  0  0  0  0  0  0  0
    0.0000    0.0000    0.0000 H   0  0  0  0  0  0  0  0  0  0  0  0
    0.0000    0.0000    0.0000 H   0  0  0  0  0  0  0  0  0  0  0  0
    0.0000    0.0000    0.0000 H   0  0  0  0  0  0  0  0  0  0  0  0
    0.0000    0.0000    0.0000 H   0  0  0  0  0  0  0  0  0  0  0  0
    0.0000    0.0000    0.0000 H   0  0  0  0  0  0  0  0  0  0  0  0
    0.0000    0.0000    0.0000 H   0  0  0  0  0  0  0  0  0  0  0  0
    0.0000    0.0000    0.0000 H   0  0  0  0  0  0  0  0  0  0  0  0
    0.0000    0.0000    0.0000 H   0  0  0  0  0  0  0  0  0  0  0  0
    0.0000    0.0000    0.0000 H   0  0  0  0  0  0  0  0  0  0  0  0
    0.0000    0.0000    0.0000 H   0  0  0  0  0  0  0  0  0  0  0  0
    0.0000    0.0000    0.0000 H   0  0  0  0  0  0  0  0  0  0  0  0
    0.0000    0.0000    0.0000 H   0  0  0  0  0  0  0  0  0  0  0  0
    0.0000    0.0000    0.0000 H   0  0  0  0  0  0  0  0  0  0  0  0
    7.1307   -1.5672   -0.3795 O   0  0  0  0  0  0  0  0  0  0  0  0
    5.7381   -1.6038   -0.2797 C   0  0  0  0  0  0  0  0  0  0  0  0
    4.9716   -2.4832   -1.0146 C   0  0  0  0  0  0  0  0  0  0  0  0
    3.5897   -2.5106   -0.9074 C   0  0  0  0  0  0  0  0  0  0  0  0
    2.9230   -1.6525   -0.0547 C   0  0  0  0  0  0  0  0  0  0  0  0
    3.6957   -0.7747    0.6782 C   0  0  0  0  0  0  0  0  0  0  0  0
    2.8571    0.3166    1.7615 Cl  0  0  0  0  0  0  0  0  0  0  0  0
    5.0745   -0.7457    0.5726 C   0  0  0  0  0  0  0  0  0  0  0  0
    5.5070   -3.1513   -1.6800 H   0  0  0  0  0  0  0  0  0  0  0  0
    3.0094   -3.2209   -1.5046 H   0  0  0  0  0  0  0  0  0  0  0  0
    1.8458   -1.7012    0.0038 H   0  0  0  0  0  0  0  0  0  0  0  0
    5.6459   -0.0401    1.1665 H   0  0  0  0  0  0  0  0  0  0  0  0
  1  2  1  0
  2  3  1  0
  2 19  1  0
  3  4  1  0
  3  5  2  0
  5  6  1  0
  6  7  1  0
  6 19  1  0
  7  8  2  0
  7 18  1  0
  8  9  1  0
  9 10  2  0
 10 11  1  0
 11 12  1  0
 11 18  2  0
 12 13  2  0
 12 17  1  0
 13 14  1  0
 14 15  2  0
 15 16  1  0
 16 17  2  0
 19 20  2  0
  1 21  1  0
  1 22  1  0
  1 23  1  0
  4 24  1  0
  4 25  1  0
  5 26  1  0
  8 27  1  0
  9 28  1  0
 10 29  1  0
 13 30  1  0
 14 31  1  0
 15 32  1  0
 17 33  1  0
 18 34  1  0
 35 36  1  0
 36 37  2  0
 37 38  1  0
 38 39  2  0
 39 40  1  0
 40 41  1  0
 40 42  2  0
 42 36  1  0
 37 43  1  0
 38 44  1  0
 39 45  1  0
 42 46  1  0
  6 35  1  6
M  CHG  1   5   1
M  END
>  <attachment_point>  (337) 
26

>  <score>  (337) 
<NA>

$$$$
CAT-4j
     RDKit          3D

 47 49  0  0  1  0  0  0  0  0999 V2000
   11.7106   -2.3098    1.2658 C   0  0  0  0  0  0  0  0  0  0  0  0
   13.0313   -2.6523    0.7225 N   0  0  0  0  0  0  0  0  0  0  0  0
   14.2010   -2.6281    1.3773 C   0  0  0  0  0  0  0  0  0  0  0  0
   14.3777   -2.3568    2.6732 N   0  0  0  0  0  0  0  0  0  0  0  0
   15.2217   -2.9197    0.5738 N   0  0  0  0  0  0  0  0  0  0  0  0
   14.7965   -3.2519   -0.7875 C   0  0  1  0  0  0  0  0  0  0  0  0
   15.3794   -2.2443   -1.7949 C   0  0  0  0  0  0  0  0  0  0  0  0
   15.9522   -2.6550   -3.0208 C   0  0  0  0  0  0  0  0  0  0  0  0
   16.4340   -1.6937   -3.9273 C   0  0  0  0  0  0  0  0  0  0  0  0
   16.3364   -0.3224   -3.6308 C   0  0  0  0  0  0  0  0  0  0  0  0
   15.7943    0.1250   -2.4073 C   0  0  0  0  0  0  0  0  0  0  0  0
   15.6711    1.5693   -2.0915 C   0  0  0  0  0  0  0  0  0  0  0  0
   15.3832    2.0354   -0.7903 C   0  0  0  0  0  0  0  0  0  0  0  0
   15.3534    3.4188   -0.5357 C   0  0  0  0  0  0  0  0  0  0  0  0
   15.5968    4.3049   -1.5946 C   0  0  0  0  0  0  0  0  0  0  0  0
   15.8275    3.8920   -2.8511 N   0  0  0  0  0  0  0  0  0  0  0  0
   15.8598    2.5642   -3.0762 C   0  0  0  0  0  0  0  0  0  0  0  0
   15.3327   -0.8573   -1.5012 C   0  0  0  0  0  0  0  0  0  0  0  0
   13.2767   -3.0094   -0.6368 C   0  0  0  0  0  0  0  0  0  0  0  0
   12.3981   -3.0674   -1.5055 O   0  0  0  0  0  0  0  0  0  0  0  0
    0.0000    0.0000    0.0000 H   0  0  0  0  0  0  0  0  0  0  0  0
    0.0000    0.0000    0.0000 H   0  0  0  0  0  0  0  0  0  0  0  0
    0.0000    0.0000    0.0000 H   0  0  0  0  0  0  0  0  0  0  0  0
    0.0000    0.0000    0.0000 H   0  0  0  0  0  0  0  0  0  0  0  0
    0.0000    0.0000    0.0000 H   0  0  0  0  0  0  0  0  0  0  0  0
    0.0000    0.0000    0.0000 H   0  0  0  0  0  0  0  0  0  0  0  0
    0.0000    0.0000    0.0000 H   0  0  0  0  0  0  0  0  0  0  0  0
    0.0000    0.0000    0.0000 H   0  0  0  0  0  0  0  0  0  0  0  0
    0.0000    0.0000    0.0000 H   0  0  0  0  0  0  0  0  0  0  0  0
    0.0000    0.0000    0.0000 H   0  0  0  0  0  0  0  0  0  0  0  0
    0.0000    0.0000    0.0000 H   0  0  0  0  0  0  0  0  0  0  0  0
    0.0000    0.0000    0.0000 H   0  0  0  0  0  0  0  0  0  0  0  0
    0.0000    0.0000    0.0000 H   0  0  0  0  0  0  0  0  0  0  0  0
    0.0000    0.0000    0.0000 H   0  0  0  0  0  0  0  0  0  0  0  0
    6.8977   -1.5159   -0.3671 N   0  0  0  0  0  0  0  0  0  0  0  0
    6.0817   -2.5999   -0.1962 C   0  0  0  0  0  0  0  0  0  0  0  0
    6.4889   -3.8115   -0.1047 O   0  0  0  0  0  0  0  0  0  0  0  0
    4.6494   -2.4063   -0.1078 N   0  0  0  0  0  0  0  0  0  0  0  0
    3.7729   -3.5432    0.0729 C   0  0  0  0  0  0  0  0  0  0  0  0
    3.9127   -4.5085   -1.0585 C   0  0  0  0  0  0  0  0  0  0  0  0
    6.7189   -0.5639   -0.4497 H   0  0  0  0  0  0  0  0  0  0  0  0
    4.3317   -1.4163   -0.1837 H   0  0  0  0  0  0  0  0  0  0  0  0
    3.9461   -4.0138    1.0627 H   0  0  0  0  0  0  0  0  0  0  0  0
    2.7313   -3.1156    0.1318 H   0  0  0  0  0  0  0  0  0  0  0  0
    4.8116   -4.2792   -1.6641 H   0  0  0  0  0  0  0  0  0  0  0  0
    2.9914   -4.4211   -1.6888 H   0  0  0  0  0  0  0  0  0  0  0  0
    3.9506   -5.5571   -0.6502 H   0  0  0  0  0  0  0  0  0  0  0  0
  1  2  1  0
  2  3  1  0
  2 19  1  0
  3  4  1  0
  3  5  2  0
  5  6  1  0
  6  7  1  0
  6 19  1  0
  7  8  2  0
  7 18  1  0
  8  9  1  0
  9 10  2  0
 10 11  1  0
 11 12  1  0
 11 18  2  0
 12 13  2  0
 12 17  1  0
 13 14  1  0
 14 15  2  0
 15 16  1  0
 16 17  2  0
 19 20  2  0
  1 21  1  0
  1 22  1  0
  1 23  1  0
  4 24  1  0
  4 25  1  0
  5 26  1  0
  8 27  1  0
  9 28  1  0
 10 29  1  0
 13 30  1  0
 14 31  1  0
 15 32  1  0
 17 33  1  0
 18 34  1  0
 35 36  1  0
 36 37  2  0
 36 38  1  0
 38 39  1  0
 39 40  1  0
 35 41  1  0
 38 42  1  0
 39 43  1  0
 39 44  1  0
 40 45  1  0
 40 46  1  0
 40 47  1  0
  6 35  1  6
M  CHG  1   5   1
M  END
>  <attachment_point>  (338) 
26

>  <score>  (338) 
<NA>

$$$$
CAT-4j
     RDKit          3D

 51 54  0  0  1  0  0  0  0  0999 V2000
   11.7106   -2.3098    1.2658 C   0  0  0  0  0  0  0  0  0  0  0  0
   13.0313   -2.6523    0.7225 N   0  0  0  0  0  0  0  0  0  0  0  0
   14.2010   -2.6281    1.3773 C   0  0  0  0  0  0  0  0  0  0  0  0
   14.3777   -2.3568    2.6732 N   0  0  0  0  0  0  0  0  0  0  0  0
   15.2217   -2.9197    0.5738 N   0  0  0  0  0  0  0  0  0  0  0  0
   14.7965   -3.2519   -0.7875 C   0  0  1  0  0  0  0  0  0  0  0  0
   15.3794   -2.2443   -1.7949 C   0  0  0  0  0  0  0  0  0  0  0  0
   15.9522   -2.6550   -3.0208 C   0  0  0  0  0  0  0  0  0  0  0  0
   16.4340   -1.6937   -3.9273 C   0  0  0  0  0  0  0  0  0  0  0  0
   16.3364   -0.3224   -3.6308 C   0  0  0  0  0  0  0  0  0  0  0  0
   15.7943    0.1250   -2.4073 C   0  0  0  0  0  0  0  0  0  0  0  0
   15.6711    1.5693   -2.0915 C   0  0  0  0  0  0  0  0  0  0  0  0
   15.3832    2.0354   -0.7903 C   0  0  0  0  0  0  0  0  0  0  0  0
   15.3534    3.4188   -0.5357 C   0  0  0  0  0  0  0  0  0  0  0  0
   15.5968    4.3049   -1.5946 C   0  0  0  0  0  0  0  0  0  0  0  0
   15.8275    3.8920   -2.8511 N   0  0  0  0  0  0  0  0  0  0  0  0
   15.8598    2.5642   -3.0762 C   0  0  0  0  0  0  0  0  0  0  0  0
   15.3327   -0.8573   -1.5012 C   0  0  0  0  0  0  0  0  0  0  0  0
   13.2767   -3.0094   -0.6368 C   0  0  0  0  0  0  0  0  0  0  0  0
   12.3981   -3.0674   -1.5055 O   0  0  0  0  0  0  0  0  0  0  0  0
    0.0000    0.0000    0.0000 H   0  0  0  0  0  0  0  0  0  0  0  0
    0.0000    0.0000    0.0000 H   0  0  0  0  0  0  0  0  0  0  0  0
    0.0000    0.0000    0.0000 H   0  0  0  0  0  0  0  0  0  0  0  0
    0.0000    0.0000    0.0000 H   0  0  0  0  0  0  0  0  0  0  0  0
    0.0000    0.0000    0.0000 H   0  0  0  0  0  0  0  0  0  0  0  0
    0.0000    0.0000    0.0000 H   0  0  0  0  0  0  0  0  0  0  0  0
    0.0000    0.0000    0.0000 H   0  0  0  0  0  0  0  0  0  0  0  0
    0.0000    0.0000    0.0000 H   0  0  0  0  0  0  0  0  0  0  0  0
    0.0000    0.0000    0.0000 H   0  0  0  0  0  0  0  0  0  0  0  0
    0.0000    0.0000    0.0000 H   0  0  0  0  0  0  0  0  0  0  0  0
    0.0000    0.0000    0.0000 H   0  0  0  0  0  0  0  0  0  0  0  0
    0.0000    0.0000    0.0000 H   0  0  0  0  0  0  0  0  0  0  0  0
    0.0000    0.0000    0.0000 H   0  0  0  0  0  0  0  0  0  0  0  0
    0.0000    0.0000    0.0000 H   0  0  0  0  0  0  0  0  0  0  0  0
    6.9760   -1.5332   -0.3713 C   0  0  0  0  0  0  0  0  0  0  0  0
    6.0075   -2.5143   -0.3627 C   0  0  0  0  0  0  0  0  0  0  0  0
    4.6553   -2.1882   -0.2896 C   0  0  0  0  0  0  0  0  0  0  0  0
    4.2641   -0.8719   -0.2246 C   0  0  0  0  0  0  0  0  0  0  0  0
    2.8406   -0.5301   -0.1478 C   0  0  0  0  0  0  0  0  0  0  0  0
    1.9850   -1.4534   -0.1423 O   0  0  0  0  0  0  0  0  0  0  0  0
    2.3843    0.7562   -0.0808 O   0  0  0  0  0  0  0  0  0  0  0  0
    1.0036    1.1059   -0.0056 C   0  0  0  0  0  0  0  0  0  0  0  0
    5.2579    0.0832   -0.2353 C   0  0  0  0  0  0  0  0  0  0  0  0
    6.6019   -0.2062   -0.3066 C   0  0  0  0  0  0  0  0  0  0  0  0
    6.3306   -3.5442   -0.4144 H   0  0  0  0  0  0  0  0  0  0  0  0
    3.8967   -2.9527   -0.2828 H   0  0  0  0  0  0  0  0  0  0  0  0
    0.6793    1.3094   -1.0495 H   0  0  0  0  0  0  0  0  0  0  0  0
    0.9533    2.0958    0.5197 H   0  0  0  0  0  0  0  0  0  0  0  0
    0.4089    0.3479    0.5052 H   0  0  0  0  0  0  0  0  0  0  0  0
    4.9347    1.1230   -0.1832 H   0  0  0  0  0  0  0  0  0  0  0  0
    7.3686    0.5744   -0.3133 H   0  0  0  0  0  0  0  0  0  0  0  0
  1  2  1  0
  2  3  1  0
  2 19  1  0
  3  4  1  0
  3  5  2  0
  5  6  1  0
  6  7  1  1
  6 19  1  0
  7  8  2  0
  7 18  1  0
  8  9  1  0
  9 10  2  0
 10 11  1  0
 11 12  1  0
 11 18  2  0
 12 13  2  0
 12 17  1  0
 13 14  1  0
 14 15  2  0
 15 16  1  0
 16 17  2  0
 19 20  2  0
  1 21  1  0
  1 22  1  0
  1 23  1  0
  4 24  1  0
  4 25  1  0
  5 26  1  0
  8 27  1  0
  9 28  1  0
 10 29  1  0
 13 30  1  0
 14 31  1  0
 15 32  1  0
 17 33  1  0
 18 34  1  0
 35 36  2  0
 36 37  1  0
 37 38  2  0
 38 39  1  0
 39 40  2  0
 39 41  1  0
 41 42  1  0
 38 43  1  0
 43 44  2  0
 44 35  1  0
 36 45  1  0
 37 46  1  0
 42 47  1  0
 42 48  1  0
 42 49  1  0
 43 50  1  0
 44 51  1  0
  6 35  1  0
M  CHG  1   5   1
M  END
>  <attachment_point>  (339) 
26

>  <score>  (339) 
<NA>

$$$$
CAT-4j
     RDKit          3D

 42 44  0  0  1  0  0  0  0  0999 V2000
   11.7106   -2.3098    1.2658 C   0  0  0  0  0  0  0  0  0  0  0  0
   13.0313   -2.6523    0.7225 N   0  0  0  0  0  0  0  0  0  0  0  0
   14.2010   -2.6281    1.3773 C   0  0  0  0  0  0  0  0  0  0  0  0
   14.3777   -2.3568    2.6732 N   0  0  0  0  0  0  0  0  0  0  0  0
   15.2217   -2.9197    0.5738 N   0  0  0  0  0  0  0  0  0  0  0  0
   14.7965   -3.2519   -0.7875 C   0  0  1  0  0  0  0  0  0  0  0  0
   15.3794   -2.2443   -1.7949 C   0  0  0  0  0  0  0  0  0  0  0  0
   15.9522   -2.6550   -3.0208 C   0  0  0  0  0  0  0  0  0  0  0  0
   16.4340   -1.6937   -3.9273 C   0  0  0  0  0  0  0  0  0  0  0  0
   16.3364   -0.3224   -3.6308 C   0  0  0  0  0  0  0  0  0  0  0  0
   15.7943    0.1250   -2.4073 C   0  0  0  0  0  0  0  0  0  0  0  0
   15.6711    1.5693   -2.0915 C   0  0  0  0  0  0  0  0  0  0  0  0
   15.3832    2.0354   -0.7903 C   0  0  0  0  0  0  0  0  0  0  0  0
   15.3534    3.4188   -0.5357 C   0  0  0  0  0  0  0  0  0  0  0  0
   15.5968    4.3049   -1.5946 C   0  0  0  0  0  0  0  0  0  0  0  0
   15.8275    3.8920   -2.8511 N   0  0  0  0  0  0  0  0  0  0  0  0
   15.8598    2.5642   -3.0762 C   0  0  0  0  0  0  0  0  0  0  0  0
   15.3327   -0.8573   -1.5012 C   0  0  0  0  0  0  0  0  0  0  0  0
   13.2767   -3.0094   -0.6368 C   0  0  0  0  0  0  0  0  0  0  0  0
   12.3981   -3.0674   -1.5055 O   0  0  0  0  0  0  0  0  0  0  0  0
    0.0000    0.0000    0.0000 H   0  0  0  0  0  0  0  0  0  0  0  0
    0.0000    0.0000    0.0000 H   0  0  0  0  0  0  0  0  0  0  0  0
    0.0000    0.0000    0.0000 H   0  0  0  0  0  0  0  0  0  0  0  0
    0.0000    0.0000    0.0000 H   0  0  0  0  0  0  0  0  0  0  0  0
    0.0000    0.0000    0.0000 H   0  0  0  0  0  0  0  0  0  0  0  0
    0.0000    0.0000    0.0000 H   0  0  0  0  0  0  0  0  0  0  0  0
    0.0000    0.0000    0.0000 H   0  0  0  0  0  0  0  0  0  0  0  0
    0.0000    0.0000    0.0000 H   0  0  0  0  0  0  0  0  0  0  0  0
    0.0000    0.0000    0.0000 H   0  0  0  0  0  0  0  0  0  0  0  0
    0.0000    0.0000    0.0000 H   0  0  0  0  0  0  0  0  0  0  0  0
    0.0000    0.0000    0.0000 H   0  0  0  0  0  0  0  0  0  0  0  0
    0.0000    0.0000    0.0000 H   0  0  0  0  0  0  0  0  0  0  0  0
    0.0000    0.0000    0.0000 H   0  0  0  0  0  0  0  0  0  0  0  0
    0.0000    0.0000    0.0000 H   0  0  0  0  0  0  0  0  0  0  0  0
    6.9750   -1.5329   -0.3712 C   0  0  0  0  0  0  0  0  0  0  0  0
    6.3187   -2.6186   -1.1361 C   0  0  0  0  0  0  0  0  0  0  0  0
    6.4600   -3.9381   -0.6540 N   0  0  0  0  0  0  0  0  0  0  0  0
    5.6592   -2.3913   -2.1746 O   0  0  0  0  0  0  0  0  0  0  0  0
    6.6138   -1.5047    0.6599 H   0  0  0  0  0  0  0  0  0  0  0  0
    6.8490   -0.5454   -0.8916 H   0  0  0  0  0  0  0  0  0  0  0  0
    5.9037   -4.1949    0.1850 H   0  0  0  0  0  0  0  0  0  0  0  0
    7.1171   -4.6217   -1.1462 H   0  0  0  0  0  0  0  0  0  0  0  0
  1  2  1  0
  2  3  1  0
  2 19  1  0
  3  4  1  0
  3  5  2  0
  5  6  1  0
  6  7  1  0
  6 19  1  0
  7  8  2  0
  7 18  1  0
  8  9  1  0
  9 10  2  0
 10 11  1  0
 11 12  1  0
 11 18  2  0
 12 13  2  0
 12 17  1  0
 13 14  1  0
 14 15  2  0
 15 16  1  0
 16 17  2  0
 19 20  2  0
  1 21  1  0
  1 22  1  0
  1 23  1  0
  4 24  1  0
  4 25  1  0
  5 26  1  0
  8 27  1  0
  9 28  1  0
 10 29  1  0
 13 30  1  0
 14 31  1  0
 15 32  1  0
 17 33  1  0
 18 34  1  0
 35 36  1  0
 36 37  1  0
 36 38  2  0
 35 39  1  0
 35 40  1  0
 37 41  1  0
 37 42  1  0
  6 35  1  6
M  CHG  1   5   1
M  END
>  <attachment_point>  (340) 
26

>  <score>  (340) 
<NA>

$$$$
CAT-4j
     RDKit          3D

 49 52  0  0  1  0  0  0  0  0999 V2000
   11.7106   -2.3098    1.2658 C   0  0  0  0  0  0  0  0  0  0  0  0
   13.0313   -2.6523    0.7225 N   0  0  0  0  0  0  0  0  0  0  0  0
   14.2010   -2.6281    1.3773 C   0  0  0  0  0  0  0  0  0  0  0  0
   14.3777   -2.3568    2.6732 N   0  0  0  0  0  0  0  0  0  0  0  0
   15.2217   -2.9197    0.5738 N   0  0  0  0  0  0  0  0  0  0  0  0
   14.7965   -3.2519   -0.7875 C   0  0  1  0  0  0  0  0  0  0  0  0
   15.3794   -2.2443   -1.7949 C   0  0  0  0  0  0  0  0  0  0  0  0
   15.9522   -2.6550   -3.0208 C   0  0  0  0  0  0  0  0  0  0  0  0
   16.4340   -1.6937   -3.9273 C   0  0  0  0  0  0  0  0  0  0  0  0
   16.3364   -0.3224   -3.6308 C   0  0  0  0  0  0  0  0  0  0  0  0
   15.7943    0.1250   -2.4073 C   0  0  0  0  0  0  0  0  0  0  0  0
   15.6711    1.5693   -2.0915 C   0  0  0  0  0  0  0  0  0  0  0  0
   15.3832    2.0354   -0.7903 C   0  0  0  0  0  0  0  0  0  0  0  0
   15.3534    3.4188   -0.5357 C   0  0  0  0  0  0  0  0  0  0  0  0
   15.5968    4.3049   -1.5946 C   0  0  0  0  0  0  0  0  0  0  0  0
   15.8275    3.8920   -2.8511 N   0  0  0  0  0  0  0  0  0  0  0  0
   15.8598    2.5642   -3.0762 C   0  0  0  0  0  0  0  0  0  0  0  0
   15.3327   -0.8573   -1.5012 C   0  0  0  0  0  0  0  0  0  0  0  0
   13.2767   -3.0094   -0.6368 C   0  0  0  0  0  0  0  0  0  0  0  0
   12.3981   -3.0674   -1.5055 O   0  0  0  0  0  0  0  0  0  0  0  0
    0.0000    0.0000    0.0000 H   0  0  0  0  0  0  0  0  0  0  0  0
    0.0000    0.0000    0.0000 H   0  0  0  0  0  0  0  0  0  0  0  0
    0.0000    0.0000    0.0000 H   0  0  0  0  0  0  0  0  0  0  0  0
    0.0000    0.0000    0.0000 H   0  0  0  0  0  0  0  0  0  0  0  0
    0.0000    0.0000    0.0000 H   0  0  0  0  0  0  0  0  0  0  0  0
    0.0000    0.0000    0.0000 H   0  0  0  0  0  0  0  0  0  0  0  0
    0.0000    0.0000    0.0000 H   0  0  0  0  0  0  0  0  0  0  0  0
    0.0000    0.0000    0.0000 H   0  0  0  0  0  0  0  0  0  0  0  0
    0.0000    0.0000    0.0000 H   0  0  0  0  0  0  0  0  0  0  0  0
    0.0000    0.0000    0.0000 H   0  0  0  0  0  0  0  0  0  0  0  0
    0.0000    0.0000    0.0000 H   0  0  0  0  0  0  0  0  0  0  0  0
    0.0000    0.0000    0.0000 H   0  0  0  0  0  0  0  0  0  0  0  0
    0.0000    0.0000    0.0000 H   0  0  0  0  0  0  0  0  0  0  0  0
    0.0000    0.0000    0.0000 H   0  0  0  0  0  0  0  0  0  0  0  0
    6.9670   -1.5312   -0.3708 C   0  0  0  0  0  0  0  0  0  0  0  0
    6.5827   -0.3598    0.2495 C   0  0  0  0  0  0  0  0  0  0  0  0
    5.2308   -0.0926    0.3049 C   0  0  0  0  0  0  0  0  0  0  0  0
    4.2936   -0.9605   -0.2380 C   0  0  0  0  0  0  0  0  0  0  0  0
    4.6855   -2.1279   -0.8557 C   0  0  0  0  0  0  0  0  0  0  0  0
    3.7293   -3.0622   -1.4365 C   0  0  0  0  0  0  0  0  0  0  0  0
    2.3270   -2.8402   -1.4095 N   0  0  0  0  0  0  0  0  0  0  0  0
    4.1313   -4.1096   -1.9874 O   0  0  0  0  0  0  0  0  0  0  0  0
    6.0346   -2.4021   -0.9151 C   0  0  0  0  0  0  0  0  0  0  0  0
    7.2863    0.3435    0.6856 H   0  0  0  0  0  0  0  0  0  0  0  0
    4.8979    0.8221    0.7871 H   0  0  0  0  0  0  0  0  0  0  0  0
    3.2210   -0.7559   -0.1982 H   0  0  0  0  0  0  0  0  0  0  0  0
    1.9702   -1.8820   -1.6080 H   0  0  0  0  0  0  0  0  0  0  0  0
    1.7204   -3.6567   -1.1898 H   0  0  0  0  0  0  0  0  0  0  0  0
    6.3632   -3.3224   -1.4007 H   0  0  0  0  0  0  0  0  0  0  0  0
  1  2  1  0
  2  3  1  0
  2 19  1  0
  3  4  1  0
  3  5  2  0
  5  6  1  0
  6  7  1  1
  6 19  1  0
  7  8  2  0
  7 18  1  0
  8  9  1  0
  9 10  2  0
 10 11  1  0
 11 12  1  0
 11 18  2  0
 12 13  2  0
 12 17  1  0
 13 14  1  0
 14 15  2  0
 15 16  1  0
 16 17  2  0
 19 20  2  0
  1 21  1  0
  1 22  1  0
  1 23  1  0
  4 24  1  0
  4 25  1  0
  5 26  1  0
  8 27  1  0
  9 28  1  0
 10 29  1  0
 13 30  1  0
 14 31  1  0
 15 32  1  0
 17 33  1  0
 18 34  1  0
 35 36  2  0
 36 37  1  0
 37 38  2  0
 38 39  1  0
 39 40  1  0
 40 41  1  0
 40 42  2  0
 39 43  2  0
 43 35  1  0
 36 44  1  0
 37 45  1  0
 38 46  1  0
 41 47  1  0
 41 48  1  0
 43 49  1  0
  6 35  1  0
M  CHG  1   5   1
M  END
>  <attachment_point>  (341) 
26

>  <score>  (341) 
<NA>

$$$$
CAT-4j
     RDKit          3D

 50 52  0  0  1  0  0  0  0  0999 V2000
   11.7106   -2.3098    1.2658 C   0  0  0  0  0  0  0  0  0  0  0  0
   13.0313   -2.6523    0.7225 N   0  0  0  0  0  0  0  0  0  0  0  0
   14.2010   -2.6281    1.3773 C   0  0  0  0  0  0  0  0  0  0  0  0
   14.3777   -2.3568    2.6732 N   0  0  0  0  0  0  0  0  0  0  0  0
   15.2217   -2.9197    0.5738 N   0  0  0  0  0  0  0  0  0  0  0  0
   14.7965   -3.2519   -0.7875 C   0  0  1  0  0  0  0  0  0  0  0  0
   15.3794   -2.2443   -1.7949 C   0  0  0  0  0  0  0  0  0  0  0  0
   15.9522   -2.6550   -3.0208 C   0  0  0  0  0  0  0  0  0  0  0  0
   16.4340   -1.6937   -3.9273 C   0  0  0  0  0  0  0  0  0  0  0  0
   16.3364   -0.3224   -3.6308 C   0  0  0  0  0  0  0  0  0  0  0  0
   15.7943    0.1250   -2.4073 C   0  0  0  0  0  0  0  0  0  0  0  0
   15.6711    1.5693   -2.0915 C   0  0  0  0  0  0  0  0  0  0  0  0
   15.3832    2.0354   -0.7903 C   0  0  0  0  0  0  0  0  0  0  0  0
   15.3534    3.4188   -0.5357 C   0  0  0  0  0  0  0  0  0  0  0  0
   15.5968    4.3049   -1.5946 C   0  0  0  0  0  0  0  0  0  0  0  0
   15.8275    3.8920   -2.8511 N   0  0  0  0  0  0  0  0  0  0  0  0
   15.8598    2.5642   -3.0762 C   0  0  0  0  0  0  0  0  0  0  0  0
   15.3327   -0.8573   -1.5012 C   0  0  0  0  0  0  0  0  0  0  0  0
   13.2767   -3.0094   -0.6368 C   0  0  0  0  0  0  0  0  0  0  0  0
   12.3981   -3.0674   -1.5055 O   0  0  0  0  0  0  0  0  0  0  0  0
    0.0000    0.0000    0.0000 H   0  0  0  0  0  0  0  0  0  0  0  0
    0.0000    0.0000    0.0000 H   0  0  0  0  0  0  0  0  0  0  0  0
    0.0000    0.0000    0.0000 H   0  0  0  0  0  0  0  0  0  0  0  0
    0.0000    0.0000    0.0000 H   0  0  0  0  0  0  0  0  0  0  0  0
    0.0000    0.0000    0.0000 H   0  0  0  0  0  0  0  0  0  0  0  0
    0.0000    0.0000    0.0000 H   0  0  0  0  0  0  0  0  0  0  0  0
    0.0000    0.0000    0.0000 H   0  0  0  0  0  0  0  0  0  0  0  0
    0.0000    0.0000    0.0000 H   0  0  0  0  0  0  0  0  0  0  0  0
    0.0000    0.0000    0.0000 H   0  0  0  0  0  0  0  0  0  0  0  0
    0.0000    0.0000    0.0000 H   0  0  0  0  0  0  0  0  0  0  0  0
    0.0000    0.0000    0.0000 H   0  0  0  0  0  0  0  0  0  0  0  0
    0.0000    0.0000    0.0000 H   0  0  0  0  0  0  0  0  0  0  0  0
    0.0000    0.0000    0.0000 H   0  0  0  0  0  0  0  0  0  0  0  0
    0.0000    0.0000    0.0000 H   0  0  0  0  0  0  0  0  0  0  0  0
    6.9979   -1.5380   -0.3724 N   0  0  0  0  0  0  0  0  0  0  0  0
    6.6630   -1.5171    1.0578 C   0  0  0  0  0  0  0  0  0  0  0  0
    4.9211   -1.1359    1.1981 P   0  0  0  0  0  5  0  0  0  0  0  0
    4.5625   -0.0276    0.2324 O   0  0  0  0  0  0  0  0  0  0  0  0
    4.0689   -2.5414    0.7157 O   0  0  0  0  0  0  0  0  0  0  0  0
    4.4112   -0.7237    2.7154 O   0  0  0  0  0  0  0  0  0  0  0  0
    7.7468   -0.3481    1.8557 P   0  0  0  0  0  5  0  0  0  0  0  0
    8.4786    0.5182    0.8248 O   0  0  0  0  0  0  0  0  0  0  0  0
    8.9758   -1.1815    2.7016 O   0  0  0  0  0  0  0  0  0  0  0  0
    6.9782    0.6923    2.9131 O   0  0  0  0  0  0  0  0  0  0  0  0
    6.9543   -0.5387   -0.7366 H   0  0  0  0  0  0  0  0  0  0  0  0
    6.8310   -2.5387    1.4310 H   0  0  0  0  0  0  0  0  0  0  0  0
    4.5860   -3.0236   -0.0045 H   0  0  0  0  0  0  0  0  0  0  0  0
    5.0866   -0.5999    3.3941 H   0  0  0  0  0  0  0  0  0  0  0  0
    8.9677   -2.1380    2.5206 H   0  0  0  0  0  0  0  0  0  0  0  0
    7.3078    1.6128    2.8542 H   0  0  0  0  0  0  0  0  0  0  0  0
  1  2  1  0
  2  3  1  0
  2 19  1  0
  3  4  1  0
  3  5  2  0
  5  6  1  0
  6  7  1  0
  6 19  1  0
  7  8  2  0
  7 18  1  0
  8  9  1  0
  9 10  2  0
 10 11  1  0
 11 12  1  0
 11 18  2  0
 12 13  2  0
 12 17  1  0
 13 14  1  0
 14 15  2  0
 15 16  1  0
 16 17  2  0
 19 20  2  0
  1 21  1  0
  1 22  1  0
  1 23  1  0
  4 24  1  0
  4 25  1  0
  5 26  1  0
  8 27  1  0
  9 28  1  0
 10 29  1  0
 13 30  1  0
 14 31  1  0
 15 32  1  0
 17 33  1  0
 18 34  1  0
 35 36  1  0
 36 37  1  0
 37 38  2  0
 37 39  1  0
 37 40  1  0
 36 41  1  0
 41 42  2  0
 41 43  1  0
 41 44  1  0
 35 45  1  0
 36 46  1  0
 39 47  1  0
 40 48  1  0
 43 49  1  0
 44 50  1  0
  6 35  1  6
M  CHG  1   5   1
M  END
>  <attachment_point>  (342) 
26

>  <score>  (342) 
<NA>

$$$$
CAT-4j
     RDKit          3D

 46 49  0  0  1  0  0  0  0  0999 V2000
   11.7106   -2.3098    1.2658 C   0  0  0  0  0  0  0  0  0  0  0  0
   13.0313   -2.6523    0.7225 N   0  0  0  0  0  0  0  0  0  0  0  0
   14.2010   -2.6281    1.3773 C   0  0  0  0  0  0  0  0  0  0  0  0
   14.3777   -2.3568    2.6732 N   0  0  0  0  0  0  0  0  0  0  0  0
   15.2217   -2.9197    0.5738 N   0  0  0  0  0  0  0  0  0  0  0  0
   14.7965   -3.2519   -0.7875 C   0  0  1  0  0  0  0  0  0  0  0  0
   15.3794   -2.2443   -1.7949 C   0  0  0  0  0  0  0  0  0  0  0  0
   15.9522   -2.6550   -3.0208 C   0  0  0  0  0  0  0  0  0  0  0  0
   16.4340   -1.6937   -3.9273 C   0  0  0  0  0  0  0  0  0  0  0  0
   16.3364   -0.3224   -3.6308 C   0  0  0  0  0  0  0  0  0  0  0  0
   15.7943    0.1250   -2.4073 C   0  0  0  0  0  0  0  0  0  0  0  0
   15.6711    1.5693   -2.0915 C   0  0  0  0  0  0  0  0  0  0  0  0
   15.3832    2.0354   -0.7903 C   0  0  0  0  0  0  0  0  0  0  0  0
   15.3534    3.4188   -0.5357 C   0  0  0  0  0  0  0  0  0  0  0  0
   15.5968    4.3049   -1.5946 C   0  0  0  0  0  0  0  0  0  0  0  0
   15.8275    3.8920   -2.8511 N   0  0  0  0  0  0  0  0  0  0  0  0
   15.8598    2.5642   -3.0762 C   0  0  0  0  0  0  0  0  0  0  0  0
   15.3327   -0.8573   -1.5012 C   0  0  0  0  0  0  0  0  0  0  0  0
   13.2767   -3.0094   -0.6368 C   0  0  0  0  0  0  0  0  0  0  0  0
   12.3981   -3.0674   -1.5055 O   0  0  0  0  0  0  0  0  0  0  0  0
    0.0000    0.0000    0.0000 H   0  0  0  0  0  0  0  0  0  0  0  0
    0.0000    0.0000    0.0000 H   0  0  0  0  0  0  0  0  0  0  0  0
    0.0000    0.0000    0.0000 H   0  0  0  0  0  0  0  0  0  0  0  0
    0.0000    0.0000    0.0000 H   0  0  0  0  0  0  0  0  0  0  0  0
    0.0000    0.0000    0.0000 H   0  0  0  0  0  0  0  0  0  0  0  0
    0.0000    0.0000    0.0000 H   0  0  0  0  0  0  0  0  0  0  0  0
    0.0000    0.0000    0.0000 H   0  0  0  0  0  0  0  0  0  0  0  0
    0.0000    0.0000    0.0000 H   0  0  0  0  0  0  0  0  0  0  0  0
    0.0000    0.0000    0.0000 H   0  0  0  0  0  0  0  0  0  0  0  0
    0.0000    0.0000    0.0000 H   0  0  0  0  0  0  0  0  0  0  0  0
    0.0000    0.0000    0.0000 H   0  0  0  0  0  0  0  0  0  0  0  0
    0.0000    0.0000    0.0000 H   0  0  0  0  0  0  0  0  0  0  0  0
    0.0000    0.0000    0.0000 H   0  0  0  0  0  0  0  0  0  0  0  0
    0.0000    0.0000    0.0000 H   0  0  0  0  0  0  0  0  0  0  0  0
    6.9923   -1.5367   -0.3721 N   0  0  0  0  0  0  0  0  0  0  0  0
    6.5254   -0.3075    0.1685 C   0  0  0  0  0  0  0  0  0  0  0  0
    6.3263    0.8258   -0.5888 C   0  0  0  0  0  0  0  0  0  0  0  0
    5.8671    2.0165   -0.0276 C   0  0  0  0  0  0  0  0  0  0  0  0
    5.6146    2.0532    1.2835 N   0  0  0  0  0  0  0  0  0  0  0  0
    5.7977    0.9599    2.0633 C   0  0  0  0  0  0  0  0  0  0  0  0
    6.2502   -0.2169    1.5155 C   0  0  0  0  0  0  0  0  0  0  0  0
    6.3406   -2.2548   -0.7318 H   0  0  0  0  0  0  0  0  0  0  0  0
    6.5343    0.7920   -1.6635 H   0  0  0  0  0  0  0  0  0  0  0  0
    5.7364    2.8672   -0.6977 H   0  0  0  0  0  0  0  0  0  0  0  0
    5.5968    0.9760    3.1275 H   0  0  0  0  0  0  0  0  0  0  0  0
    6.4088   -1.1160    2.1134 H   0  0  0  0  0  0  0  0  0  0  0  0
  1  2  1  0
  2  3  1  0
  2 19  1  0
  3  4  1  0
  3  5  2  0
  5  6  1  0
  6  7  1  0
  6 19  1  0
  7  8  2  0
  7 18  1  0
  8  9  1  0
  9 10  2  0
 10 11  1  0
 11 12  1  0
 11 18  2  0
 12 13  2  0
 12 17  1  0
 13 14  1  0
 14 15  2  0
 15 16  1  0
 16 17  2  0
 19 20  2  0
  1 21  1  0
  1 22  1  0
  1 23  1  0
  4 24  1  0
  4 25  1  0
  5 26  1  0
  8 27  1  0
  9 28  1  0
 10 29  1  0
 13 30  1  0
 14 31  1  0
 15 32  1  0
 17 33  1  0
 18 34  1  0
 35 36  1  0
 36 37  2  0
 37 38  1  0
 38 39  2  0
 39 40  1  0
 40 41  2  0
 41 36  1  0
 35 42  1  0
 37 43  1  0
 38 44  1  0
 40 45  1  0
 41 46  1  0
  6 35  1  6
M  CHG  1   5   1
M  END
>  <attachment_point>  (343) 
26

>  <score>  (343) 
<NA>

$$$$
CAT-4j
     RDKit          3D

 43 46  0  0  1  0  0  0  0  0999 V2000
   11.7106   -2.3098    1.2658 C   0  0  0  0  0  0  0  0  0  0  0  0
   13.0313   -2.6523    0.7225 N   0  0  0  0  0  0  0  0  0  0  0  0
   14.2010   -2.6281    1.3773 C   0  0  0  0  0  0  0  0  0  0  0  0
   14.3777   -2.3568    2.6732 N   0  0  0  0  0  0  0  0  0  0  0  0
   15.2217   -2.9197    0.5738 N   0  0  0  0  0  0  0  0  0  0  0  0
   14.7965   -3.2519   -0.7875 C   0  0  1  0  0  0  0  0  0  0  0  0
   15.3794   -2.2443   -1.7949 C   0  0  0  0  0  0  0  0  0  0  0  0
   15.9522   -2.6550   -3.0208 C   0  0  0  0  0  0  0  0  0  0  0  0
   16.4340   -1.6937   -3.9273 C   0  0  0  0  0  0  0  0  0  0  0  0
   16.3364   -0.3224   -3.6308 C   0  0  0  0  0  0  0  0  0  0  0  0
   15.7943    0.1250   -2.4073 C   0  0  0  0  0  0  0  0  0  0  0  0
   15.6711    1.5693   -2.0915 C   0  0  0  0  0  0  0  0  0  0  0  0
   15.3832    2.0354   -0.7903 C   0  0  0  0  0  0  0  0  0  0  0  0
   15.3534    3.4188   -0.5357 C   0  0  0  0  0  0  0  0  0  0  0  0
   15.5968    4.3049   -1.5946 C   0  0  0  0  0  0  0  0  0  0  0  0
   15.8275    3.8920   -2.8511 N   0  0  0  0  0  0  0  0  0  0  0  0
   15.8598    2.5642   -3.0762 C   0  0  0  0  0  0  0  0  0  0  0  0
   15.3327   -0.8573   -1.5012 C   0  0  0  0  0  0  0  0  0  0  0  0
   13.2767   -3.0094   -0.6368 C   0  0  0  0  0  0  0  0  0  0  0  0
   12.3981   -3.0674   -1.5055 O   0  0  0  0  0  0  0  0  0  0  0  0
    0.0000    0.0000    0.0000 H   0  0  0  0  0  0  0  0  0  0  0  0
    0.0000    0.0000    0.0000 H   0  0  0  0  0  0  0  0  0  0  0  0
    0.0000    0.0000    0.0000 H   0  0  0  0  0  0  0  0  0  0  0  0
    0.0000    0.0000    0.0000 H   0  0  0  0  0  0  0  0  0  0  0  0
    0.0000    0.0000    0.0000 H   0  0  0  0  0  0  0  0  0  0  0  0
    0.0000    0.0000    0.0000 H   0  0  0  0  0  0  0  0  0  0  0  0
    0.0000    0.0000    0.0000 H   0  0  0  0  0  0  0  0  0  0  0  0
    0.0000    0.0000    0.0000 H   0  0  0  0  0  0  0  0  0  0  0  0
    0.0000    0.0000    0.0000 H   0  0  0  0  0  0  0  0  0  0  0  0
    0.0000    0.0000    0.0000 H   0  0  0  0  0  0  0  0  0  0  0  0
    0.0000    0.0000    0.0000 H   0  0  0  0  0  0  0  0  0  0  0  0
    0.0000    0.0000    0.0000 H   0  0  0  0  0  0  0  0  0  0  0  0
    0.0000    0.0000    0.0000 H   0  0  0  0  0  0  0  0  0  0  0  0
    0.0000    0.0000    0.0000 H   0  0  0  0  0  0  0  0  0  0  0  0
    6.9793   -1.5339   -0.3715 N   0  0  0  0  0  0  0  0  0  0  0  0
    6.1341   -2.0276    0.5448 C   0  0  0  0  0  0  0  0  0  0  0  0
    4.9014   -1.5003    0.2816 C   0  0  0  0  0  0  0  0  0  0  0  0
    5.0257   -0.6902   -0.7989 C   0  0  0  0  0  0  0  0  0  0  0  0
    6.3332   -0.7112   -1.2100 C   0  0  0  0  0  0  0  0  0  0  0  0
    6.3974   -2.7045    1.3246 H   0  0  0  0  0  0  0  0  0  0  0  0
    3.9996   -1.6945    0.8327 H   0  0  0  0  0  0  0  0  0  0  0  0
    4.2555   -0.1109   -1.2839 H   0  0  0  0  0  0  0  0  0  0  0  0
    6.7820   -0.1919   -2.0263 H   0  0  0  0  0  0  0  0  0  0  0  0
  1  2  1  0
  2  3  1  0
  2 19  1  0
  3  4  1  0
  3  5  2  0
  5  6  1  0
  6  7  1  0
  6 19  1  0
  7  8  2  0
  7 18  1  0
  8  9  1  0
  9 10  2  0
 10 11  1  0
 11 12  1  0
 11 18  2  0
 12 13  2  0
 12 17  1  0
 13 14  1  0
 14 15  2  0
 15 16  1  0
 16 17  2  0
 19 20  2  0
  1 21  1  0
  1 22  1  0
  1 23  1  0
  4 24  1  0
  4 25  1  0
  5 26  1  0
  8 27  1  0
  9 28  1  0
 10 29  1  0
 13 30  1  0
 14 31  1  0
 15 32  1  0
 17 33  1  0
 18 34  1  0
 35 36  1  0
 36 37  2  0
 37 38  1  0
 38 39  2  0
 39 35  1  0
 36 40  1  0
 37 41  1  0
 38 42  1  0
 39 43  1  0
  6 35  1  6
M  CHG  1   5   1
M  END
>  <attachment_point>  (344) 
26

>  <score>  (344) 
<NA>

$$$$
CAT-4j
     RDKit          3D

 55 58  0  0  1  0  0  0  0  0999 V2000
   11.7106   -2.3098    1.2658 C   0  0  0  0  0  0  0  0  0  0  0  0
   13.0313   -2.6523    0.7225 N   0  0  0  0  0  0  0  0  0  0  0  0
   14.2010   -2.6281    1.3773 C   0  0  0  0  0  0  0  0  0  0  0  0
   14.3777   -2.3568    2.6732 N   0  0  0  0  0  0  0  0  0  0  0  0
   15.2217   -2.9197    0.5738 N   0  0  0  0  0  0  0  0  0  0  0  0
   14.7965   -3.2519   -0.7875 C   0  0  1  0  0  0  0  0  0  0  0  0
   15.3794   -2.2443   -1.7949 C   0  0  0  0  0  0  0  0  0  0  0  0
   15.9522   -2.6550   -3.0208 C   0  0  0  0  0  0  0  0  0  0  0  0
   16.4340   -1.6937   -3.9273 C   0  0  0  0  0  0  0  0  0  0  0  0
   16.3364   -0.3224   -3.6308 C   0  0  0  0  0  0  0  0  0  0  0  0
   15.7943    0.1250   -2.4073 C   0  0  0  0  0  0  0  0  0  0  0  0
   15.6711    1.5693   -2.0915 C   0  0  0  0  0  0  0  0  0  0  0  0
   15.3832    2.0354   -0.7903 C   0  0  0  0  0  0  0  0  0  0  0  0
   15.3534    3.4188   -0.5357 C   0  0  0  0  0  0  0  0  0  0  0  0
   15.5968    4.3049   -1.5946 C   0  0  0  0  0  0  0  0  0  0  0  0
   15.8275    3.8920   -2.8511 N   0  0  0  0  0  0  0  0  0  0  0  0
   15.8598    2.5642   -3.0762 C   0  0  0  0  0  0  0  0  0  0  0  0
   15.3327   -0.8573   -1.5012 C   0  0  0  0  0  0  0  0  0  0  0  0
   13.2767   -3.0094   -0.6368 C   0  0  0  0  0  0  0  0  0  0  0  0
   12.3981   -3.0674   -1.5055 O   0  0  0  0  0  0  0  0  0  0  0  0
    0.0000    0.0000    0.0000 H   0  0  0  0  0  0  0  0  0  0  0  0
    0.0000    0.0000    0.0000 H   0  0  0  0  0  0  0  0  0  0  0  0
    0.0000    0.0000    0.0000 H   0  0  0  0  0  0  0  0  0  0  0  0
    0.0000    0.0000    0.0000 H   0  0  0  0  0  0  0  0  0  0  0  0
    0.0000    0.0000    0.0000 H   0  0  0  0  0  0  0  0  0  0  0  0
    0.0000    0.0000    0.0000 H   0  0  0  0  0  0  0  0  0  0  0  0
    0.0000    0.0000    0.0000 H   0  0  0  0  0  0  0  0  0  0  0  0
    0.0000    0.0000    0.0000 H   0  0  0  0  0  0  0  0  0  0  0  0
    0.0000    0.0000    0.0000 H   0  0  0  0  0  0  0  0  0  0  0  0
    0.0000    0.0000    0.0000 H   0  0  0  0  0  0  0  0  0  0  0  0
    0.0000    0.0000    0.0000 H   0  0  0  0  0  0  0  0  0  0  0  0
    0.0000    0.0000    0.0000 H   0  0  0  0  0  0  0  0  0  0  0  0
    0.0000    0.0000    0.0000 H   0  0  0  0  0  0  0  0  0  0  0  0
    0.0000    0.0000    0.0000 H   0  0  0  0  0  0  0  0  0  0  0  0
    6.9260   -1.5222   -0.3686 C   0  0  0  0  0  0  0  0  0  0  0  0
    6.8690   -0.0850   -0.6737 C   0  0  0  0  0  0  0  0  0  0  0  0
    6.3822    0.2431   -2.0717 C   0  0  0  0  0  0  0  0  0  0  0  0
    5.1553   -0.4918   -2.2733 N   0  0  0  0  0  0  0  0  0  0  0  0
    3.9847    0.2420   -2.5889 C   0  0  0  0  0  0  0  0  0  0  0  0
    2.7287   -0.5418   -2.7925 C   0  0  0  0  0  0  0  0  0  0  0  0
    3.9967    1.5004   -2.6944 O   0  0  0  0  0  0  0  0  0  0  0  0
    5.1761   -1.9117   -2.1468 C   0  0  0  0  0  0  0  0  0  0  0  0
    6.1669   -2.4556   -1.1866 C   0  0  0  0  0  0  0  0  0  0  0  0
    6.8045   -1.6867    0.7288 H   0  0  0  0  0  0  0  0  0  0  0  0
    6.1935    0.4089    0.0856 H   0  0  0  0  0  0  0  0  0  0  0  0
    7.8430    0.4471   -0.5563 H   0  0  0  0  0  0  0  0  0  0  0  0
    6.2340    1.3358   -2.1125 H   0  0  0  0  0  0  0  0  0  0  0  0
    7.1176   -0.1287   -2.7879 H   0  0  0  0  0  0  0  0  0  0  0  0
    1.9899    0.1416   -3.2541 H   0  0  0  0  0  0  0  0  0  0  0  0
    2.9608   -1.3942   -3.4532 H   0  0  0  0  0  0  0  0  0  0  0  0
    2.3799   -0.9404   -1.8101 H   0  0  0  0  0  0  0  0  0  0  0  0
    4.1189   -2.2300   -1.8997 H   0  0  0  0  0  0  0  0  0  0  0  0
    5.3306   -2.3274   -3.1872 H   0  0  0  0  0  0  0  0  0  0  0  0
    6.8716   -3.1343   -1.7547 H   0  0  0  0  0  0  0  0  0  0  0  0
    5.6183   -3.1745   -0.5073 H   0  0  0  0  0  0  0  0  0  0  0  0
  1  2  1  0
  2  3  1  0
  2 19  1  0
  3  4  1  0
  3  5  2  0
  5  6  1  0
  6  7  1  0
  6 19  1  0
  7  8  2  0
  7 18  1  0
  8  9  1  0
  9 10  2  0
 10 11  1  0
 11 12  1  0
 11 18  2  0
 12 13  2  0
 12 17  1  0
 13 14  1  0
 14 15  2  0
 15 16  1  0
 16 17  2  0
 19 20  2  0
  1 21  1  0
  1 22  1  0
  1 23  1  0
  4 24  1  0
  4 25  1  0
  5 26  1  0
  8 27  1  0
  9 28  1  0
 10 29  1  0
 13 30  1  0
 14 31  1  0
 15 32  1  0
 17 33  1  0
 18 34  1  0
 35 36  1  0
 36 37  1  0
 37 38  1  0
 38 39  1  0
 39 40  1  0
 39 41  2  0
 38 42  1  0
 42 43  1  0
 43 35  1  0
 35 44  1  0
 36 45  1  0
 36 46  1  0
 37 47  1  0
 37 48  1  0
 40 49  1  0
 40 50  1  0
 40 51  1  0
 42 52  1  0
 42 53  1  0
 43 54  1  0
 43 55  1  0
  6 35  1  6
M  CHG  1   5   1
M  END
>  <attachment_point>  (345) 
26

>  <score>  (345) 
<NA>

$$$$
CAT-4j
     RDKit          3D

 48 51  0  0  1  0  0  0  0  0999 V2000
   11.7106   -2.3098    1.2658 C   0  0  0  0  0  0  0  0  0  0  0  0
   13.0313   -2.6523    0.7225 N   0  0  0  0  0  0  0  0  0  0  0  0
   14.2010   -2.6281    1.3773 C   0  0  0  0  0  0  0  0  0  0  0  0
   14.3777   -2.3568    2.6732 N   0  0  0  0  0  0  0  0  0  0  0  0
   15.2217   -2.9197    0.5738 N   0  0  0  0  0  0  0  0  0  0  0  0
   14.7965   -3.2519   -0.7875 C   0  0  1  0  0  0  0  0  0  0  0  0
   15.3794   -2.2443   -1.7949 C   0  0  0  0  0  0  0  0  0  0  0  0
   15.9522   -2.6550   -3.0208 C   0  0  0  0  0  0  0  0  0  0  0  0
   16.4340   -1.6937   -3.9273 C   0  0  0  0  0  0  0  0  0  0  0  0
   16.3364   -0.3224   -3.6308 C   0  0  0  0  0  0  0  0  0  0  0  0
   15.7943    0.1250   -2.4073 C   0  0  0  0  0  0  0  0  0  0  0  0
   15.6711    1.5693   -2.0915 C   0  0  0  0  0  0  0  0  0  0  0  0
   15.3832    2.0354   -0.7903 C   0  0  0  0  0  0  0  0  0  0  0  0
   15.3534    3.4188   -0.5357 C   0  0  0  0  0  0  0  0  0  0  0  0
   15.5968    4.3049   -1.5946 C   0  0  0  0  0  0  0  0  0  0  0  0
   15.8275    3.8920   -2.8511 N   0  0  0  0  0  0  0  0  0  0  0  0
   15.8598    2.5642   -3.0762 C   0  0  0  0  0  0  0  0  0  0  0  0
   15.3327   -0.8573   -1.5012 C   0  0  0  0  0  0  0  0  0  0  0  0
   13.2767   -3.0094   -0.6368 C   0  0  0  0  0  0  0  0  0  0  0  0
   12.3981   -3.0674   -1.5055 O   0  0  0  0  0  0  0  0  0  0  0  0
    0.0000    0.0000    0.0000 H   0  0  0  0  0  0  0  0  0  0  0  0
    0.0000    0.0000    0.0000 H   0  0  0  0  0  0  0  0  0  0  0  0
    0.0000    0.0000    0.0000 H   0  0  0  0  0  0  0  0  0  0  0  0
    0.0000    0.0000    0.0000 H   0  0  0  0  0  0  0  0  0  0  0  0
    0.0000    0.0000    0.0000 H   0  0  0  0  0  0  0  0  0  0  0  0
    0.0000    0.0000    0.0000 H   0  0  0  0  0  0  0  0  0  0  0  0
    0.0000    0.0000    0.0000 H   0  0  0  0  0  0  0  0  0  0  0  0
    0.0000    0.0000    0.0000 H   0  0  0  0  0  0  0  0  0  0  0  0
    0.0000    0.0000    0.0000 H   0  0  0  0  0  0  0  0  0  0  0  0
    0.0000    0.0000    0.0000 H   0  0  0  0  0  0  0  0  0  0  0  0
    0.0000    0.0000    0.0000 H   0  0  0  0  0  0  0  0  0  0  0  0
    0.0000    0.0000    0.0000 H   0  0  0  0  0  0  0  0  0  0  0  0
    0.0000    0.0000    0.0000 H   0  0  0  0  0  0  0  0  0  0  0  0
    0.0000    0.0000    0.0000 H   0  0  0  0  0  0  0  0  0  0  0  0
    6.7970   -1.4938   -0.3618 C   0  0  0  0  0  0  0  0  0  0  0  0
    6.7979   -1.2944    1.0301 N   0  0  0  0  0  0  0  0  0  0  0  0
    6.5961   -2.1260    2.0395 N   0  0  0  0  0  0  0  0  0  0  0  0
    6.6917   -1.5030    3.2033 C   0  0  0  0  0  0  0  0  0  0  0  0
    6.5334   -2.0928    4.4451 O   0  0  0  0  0  0  0  0  0  0  0  0
    6.2433   -3.4680    4.6086 C   0  0  0  0  0  0  0  0  0  0  0  0
    6.9575   -0.2604    2.9312 O   0  0  0  0  0  0  0  0  0  0  0  0
    7.0284   -0.1007    1.6279 C   0  0  0  0  0  0  0  0  0  0  0  0
    7.2752    1.0136    1.0903 O   0  0  0  0  0  0  0  0  0  0  0  0
    6.5841   -2.4582   -0.7574 H   0  0  0  0  0  0  0  0  0  0  0  0
    7.0264   -0.6754   -1.0033 H   0  0  0  0  0  0  0  0  0  0  0  0
    6.6724   -4.0038    3.7398 H   0  0  0  0  0  0  0  0  0  0  0  0
    5.1364   -3.6304    4.5892 H   0  0  0  0  0  0  0  0  0  0  0  0
    6.7041   -3.8826    5.5278 H   0  0  0  0  0  0  0  0  0  0  0  0
  1  2  1  0
  2  3  1  0
  2 19  1  0
  3  4  1  0
  3  5  2  0
  5  6  1  0
  6  7  1  0
  6 19  1  0
  7  8  2  0
  7 18  1  0
  8  9  1  0
  9 10  2  0
 10 11  1  0
 11 12  1  0
 11 18  2  0
 12 13  2  0
 12 17  1  0
 13 14  1  0
 14 15  2  0
 15 16  1  0
 16 17  2  0
 19 20  2  0
  1 21  1  0
  1 22  1  0
  1 23  1  0
  4 24  1  0
  4 25  1  0
  5 26  1  0
  8 27  1  0
  9 28  1  0
 10 29  1  0
 13 30  1  0
 14 31  1  0
 15 32  1  0
 17 33  1  0
 18 34  1  0
 35 36  1  0
 36 37  1  0
 37 38  2  0
 38 39  1  0
 39 40  1  0
 38 41  1  0
 41 42  1  0
 42 43  2  0
 42 36  1  0
 35 44  1  0
 35 45  1  0
 40 46  1  0
 40 47  1  0
 40 48  1  0
  6 35  1  6
M  CHG  1   5   1
M  END
>  <attachment_point>  (346) 
26

>  <score>  (346) 
<NA>

$$$$
CAT-4j
     RDKit          3D

 44 46  0  0  1  0  0  0  0  0999 V2000
   11.7106   -2.3098    1.2658 C   0  0  0  0  0  0  0  0  0  0  0  0
   13.0313   -2.6523    0.7225 N   0  0  0  0  0  0  0  0  0  0  0  0
   14.2010   -2.6281    1.3773 C   0  0  0  0  0  0  0  0  0  0  0  0
   14.3777   -2.3568    2.6732 N   0  0  0  0  0  0  0  0  0  0  0  0
   15.2217   -2.9197    0.5738 N   0  0  0  0  0  0  0  0  0  0  0  0
   14.7965   -3.2519   -0.7875 C   0  0  1  0  0  0  0  0  0  0  0  0
   15.3794   -2.2443   -1.7949 C   0  0  0  0  0  0  0  0  0  0  0  0
   15.9522   -2.6550   -3.0208 C   0  0  0  0  0  0  0  0  0  0  0  0
   16.4340   -1.6937   -3.9273 C   0  0  0  0  0  0  0  0  0  0  0  0
   16.3364   -0.3224   -3.6308 C   0  0  0  0  0  0  0  0  0  0  0  0
   15.7943    0.1250   -2.4073 C   0  0  0  0  0  0  0  0  0  0  0  0
   15.6711    1.5693   -2.0915 C   0  0  0  0  0  0  0  0  0  0  0  0
   15.3832    2.0354   -0.7903 C   0  0  0  0  0  0  0  0  0  0  0  0
   15.3534    3.4188   -0.5357 C   0  0  0  0  0  0  0  0  0  0  0  0
   15.5968    4.3049   -1.5946 C   0  0  0  0  0  0  0  0  0  0  0  0
   15.8275    3.8920   -2.8511 N   0  0  0  0  0  0  0  0  0  0  0  0
   15.8598    2.5642   -3.0762 C   0  0  0  0  0  0  0  0  0  0  0  0
   15.3327   -0.8573   -1.5012 C   0  0  0  0  0  0  0  0  0  0  0  0
   13.2767   -3.0094   -0.6368 C   0  0  0  0  0  0  0  0  0  0  0  0
   12.3981   -3.0674   -1.5055 O   0  0  0  0  0  0  0  0  0  0  0  0
    0.0000    0.0000    0.0000 H   0  0  0  0  0  0  0  0  0  0  0  0
    0.0000    0.0000    0.0000 H   0  0  0  0  0  0  0  0  0  0  0  0
    0.0000    0.0000    0.0000 H   0  0  0  0  0  0  0  0  0  0  0  0
    0.0000    0.0000    0.0000 H   0  0  0  0  0  0  0  0  0  0  0  0
    0.0000    0.0000    0.0000 H   0  0  0  0  0  0  0  0  0  0  0  0
    0.0000    0.0000    0.0000 H   0  0  0  0  0  0  0  0  0  0  0  0
    0.0000    0.0000    0.0000 H   0  0  0  0  0  0  0  0  0  0  0  0
    0.0000    0.0000    0.0000 H   0  0  0  0  0  0  0  0  0  0  0  0
    0.0000    0.0000    0.0000 H   0  0  0  0  0  0  0  0  0  0  0  0
    0.0000    0.0000    0.0000 H   0  0  0  0  0  0  0  0  0  0  0  0
    0.0000    0.0000    0.0000 H   0  0  0  0  0  0  0  0  0  0  0  0
    0.0000    0.0000    0.0000 H   0  0  0  0  0  0  0  0  0  0  0  0
    0.0000    0.0000    0.0000 H   0  0  0  0  0  0  0  0  0  0  0  0
    0.0000    0.0000    0.0000 H   0  0  0  0  0  0  0  0  0  0  0  0
    6.9944   -1.5372   -0.3723 C   0  0  0  0  0  0  0  0  0  0  0  0
    6.3572   -1.4848    1.2952 S   0  0  0  0  0  6  0  0  0  0  0  0
    6.5989   -3.0589    2.0439 C   0  0  0  0  0  0  0  0  0  0  0  0
    4.9154   -1.1673    1.2209 O   0  0  0  0  0  0  0  0  0  0  0  0
    7.0951   -0.4644    2.1166 O   0  0  0  0  0  0  0  0  0  0  0  0
    6.7083   -0.6290   -0.9326 H   0  0  0  0  0  0  0  0  0  0  0  0
    6.4378   -2.3820   -0.8726 H   0  0  0  0  0  0  0  0  0  0  0  0
    7.6262   -3.1470    2.4388 H   0  0  0  0  0  0  0  0  0  0  0  0
    5.8295   -3.1943    2.8582 H   0  0  0  0  0  0  0  0  0  0  0  0
    6.3462   -3.8343    1.2911 H   0  0  0  0  0  0  0  0  0  0  0  0
  1  2  1  0
  2  3  1  0
  2 19  1  0
  3  4  1  0
  3  5  2  0
  5  6  1  0
  6  7  1  0
  6 19  1  0
  7  8  2  0
  7 18  1  0
  8  9  1  0
  9 10  2  0
 10 11  1  0
 11 12  1  0
 11 18  2  0
 12 13  2  0
 12 17  1  0
 13 14  1  0
 14 15  2  0
 15 16  1  0
 16 17  2  0
 19 20  2  0
  1 21  1  0
  1 22  1  0
  1 23  1  0
  4 24  1  0
  4 25  1  0
  5 26  1  0
  8 27  1  0
  9 28  1  0
 10 29  1  0
 13 30  1  0
 14 31  1  0
 15 32  1  0
 17 33  1  0
 18 34  1  0
 35 36  1  0
 36 37  1  0
 36 38  2  0
 36 39  2  0
 35 40  1  0
 35 41  1  0
 37 42  1  0
 37 43  1  0
 37 44  1  0
  6 35  1  6
M  CHG  1   5   1
M  END
>  <attachment_point>  (347) 
26

>  <score>  (347) 
<NA>

$$$$
CAT-4j
     RDKit          3D

 57 61  0  0  1  0  0  0  0  0999 V2000
   11.7106   -2.3098    1.2658 C   0  0  0  0  0  0  0  0  0  0  0  0
   13.0313   -2.6523    0.7225 N   0  0  0  0  0  0  0  0  0  0  0  0
   14.2010   -2.6281    1.3773 C   0  0  0  0  0  0  0  0  0  0  0  0
   14.3777   -2.3568    2.6732 N   0  0  0  0  0  0  0  0  0  0  0  0
   15.2217   -2.9197    0.5738 N   0  0  0  0  0  0  0  0  0  0  0  0
   14.7965   -3.2519   -0.7875 C   0  0  1  0  0  0  0  0  0  0  0  0
   15.3794   -2.2443   -1.7949 C   0  0  0  0  0  0  0  0  0  0  0  0
   15.9522   -2.6550   -3.0208 C   0  0  0  0  0  0  0  0  0  0  0  0
   16.4340   -1.6937   -3.9273 C   0  0  0  0  0  0  0  0  0  0  0  0
   16.3364   -0.3224   -3.6308 C   0  0  0  0  0  0  0  0  0  0  0  0
   15.7943    0.1250   -2.4073 C   0  0  0  0  0  0  0  0  0  0  0  0
   15.6711    1.5693   -2.0915 C   0  0  0  0  0  0  0  0  0  0  0  0
   15.3832    2.0354   -0.7903 C   0  0  0  0  0  0  0  0  0  0  0  0
   15.3534    3.4188   -0.5357 C   0  0  0  0  0  0  0  0  0  0  0  0
   15.5968    4.3049   -1.5946 C   0  0  0  0  0  0  0  0  0  0  0  0
   15.8275    3.8920   -2.8511 N   0  0  0  0  0  0  0  0  0  0  0  0
   15.8598    2.5642   -3.0762 C   0  0  0  0  0  0  0  0  0  0  0  0
   15.3327   -0.8573   -1.5012 C   0  0  0  0  0  0  0  0  0  0  0  0
   13.2767   -3.0094   -0.6368 C   0  0  0  0  0  0  0  0  0  0  0  0
   12.3981   -3.0674   -1.5055 O   0  0  0  0  0  0  0  0  0  0  0  0
    0.0000    0.0000    0.0000 H   0  0  0  0  0  0  0  0  0  0  0  0
    0.0000    0.0000    0.0000 H   0  0  0  0  0  0  0  0  0  0  0  0
    0.0000    0.0000    0.0000 H   0  0  0  0  0  0  0  0  0  0  0  0
    0.0000    0.0000    0.0000 H   0  0  0  0  0  0  0  0  0  0  0  0
    0.0000    0.0000    0.0000 H   0  0  0  0  0  0  0  0  0  0  0  0
    0.0000    0.0000    0.0000 H   0  0  0  0  0  0  0  0  0  0  0  0
    0.0000    0.0000    0.0000 H   0  0  0  0  0  0  0  0  0  0  0  0
    0.0000    0.0000    0.0000 H   0  0  0  0  0  0  0  0  0  0  0  0
    0.0000    0.0000    0.0000 H   0  0  0  0  0  0  0  0  0  0  0  0
    0.0000    0.0000    0.0000 H   0  0  0  0  0  0  0  0  0  0  0  0
    0.0000    0.0000    0.0000 H   0  0  0  0  0  0  0  0  0  0  0  0
    0.0000    0.0000    0.0000 H   0  0  0  0  0  0  0  0  0  0  0  0
    0.0000    0.0000    0.0000 H   0  0  0  0  0  0  0  0  0  0  0  0
    0.0000    0.0000    0.0000 H   0  0  0  0  0  0  0  0  0  0  0  0
    7.0074   -1.5401   -0.3729 C   0  0  0  0  0  0  0  0  0  0  0  0
    6.4684   -1.5238    0.9796 N   0  0  0  0  0  0  0  0  0  0  0  0
    5.0559   -1.2063    0.9697 C   0  0  1  0  0  0  0  0  0  0  0  0
    4.2815   -1.1301    2.2305 C   0  0  0  0  0  0  0  0  0  0  0  0
    4.5462    0.1203    1.3674 C   0  0  1  0  0  0  0  0  0  0  0  0
    5.3614    1.1155    2.0630 C   0  0  0  0  0  0  0  0  0  0  0  0
    6.4422    0.7962    2.8693 C   0  0  0  0  0  0  0  0  0  0  0  0
    7.1532    1.7951    3.4835 C   0  0  0  0  0  0  0  0  0  0  0  0
    6.8607    3.1259    3.3516 C   0  0  0  0  0  0  0  0  0  0  0  0
    5.7795    3.4566    2.5458 C   0  0  0  0  0  0  0  0  0  0  0  0
    5.0636    2.4544    1.9278 C   0  0  0  0  0  0  0  0  0  0  0  0
    6.4542   -2.3753   -0.8958 H   0  0  0  0  0  0  0  0  0  0  0  0
    6.7317   -0.6263   -0.9356 H   0  0  0  0  0  0  0  0  0  0  0  0
    6.6659   -2.4462    1.4233 H   0  0  0  0  0  0  0  0  0  0  0  0
    4.5218   -1.7008    0.1298 H   0  0  0  0  0  0  0  0  0  0  0  0
    4.8440   -1.2663    3.1532 H   0  0  0  0  0  0  0  0  0  0  0  0
    3.2120   -1.4257    2.2496 H   0  0  0  0  0  0  0  0  0  0  0  0
    3.6974    0.5301    0.7890 H   0  0  0  0  0  0  0  0  0  0  0  0
    6.6711   -0.2526    2.9730 H   0  0  0  0  0  0  0  0  0  0  0  0
    7.9971    1.4809    4.1084 H   0  0  0  0  0  0  0  0  0  0  0  0
    7.4355    3.9069    3.8463 H   0  0  0  0  0  0  0  0  0  0  0  0
    5.5565    4.5093    2.4480 H   0  0  0  0  0  0  0  0  0  0  0  0
    4.2111    2.7409    1.2941 H   0  0  0  0  0  0  0  0  0  0  0  0
  1  2  1  0
  2  3  1  0
  2 19  1  0
  3  4  1  0
  3  5  2  0
  5  6  1  0
  6  7  1  0
  6 19  1  0
  7  8  2  0
  7 18  1  0
  8  9  1  0
  9 10  2  0
 10 11  1  0
 11 12  1  0
 11 18  2  0
 12 13  2  0
 12 17  1  0
 13 14  1  0
 14 15  2  0
 15 16  1  0
 16 17  2  0
 19 20  2  0
  1 21  1  0
  1 22  1  0
  1 23  1  0
  4 24  1  0
  4 25  1  0
  5 26  1  0
  8 27  1  0
  9 28  1  0
 10 29  1  0
 13 30  1  0
 14 31  1  0
 15 32  1  0
 17 33  1  0
 18 34  1  0
 35 36  1  0
 36 37  1  0
 37 38  1  0
 38 39  1  0
 39 40  1  0
 40 41  2  0
 41 42  1  0
 42 43  2  0
 43 44  1  0
 44 45  2  0
 39 37  1  0
 45 40  1  0
 35 46  1  0
 35 47  1  0
 36 48  1  0
 37 49  1  6
 38 50  1  0
 38 51  1  0
 39 52  1  6
 41 53  1  0
 42 54  1  0
 43 55  1  0
 44 56  1  0
 45 57  1  0
  6 35  1  6
M  CHG  1   5   1
M  END
>  <attachment_point>  (348) 
26

>  <score>  (348) 
<NA>

$$$$
CAT-4j
     RDKit          3D

 55 59  0  0  1  0  0  0  0  0999 V2000
   11.7106   -2.3098    1.2658 C   0  0  0  0  0  0  0  0  0  0  0  0
   13.0313   -2.6523    0.7225 N   0  0  0  0  0  0  0  0  0  0  0  0
   14.2010   -2.6281    1.3773 C   0  0  0  0  0  0  0  0  0  0  0  0
   14.3777   -2.3568    2.6732 N   0  0  0  0  0  0  0  0  0  0  0  0
   15.2217   -2.9197    0.5738 N   0  0  0  0  0  0  0  0  0  0  0  0
   14.7965   -3.2519   -0.7875 C   0  0  1  0  0  0  0  0  0  0  0  0
   15.3794   -2.2443   -1.7949 C   0  0  0  0  0  0  0  0  0  0  0  0
   15.9522   -2.6550   -3.0208 C   0  0  0  0  0  0  0  0  0  0  0  0
   16.4340   -1.6937   -3.9273 C   0  0  0  0  0  0  0  0  0  0  0  0
   16.3364   -0.3224   -3.6308 C   0  0  0  0  0  0  0  0  0  0  0  0
   15.7943    0.1250   -2.4073 C   0  0  0  0  0  0  0  0  0  0  0  0
   15.6711    1.5693   -2.0915 C   0  0  0  0  0  0  0  0  0  0  0  0
   15.3832    2.0354   -0.7903 C   0  0  0  0  0  0  0  0  0  0  0  0
   15.3534    3.4188   -0.5357 C   0  0  0  0  0  0  0  0  0  0  0  0
   15.5968    4.3049   -1.5946 C   0  0  0  0  0  0  0  0  0  0  0  0
   15.8275    3.8920   -2.8511 N   0  0  0  0  0  0  0  0  0  0  0  0
   15.8598    2.5642   -3.0762 C   0  0  0  0  0  0  0  0  0  0  0  0
   15.3327   -0.8573   -1.5012 C   0  0  0  0  0  0  0  0  0  0  0  0
   13.2767   -3.0094   -0.6368 C   0  0  0  0  0  0  0  0  0  0  0  0
   12.3981   -3.0674   -1.5055 O   0  0  0  0  0  0  0  0  0  0  0  0
    0.0000    0.0000    0.0000 H   0  0  0  0  0  0  0  0  0  0  0  0
    0.0000    0.0000    0.0000 H   0  0  0  0  0  0  0  0  0  0  0  0
    0.0000    0.0000    0.0000 H   0  0  0  0  0  0  0  0  0  0  0  0
    0.0000    0.0000    0.0000 H   0  0  0  0  0  0  0  0  0  0  0  0
    0.0000    0.0000    0.0000 H   0  0  0  0  0  0  0  0  0  0  0  0
    0.0000    0.0000    0.0000 H   0  0  0  0  0  0  0  0  0  0  0  0
    0.0000    0.0000    0.0000 H   0  0  0  0  0  0  0  0  0  0  0  0
    0.0000    0.0000    0.0000 H   0  0  0  0  0  0  0  0  0  0  0  0
    0.0000    0.0000    0.0000 H   0  0  0  0  0  0  0  0  0  0  0  0
    0.0000    0.0000    0.0000 H   0  0  0  0  0  0  0  0  0  0  0  0
    0.0000    0.0000    0.0000 H   0  0  0  0  0  0  0  0  0  0  0  0
    0.0000    0.0000    0.0000 H   0  0  0  0  0  0  0  0  0  0  0  0
    0.0000    0.0000    0.0000 H   0  0  0  0  0  0  0  0  0  0  0  0
    0.0000    0.0000    0.0000 H   0  0  0  0  0  0  0  0  0  0  0  0
    6.9425   -1.5258   -0.3695 C   0  0  0  0  0  0  0  0  0  0  0  0
    6.0773   -2.5900   -0.3555 C   0  0  0  0  0  0  0  0  0  0  0  0
    4.7194   -2.2751   -0.2834 C   0  0  0  0  0  0  0  0  0  0  0  0
    4.2475   -0.9839   -0.2286 C   0  0  0  0  0  0  0  0  0  0  0  0
    5.1520    0.0547   -0.2449 C   0  0  0  0  0  0  0  0  0  0  0  0
    4.7251    1.4516   -0.1905 C   0  0  0  0  0  0  0  0  0  0  0  0
    3.5962    1.8225    0.4921 C   0  0  0  0  0  0  0  0  0  0  0  0
    3.2621    3.1637    0.4955 C   0  0  0  0  0  0  0  0  0  0  0  0
    4.0147    4.1160   -0.1525 C   0  0  0  0  0  0  0  0  0  0  0  0
    5.1636    3.7431   -0.8481 C   0  0  0  0  0  0  0  0  0  0  0  0
    5.4785    2.3992   -0.8383 C   0  0  0  0  0  0  0  0  0  0  0  0
    6.5243   -0.2286   -0.3167 C   0  0  0  0  0  0  0  0  0  0  0  0
    6.4223   -3.6219   -0.3984 H   0  0  0  0  0  0  0  0  0  0  0  0
    3.9785   -3.0734   -0.2684 H   0  0  0  0  0  0  0  0  0  0  0  0
    3.1927   -0.7435   -0.1721 H   0  0  0  0  0  0  0  0  0  0  0  0
    2.9730    1.0942    1.0183 H   0  0  0  0  0  0  0  0  0  0  0  0
    2.3733    3.4721    1.0275 H   0  0  0  0  0  0  0  0  0  0  0  0
    3.7530    5.1717   -0.1528 H   0  0  0  0  0  0  0  0  0  0  0  0
    5.7777    4.4737   -1.3692 H   0  0  0  0  0  0  0  0  0  0  0  0
    6.3629    2.0805   -1.3672 H   0  0  0  0  0  0  0  0  0  0  0  0
    7.2705    0.5493   -0.3327 H   0  0  0  0  0  0  0  0  0  0  0  0
  1  2  1  0
  2  3  1  0
  2 19  1  0
  3  4  1  0
  3  5  2  0
  5  6  1  0
  6  7  1  1
  6 19  1  0
  7  8  2  0
  7 18  1  0
  8  9  1  0
  9 10  2  0
 10 11  1  0
 11 12  1  0
 11 18  2  0
 12 13  2  0
 12 17  1  0
 13 14  1  0
 14 15  2  0
 15 16  1  0
 16 17  2  0
 19 20  2  0
  1 21  1  0
  1 22  1  0
  1 23  1  0
  4 24  1  0
  4 25  1  0
  5 26  1  0
  8 27  1  0
  9 28  1  0
 10 29  1  0
 13 30  1  0
 14 31  1  0
 15 32  1  0
 17 33  1  0
 18 34  1  0
 35 36  2  0
 36 37  1  0
 37 38  2  0
 38 39  1  0
 39 40  1  0
 40 41  2  0
 41 42  1  0
 42 43  2  0
 43 44  1  0
 44 45  2  0
 39 46  2  0
 46 35  1  0
 45 40  1  0
 36 47  1  0
 37 48  1  0
 38 49  1  0
 41 50  1  0
 42 51  1  0
 43 52  1  0
 44 53  1  0
 45 54  1  0
 46 55  1  0
  6 35  1  0
M  CHG  1   5   1
M  END
>  <attachment_point>  (349) 
26

>  <score>  (349) 
<NA>

$$$$
CAT-4j
     RDKit          3D

 44 46  0  0  1  0  0  0  0  0999 V2000
   11.7106   -2.3098    1.2658 C   0  0  0  0  0  0  0  0  0  0  0  0
   13.0313   -2.6523    0.7225 N   0  0  0  0  0  0  0  0  0  0  0  0
   14.2010   -2.6281    1.3773 C   0  0  0  0  0  0  0  0  0  0  0  0
   14.3777   -2.3568    2.6732 N   0  0  0  0  0  0  0  0  0  0  0  0
   15.2217   -2.9197    0.5738 N   0  0  0  0  0  0  0  0  0  0  0  0
   14.7965   -3.2519   -0.7875 C   0  0  1  0  0  0  0  0  0  0  0  0
   15.3794   -2.2443   -1.7949 C   0  0  0  0  0  0  0  0  0  0  0  0
   15.9522   -2.6550   -3.0208 C   0  0  0  0  0  0  0  0  0  0  0  0
   16.4340   -1.6937   -3.9273 C   0  0  0  0  0  0  0  0  0  0  0  0
   16.3364   -0.3224   -3.6308 C   0  0  0  0  0  0  0  0  0  0  0  0
   15.7943    0.1250   -2.4073 C   0  0  0  0  0  0  0  0  0  0  0  0
   15.6711    1.5693   -2.0915 C   0  0  0  0  0  0  0  0  0  0  0  0
   15.3832    2.0354   -0.7903 C   0  0  0  0  0  0  0  0  0  0  0  0
   15.3534    3.4188   -0.5357 C   0  0  0  0  0  0  0  0  0  0  0  0
   15.5968    4.3049   -1.5946 C   0  0  0  0  0  0  0  0  0  0  0  0
   15.8275    3.8920   -2.8511 N   0  0  0  0  0  0  0  0  0  0  0  0
   15.8598    2.5642   -3.0762 C   0  0  0  0  0  0  0  0  0  0  0  0
   15.3327   -0.8573   -1.5012 C   0  0  0  0  0  0  0  0  0  0  0  0
   13.2767   -3.0094   -0.6368 C   0  0  0  0  0  0  0  0  0  0  0  0
   12.3981   -3.0674   -1.5055 O   0  0  0  0  0  0  0  0  0  0  0  0
    0.0000    0.0000    0.0000 H   0  0  0  0  0  0  0  0  0  0  0  0
    0.0000    0.0000    0.0000 H   0  0  0  0  0  0  0  0  0  0  0  0
    0.0000    0.0000    0.0000 H   0  0  0  0  0  0  0  0  0  0  0  0
    0.0000    0.0000    0.0000 H   0  0  0  0  0  0  0  0  0  0  0  0
    0.0000    0.0000    0.0000 H   0  0  0  0  0  0  0  0  0  0  0  0
    0.0000    0.0000    0.0000 H   0  0  0  0  0  0  0  0  0  0  0  0
    0.0000    0.0000    0.0000 H   0  0  0  0  0  0  0  0  0  0  0  0
    0.0000    0.0000    0.0000 H   0  0  0  0  0  0  0  0  0  0  0  0
    0.0000    0.0000    0.0000 H   0  0  0  0  0  0  0  0  0  0  0  0
    0.0000    0.0000    0.0000 H   0  0  0  0  0  0  0  0  0  0  0  0
    0.0000    0.0000    0.0000 H   0  0  0  0  0  0  0  0  0  0  0  0
    0.0000    0.0000    0.0000 H   0  0  0  0  0  0  0  0  0  0  0  0
    0.0000    0.0000    0.0000 H   0  0  0  0  0  0  0  0  0  0  0  0
    0.0000    0.0000    0.0000 H   0  0  0  0  0  0  0  0  0  0  0  0
    6.7797   -1.4900   -0.3608 C   0  0  0  0  0  0  0  0  0  0  0  0
    6.4371   -2.7956   -0.8597 C   0  0  0  0  0  0  0  0  0  0  0  0
    6.3026   -3.7498   -0.0526 O   0  0  0  0  0  0  0  0  0  0  0  0
    6.2621   -2.9927   -2.2110 O   0  0  0  0  0  0  0  0  0  0  0  0
    5.9209   -4.2923   -2.7275 C   0  0  0  0  0  0  0  0  0  0  0  0
    6.9651   -1.3599    0.6959 H   0  0  0  0  0  0  0  0  0  0  0  0
    7.0042   -0.7066   -1.0472 H   0  0  0  0  0  0  0  0  0  0  0  0
    6.6949   -4.9961   -2.3627 H   0  0  0  0  0  0  0  0  0  0  0  0
    4.9143   -4.5933   -2.3579 H   0  0  0  0  0  0  0  0  0  0  0  0
    5.9380   -4.1829   -3.8286 H   0  0  0  0  0  0  0  0  0  0  0  0
  1  2  1  0
  2  3  1  0
  2 19  1  0
  3  4  1  0
  3  5  2  0
  5  6  1  0
  6  7  1  0
  6 19  1  0
  7  8  2  0
  7 18  1  0
  8  9  1  0
  9 10  2  0
 10 11  1  0
 11 12  1  0
 11 18  2  0
 12 13  2  0
 12 17  1  0
 13 14  1  0
 14 15  2  0
 15 16  1  0
 16 17  2  0
 19 20  2  0
  1 21  1  0
  1 22  1  0
  1 23  1  0
  4 24  1  0
  4 25  1  0
  5 26  1  0
  8 27  1  0
  9 28  1  0
 10 29  1  0
 13 30  1  0
 14 31  1  0
 15 32  1  0
 17 33  1  0
 18 34  1  0
 35 36  1  0
 36 37  2  0
 36 38  1  0
 38 39  1  0
 35 40  1  0
 35 41  1  0
 39 42  1  0
 39 43  1  0
 39 44  1  0
  6 35  1  6
M  CHG  1   5   1
M  END
>  <attachment_point>  (350) 
26

>  <score>  (350) 
<NA>

$$$$
CAT-4j
     RDKit          3D

 46 49  0  0  1  0  0  0  0  0999 V2000
   11.7106   -2.3098    1.2658 C   0  0  0  0  0  0  0  0  0  0  0  0
   13.0313   -2.6523    0.7225 N   0  0  0  0  0  0  0  0  0  0  0  0
   14.2010   -2.6281    1.3773 C   0  0  0  0  0  0  0  0  0  0  0  0
   14.3777   -2.3568    2.6732 N   0  0  0  0  0  0  0  0  0  0  0  0
   15.2217   -2.9197    0.5738 N   0  0  0  0  0  0  0  0  0  0  0  0
   14.7965   -3.2519   -0.7875 C   0  0  1  0  0  0  0  0  0  0  0  0
   15.3794   -2.2443   -1.7949 C   0  0  0  0  0  0  0  0  0  0  0  0
   15.9522   -2.6550   -3.0208 C   0  0  0  0  0  0  0  0  0  0  0  0
   16.4340   -1.6937   -3.9273 C   0  0  0  0  0  0  0  0  0  0  0  0
   16.3364   -0.3224   -3.6308 C   0  0  0  0  0  0  0  0  0  0  0  0
   15.7943    0.1250   -2.4073 C   0  0  0  0  0  0  0  0  0  0  0  0
   15.6711    1.5693   -2.0915 C   0  0  0  0  0  0  0  0  0  0  0  0
   15.3832    2.0354   -0.7903 C   0  0  0  0  0  0  0  0  0  0  0  0
   15.3534    3.4188   -0.5357 C   0  0  0  0  0  0  0  0  0  0  0  0
   15.5968    4.3049   -1.5946 C   0  0  0  0  0  0  0  0  0  0  0  0
   15.8275    3.8920   -2.8511 N   0  0  0  0  0  0  0  0  0  0  0  0
   15.8598    2.5642   -3.0762 C   0  0  0  0  0  0  0  0  0  0  0  0
   15.3327   -0.8573   -1.5012 C   0  0  0  0  0  0  0  0  0  0  0  0
   13.2767   -3.0094   -0.6368 C   0  0  0  0  0  0  0  0  0  0  0  0
   12.3981   -3.0674   -1.5055 O   0  0  0  0  0  0  0  0  0  0  0  0
    0.0000    0.0000    0.0000 H   0  0  0  0  0  0  0  0  0  0  0  0
    0.0000    0.0000    0.0000 H   0  0  0  0  0  0  0  0  0  0  0  0
    0.0000    0.0000    0.0000 H   0  0  0  0  0  0  0  0  0  0  0  0
    0.0000    0.0000    0.0000 H   0  0  0  0  0  0  0  0  0  0  0  0
    0.0000    0.0000    0.0000 H   0  0  0  0  0  0  0  0  0  0  0  0
    0.0000    0.0000    0.0000 H   0  0  0  0  0  0  0  0  0  0  0  0
    0.0000    0.0000    0.0000 H   0  0  0  0  0  0  0  0  0  0  0  0
    0.0000    0.0000    0.0000 H   0  0  0  0  0  0  0  0  0  0  0  0
    0.0000    0.0000    0.0000 H   0  0  0  0  0  0  0  0  0  0  0  0
    0.0000    0.0000    0.0000 H   0  0  0  0  0  0  0  0  0  0  0  0
    0.0000    0.0000    0.0000 H   0  0  0  0  0  0  0  0  0  0  0  0
    0.0000    0.0000    0.0000 H   0  0  0  0  0  0  0  0  0  0  0  0
    0.0000    0.0000    0.0000 H   0  0  0  0  0  0  0  0  0  0  0  0
    0.0000    0.0000    0.0000 H   0  0  0  0  0  0  0  0  0  0  0  0
    6.9426   -1.5258   -0.3695 O   0  0  0  0  0  0  0  0  0  0  0  0
    6.9061   -0.1350   -0.2518 C   0  0  0  0  0  0  0  0  0  0  0  0
    6.8659    0.4658    0.9911 C   0  0  0  0  0  0  0  0  0  0  0  0
    6.8303    1.8475    1.0743 C   0  0  0  0  0  0  0  0  0  0  0  0
    6.8329    2.6686   -0.0324 C   0  0  0  0  0  0  0  0  0  0  0  0
    6.7861    4.4241    0.1549 Cl  0  0  0  0  0  0  0  0  0  0  0  0
    6.8731    2.0674   -1.2705 C   0  0  0  0  0  0  0  0  0  0  0  0
    6.9087    0.6900   -1.3625 C   0  0  0  0  0  0  0  0  0  0  0  0
    6.8634   -0.1639    1.8562 H   0  0  0  0  0  0  0  0  0  0  0  0
    6.7988    2.3269    2.0353 H   0  0  0  0  0  0  0  0  0  0  0  0
    6.8759    2.6864   -2.1423 H   0  0  0  0  0  0  0  0  0  0  0  0
    6.9407    0.1969   -2.3278 H   0  0  0  0  0  0  0  0  0  0  0  0
  1  2  1  0
  2  3  1  0
  2 19  1  0
  3  4  1  0
  3  5  2  0
  5  6  1  0
  6  7  1  0
  6 19  1  0
  7  8  2  0
  7 18  1  0
  8  9  1  0
  9 10  2  0
 10 11  1  0
 11 12  1  0
 11 18  2  0
 12 13  2  0
 12 17  1  0
 13 14  1  0
 14 15  2  0
 15 16  1  0
 16 17  2  0
 19 20  2  0
  1 21  1  0
  1 22  1  0
  1 23  1  0
  4 24  1  0
  4 25  1  0
  5 26  1  0
  8 27  1  0
  9 28  1  0
 10 29  1  0
 13 30  1  0
 14 31  1  0
 15 32  1  0
 17 33  1  0
 18 34  1  0
 35 36  1  0
 36 37  2  0
 37 38  1  0
 38 39  2  0
 39 40  1  0
 39 41  1  0
 41 42  2  0
 42 36  1  0
 37 43  1  0
 38 44  1  0
 41 45  1  0
 42 46  1  0
  6 35  1  6
M  CHG  1   5   1
M  END
>  <attachment_point>  (351) 
26

>  <score>  (351) 
<NA>

$$$$
CAT-4j
     RDKit          3D

 47 50  0  0  1  0  0  0  0  0999 V2000
   11.7106   -2.3098    1.2658 C   0  0  0  0  0  0  0  0  0  0  0  0
   13.0313   -2.6523    0.7225 N   0  0  0  0  0  0  0  0  0  0  0  0
   14.2010   -2.6281    1.3773 C   0  0  0  0  0  0  0  0  0  0  0  0
   14.3777   -2.3568    2.6732 N   0  0  0  0  0  0  0  0  0  0  0  0
   15.2217   -2.9197    0.5738 N   0  0  0  0  0  0  0  0  0  0  0  0
   14.7965   -3.2519   -0.7875 C   0  0  1  0  0  0  0  0  0  0  0  0
   15.3794   -2.2443   -1.7949 C   0  0  0  0  0  0  0  0  0  0  0  0
   15.9522   -2.6550   -3.0208 C   0  0  0  0  0  0  0  0  0  0  0  0
   16.4340   -1.6937   -3.9273 C   0  0  0  0  0  0  0  0  0  0  0  0
   16.3364   -0.3224   -3.6308 C   0  0  0  0  0  0  0  0  0  0  0  0
   15.7943    0.1250   -2.4073 C   0  0  0  0  0  0  0  0  0  0  0  0
   15.6711    1.5693   -2.0915 C   0  0  0  0  0  0  0  0  0  0  0  0
   15.3832    2.0354   -0.7903 C   0  0  0  0  0  0  0  0  0  0  0  0
   15.3534    3.4188   -0.5357 C   0  0  0  0  0  0  0  0  0  0  0  0
   15.5968    4.3049   -1.5946 C   0  0  0  0  0  0  0  0  0  0  0  0
   15.8275    3.8920   -2.8511 N   0  0  0  0  0  0  0  0  0  0  0  0
   15.8598    2.5642   -3.0762 C   0  0  0  0  0  0  0  0  0  0  0  0
   15.3327   -0.8573   -1.5012 C   0  0  0  0  0  0  0  0  0  0  0  0
   13.2767   -3.0094   -0.6368 C   0  0  0  0  0  0  0  0  0  0  0  0
   12.3981   -3.0674   -1.5055 O   0  0  0  0  0  0  0  0  0  0  0  0
    0.0000    0.0000    0.0000 H   0  0  0  0  0  0  0  0  0  0  0  0
    0.0000    0.0000    0.0000 H   0  0  0  0  0  0  0  0  0  0  0  0
    0.0000    0.0000    0.0000 H   0  0  0  0  0  0  0  0  0  0  0  0
    0.0000    0.0000    0.0000 H   0  0  0  0  0  0  0  0  0  0  0  0
    0.0000    0.0000    0.0000 H   0  0  0  0  0  0  0  0  0  0  0  0
    0.0000    0.0000    0.0000 H   0  0  0  0  0  0  0  0  0  0  0  0
    0.0000    0.0000    0.0000 H   0  0  0  0  0  0  0  0  0  0  0  0
    0.0000    0.0000    0.0000 H   0  0  0  0  0  0  0  0  0  0  0  0
    0.0000    0.0000    0.0000 H   0  0  0  0  0  0  0  0  0  0  0  0
    0.0000    0.0000    0.0000 H   0  0  0  0  0  0  0  0  0  0  0  0
    0.0000    0.0000    0.0000 H   0  0  0  0  0  0  0  0  0  0  0  0
    0.0000    0.0000    0.0000 H   0  0  0  0  0  0  0  0  0  0  0  0
    0.0000    0.0000    0.0000 H   0  0  0  0  0  0  0  0  0  0  0  0
    0.0000    0.0000    0.0000 H   0  0  0  0  0  0  0  0  0  0  0  0
    6.9806   -1.5342   -0.3715 C   0  0  0  0  0  0  0  0  0  0  0  0
    6.0480   -2.5192   -0.6383 C   0  0  0  0  0  0  0  0  0  0  0  0
    4.7025   -2.2023   -0.5612 C   0  0  0  0  0  0  0  0  0  0  0  0
    4.3216   -0.9199   -0.2223 C   0  0  0  0  0  0  0  0  0  0  0  0
    5.2468    0.0628    0.0439 C   0  0  0  0  0  0  0  0  0  0  0  0
    4.8641    1.3811    0.3924 N   0  0  0  0  0  0  0  0  0  0  0  0
    6.5903   -0.2429   -0.0303 C   0  0  0  0  0  0  0  0  0  0  0  0
    6.3420   -3.5441   -0.9093 H   0  0  0  0  0  0  0  0  0  0  0  0
    3.9277   -2.9305   -0.7590 H   0  0  0  0  0  0  0  0  0  0  0  0
    3.2691   -0.6938   -0.1678 H   0  0  0  0  0  0  0  0  0  0  0  0
    4.3754    2.0248   -0.2579 H   0  0  0  0  0  0  0  0  0  0  0  0
    5.1001    1.6953    1.3650 H   0  0  0  0  0  0  0  0  0  0  0  0
    7.3794    0.4793    0.1660 H   0  0  0  0  0  0  0  0  0  0  0  0
  1  2  1  0
  2  3  1  0
  2 19  1  0
  3  4  1  0
  3  5  2  0
  5  6  1  0
  6  7  1  1
  6 19  1  0
  7  8  2  0
  7 18  1  0
  8  9  1  0
  9 10  2  0
 10 11  1  0
 11 12  1  0
 11 18  2  0
 12 13  2  0
 12 17  1  0
 13 14  1  0
 14 15  2  0
 15 16  1  0
 16 17  2  0
 19 20  2  0
  1 21  1  0
  1 22  1  0
  1 23  1  0
  4 24  1  0
  4 25  1  0
  5 26  1  0
  8 27  1  0
  9 28  1  0
 10 29  1  0
 13 30  1  0
 14 31  1  0
 15 32  1  0
 17 33  1  0
 18 34  1  0
 35 36  2  0
 36 37  1  0
 37 38  2  0
 38 39  1  0
 39 40  1  0
 39 41  2  0
 41 35  1  0
 36 42  1  0
 37 43  1  0
 38 44  1  0
 40 45  1  0
 40 46  1  0
 41 47  1  0
  6 35  1  0
M  CHG  1   5   1
M  END
>  <attachment_point>  (352) 
26

>  <score>  (352) 
<NA>

$$$$
CAT-4j
     RDKit          3D

 45 47  0  0  1  0  0  0  0  0999 V2000
   11.7106   -2.3098    1.2658 C   0  0  0  0  0  0  0  0  0  0  0  0
   13.0313   -2.6523    0.7225 N   0  0  0  0  0  0  0  0  0  0  0  0
   14.2010   -2.6281    1.3773 C   0  0  0  0  0  0  0  0  0  0  0  0
   14.3777   -2.3568    2.6732 N   0  0  0  0  0  0  0  0  0  0  0  0
   15.2217   -2.9197    0.5738 N   0  0  0  0  0  0  0  0  0  0  0  0
   14.7965   -3.2519   -0.7875 C   0  0  1  0  0  0  0  0  0  0  0  0
   15.3794   -2.2443   -1.7949 C   0  0  0  0  0  0  0  0  0  0  0  0
   15.9522   -2.6550   -3.0208 C   0  0  0  0  0  0  0  0  0  0  0  0
   16.4340   -1.6937   -3.9273 C   0  0  0  0  0  0  0  0  0  0  0  0
   16.3364   -0.3224   -3.6308 C   0  0  0  0  0  0  0  0  0  0  0  0
   15.7943    0.1250   -2.4073 C   0  0  0  0  0  0  0  0  0  0  0  0
   15.6711    1.5693   -2.0915 C   0  0  0  0  0  0  0  0  0  0  0  0
   15.3832    2.0354   -0.7903 C   0  0  0  0  0  0  0  0  0  0  0  0
   15.3534    3.4188   -0.5357 C   0  0  0  0  0  0  0  0  0  0  0  0
   15.5968    4.3049   -1.5946 C   0  0  0  0  0  0  0  0  0  0  0  0
   15.8275    3.8920   -2.8511 N   0  0  0  0  0  0  0  0  0  0  0  0
   15.8598    2.5642   -3.0762 C   0  0  0  0  0  0  0  0  0  0  0  0
   15.3327   -0.8573   -1.5012 C   0  0  0  0  0  0  0  0  0  0  0  0
   13.2767   -3.0094   -0.6368 C   0  0  0  0  0  0  0  0  0  0  0  0
   12.3981   -3.0674   -1.5055 O   0  0  0  0  0  0  0  0  0  0  0  0
    0.0000    0.0000    0.0000 H   0  0  0  0  0  0  0  0  0  0  0  0
    0.0000    0.0000    0.0000 H   0  0  0  0  0  0  0  0  0  0  0  0
    0.0000    0.0000    0.0000 H   0  0  0  0  0  0  0  0  0  0  0  0
    0.0000    0.0000    0.0000 H   0  0  0  0  0  0  0  0  0  0  0  0
    0.0000    0.0000    0.0000 H   0  0  0  0  0  0  0  0  0  0  0  0
    0.0000    0.0000    0.0000 H   0  0  0  0  0  0  0  0  0  0  0  0
    0.0000    0.0000    0.0000 H   0  0  0  0  0  0  0  0  0  0  0  0
    0.0000    0.0000    0.0000 H   0  0  0  0  0  0  0  0  0  0  0  0
    0.0000    0.0000    0.0000 H   0  0  0  0  0  0  0  0  0  0  0  0
    0.0000    0.0000    0.0000 H   0  0  0  0  0  0  0  0  0  0  0  0
    0.0000    0.0000    0.0000 H   0  0  0  0  0  0  0  0  0  0  0  0
    0.0000    0.0000    0.0000 H   0  0  0  0  0  0  0  0  0  0  0  0
    0.0000    0.0000    0.0000 H   0  0  0  0  0  0  0  0  0  0  0  0
    0.0000    0.0000    0.0000 H   0  0  0  0  0  0  0  0  0  0  0  0
    6.9354   -1.5242   -0.3691 N   0  0  0  0  0  0  0  0  0  0  0  0
    6.8357   -0.5678   -1.4635 C   0  0  0  0  0  0  0  0  0  0  0  0
    7.2731   -1.3205   -2.7213 C   0  0  0  0  0  0  0  0  0  0  0  0
    7.2038   -0.4267   -3.8847 N   0  0  0  0  0  0  0  0  0  0  0  0
    6.8542   -1.0765    0.5625 H   0  0  0  0  0  0  0  0  0  0  0  0
    7.4884    0.3150   -1.3141 H   0  0  0  0  0  0  0  0  0  0  0  0
    5.8002   -0.1902   -1.5491 H   0  0  0  0  0  0  0  0  0  0  0  0
    8.3603   -1.5308   -2.5880 H   0  0  0  0  0  0  0  0  0  0  0  0
    6.6645   -2.2108   -2.8661 H   0  0  0  0  0  0  0  0  0  0  0  0
    7.6413   -0.9623   -4.6719 H   0  0  0  0  0  0  0  0  0  0  0  0
    7.6863    0.4550   -3.6835 H   0  0  0  0  0  0  0  0  0  0  0  0
  1  2  1  0
  2  3  1  0
  2 19  1  0
  3  4  1  0
  3  5  2  0
  5  6  1  0
  6  7  1  0
  6 19  1  0
  7  8  2  0
  7 18  1  0
  8  9  1  0
  9 10  2  0
 10 11  1  0
 11 12  1  0
 11 18  2  0
 12 13  2  0
 12 17  1  0
 13 14  1  0
 14 15  2  0
 15 16  1  0
 16 17  2  0
 19 20  2  0
  1 21  1  0
  1 22  1  0
  1 23  1  0
  4 24  1  0
  4 25  1  0
  5 26  1  0
  8 27  1  0
  9 28  1  0
 10 29  1  0
 13 30  1  0
 14 31  1  0
 15 32  1  0
 17 33  1  0
 18 34  1  0
 35 36  1  0
 36 37  1  0
 37 38  1  0
 35 39  1  0
 36 40  1  0
 36 41  1  0
 37 42  1  0
 37 43  1  0
 38 44  1  0
 38 45  1  0
  6 35  1  6
M  CHG  1   5   1
M  END
>  <attachment_point>  (353) 
26

>  <score>  (353) 
<NA>

$$$$
CAT-4j
     RDKit          3D

 53 56  0  0  1  0  0  0  0  0999 V2000
   11.7106   -2.3098    1.2658 C   0  0  0  0  0  0  0  0  0  0  0  0
   13.0313   -2.6523    0.7225 N   0  0  0  0  0  0  0  0  0  0  0  0
   14.2010   -2.6281    1.3773 C   0  0  0  0  0  0  0  0  0  0  0  0
   14.3777   -2.3568    2.6732 N   0  0  0  0  0  0  0  0  0  0  0  0
   15.2217   -2.9197    0.5738 N   0  0  0  0  0  0  0  0  0  0  0  0
   14.7965   -3.2519   -0.7875 C   0  0  1  0  0  0  0  0  0  0  0  0
   15.3794   -2.2443   -1.7949 C   0  0  0  0  0  0  0  0  0  0  0  0
   15.9522   -2.6550   -3.0208 C   0  0  0  0  0  0  0  0  0  0  0  0
   16.4340   -1.6937   -3.9273 C   0  0  0  0  0  0  0  0  0  0  0  0
   16.3364   -0.3224   -3.6308 C   0  0  0  0  0  0  0  0  0  0  0  0
   15.7943    0.1250   -2.4073 C   0  0  0  0  0  0  0  0  0  0  0  0
   15.6711    1.5693   -2.0915 C   0  0  0  0  0  0  0  0  0  0  0  0
   15.3832    2.0354   -0.7903 C   0  0  0  0  0  0  0  0  0  0  0  0
   15.3534    3.4188   -0.5357 C   0  0  0  0  0  0  0  0  0  0  0  0
   15.5968    4.3049   -1.5946 C   0  0  0  0  0  0  0  0  0  0  0  0
   15.8275    3.8920   -2.8511 N   0  0  0  0  0  0  0  0  0  0  0  0
   15.8598    2.5642   -3.0762 C   0  0  0  0  0  0  0  0  0  0  0  0
   15.3327   -0.8573   -1.5012 C   0  0  0  0  0  0  0  0  0  0  0  0
   13.2767   -3.0094   -0.6368 C   0  0  0  0  0  0  0  0  0  0  0  0
   12.3981   -3.0674   -1.5055 O   0  0  0  0  0  0  0  0  0  0  0  0
    0.0000    0.0000    0.0000 H   0  0  0  0  0  0  0  0  0  0  0  0
    0.0000    0.0000    0.0000 H   0  0  0  0  0  0  0  0  0  0  0  0
    0.0000    0.0000    0.0000 H   0  0  0  0  0  0  0  0  0  0  0  0
    0.0000    0.0000    0.0000 H   0  0  0  0  0  0  0  0  0  0  0  0
    0.0000    0.0000    0.0000 H   0  0  0  0  0  0  0  0  0  0  0  0
    0.0000    0.0000    0.0000 H   0  0  0  0  0  0  0  0  0  0  0  0
    0.0000    0.0000    0.0000 H   0  0  0  0  0  0  0  0  0  0  0  0
    0.0000    0.0000    0.0000 H   0  0  0  0  0  0  0  0  0  0  0  0
    0.0000    0.0000    0.0000 H   0  0  0  0  0  0  0  0  0  0  0  0
    0.0000    0.0000    0.0000 H   0  0  0  0  0  0  0  0  0  0  0  0
    0.0000    0.0000    0.0000 H   0  0  0  0  0  0  0  0  0  0  0  0
    0.0000    0.0000    0.0000 H   0  0  0  0  0  0  0  0  0  0  0  0
    0.0000    0.0000    0.0000 H   0  0  0  0  0  0  0  0  0  0  0  0
    0.0000    0.0000    0.0000 H   0  0  0  0  0  0  0  0  0  0  0  0
    7.0171   -1.5422   -0.3735 N   0  0  0  0  0  0  0  0  0  0  0  0
    6.2659   -2.7920   -0.3064 C   0  0  0  0  0  0  0  0  0  0  0  0
    6.7302   -3.7019    0.7721 C   0  0  0  0  0  0  0  0  0  0  0  0
    7.0868   -3.0511    2.0560 C   0  0  0  0  0  0  0  0  0  0  0  0
    8.2075   -3.8005    2.7895 C   0  0  0  0  0  0  0  0  0  0  0  0
    7.5545   -1.6334    1.9362 C   0  0  0  0  0  0  0  0  0  0  0  0
    6.7520   -0.8855    0.9162 C   0  0  0  0  0  0  0  0  0  0  0  0
    6.3533   -3.3268   -1.2831 H   0  0  0  0  0  0  0  0  0  0  0  0
    5.1967   -2.4937   -0.2136 H   0  0  0  0  0  0  0  0  0  0  0  0
    7.5456   -4.3609    0.3619 H   0  0  0  0  0  0  0  0  0  0  0  0
    5.8875   -4.4245    0.9840 H   0  0  0  0  0  0  0  0  0  0  0  0
    6.1888   -3.0344    2.7400 H   0  0  0  0  0  0  0  0  0  0  0  0
    8.4441   -3.1571    3.6750 H   0  0  0  0  0  0  0  0  0  0  0  0
    9.0941   -3.7836    2.1252 H   0  0  0  0  0  0  0  0  0  0  0  0
    7.9326   -4.8200    3.0429 H   0  0  0  0  0  0  0  0  0  0  0  0
    7.5569   -1.1751    2.9333 H   0  0  0  0  0  0  0  0  0  0  0  0
    8.6153   -1.6535    1.5659 H   0  0  0  0  0  0  0  0  0  0  0  0
    7.0456    0.1616    0.9101 H   0  0  0  0  0  0  0  0  0  0  0  0
    5.6550   -1.0016    1.1469 H   0  0  0  0  0  0  0  0  0  0  0  0
  1  2  1  0
  2  3  1  0
  2 19  1  0
  3  4  1  0
  3  5  2  0
  5  6  1  0
  6  7  1  0
  6 19  1  0
  7  8  2  0
  7 18  1  0
  8  9  1  0
  9 10  2  0
 10 11  1  0
 11 12  1  0
 11 18  2  0
 12 13  2  0
 12 17  1  0
 13 14  1  0
 14 15  2  0
 15 16  1  0
 16 17  2  0
 19 20  2  0
  1 21  1  0
  1 22  1  0
  1 23  1  0
  4 24  1  0
  4 25  1  0
  5 26  1  0
  8 27  1  0
  9 28  1  0
 10 29  1  0
 13 30  1  0
 14 31  1  0
 15 32  1  0
 17 33  1  0
 18 34  1  0
 35 36  1  0
 36 37  1  0
 37 38  1  0
 38 39  1  0
 38 40  1  0
 40 41  1  0
 41 35  1  0
 36 42  1  0
 36 43  1  0
 37 44  1  0
 37 45  1  0
 38 46  1  0
 39 47  1  0
 39 48  1  0
 39 49  1  0
 40 50  1  0
 40 51  1  0
 41 52  1  0
 41 53  1  0
  6 35  1  6
M  CHG  1   5   1
M  END
>  <attachment_point>  (354) 
26

>  <score>  (354) 
<NA>

$$$$
CAT-4j
     RDKit          3D

 47 50  0  0  1  0  0  0  0  0999 V2000
   11.7106   -2.3098    1.2658 C   0  0  0  0  0  0  0  0  0  0  0  0
   13.0313   -2.6523    0.7225 N   0  0  0  0  0  0  0  0  0  0  0  0
   14.2010   -2.6281    1.3773 C   0  0  0  0  0  0  0  0  0  0  0  0
   14.3777   -2.3568    2.6732 N   0  0  0  0  0  0  0  0  0  0  0  0
   15.2217   -2.9197    0.5738 N   0  0  0  0  0  0  0  0  0  0  0  0
   14.7965   -3.2519   -0.7875 C   0  0  1  0  0  0  0  0  0  0  0  0
   15.3794   -2.2443   -1.7949 C   0  0  0  0  0  0  0  0  0  0  0  0
   15.9522   -2.6550   -3.0208 C   0  0  0  0  0  0  0  0  0  0  0  0
   16.4340   -1.6937   -3.9273 C   0  0  0  0  0  0  0  0  0  0  0  0
   16.3364   -0.3224   -3.6308 C   0  0  0  0  0  0  0  0  0  0  0  0
   15.7943    0.1250   -2.4073 C   0  0  0  0  0  0  0  0  0  0  0  0
   15.6711    1.5693   -2.0915 C   0  0  0  0  0  0  0  0  0  0  0  0
   15.3832    2.0354   -0.7903 C   0  0  0  0  0  0  0  0  0  0  0  0
   15.3534    3.4188   -0.5357 C   0  0  0  0  0  0  0  0  0  0  0  0
   15.5968    4.3049   -1.5946 C   0  0  0  0  0  0  0  0  0  0  0  0
   15.8275    3.8920   -2.8511 N   0  0  0  0  0  0  0  0  0  0  0  0
   15.8598    2.5642   -3.0762 C   0  0  0  0  0  0  0  0  0  0  0  0
   15.3327   -0.8573   -1.5012 C   0  0  0  0  0  0  0  0  0  0  0  0
   13.2767   -3.0094   -0.6368 C   0  0  0  0  0  0  0  0  0  0  0  0
   12.3981   -3.0674   -1.5055 O   0  0  0  0  0  0  0  0  0  0  0  0
    0.0000    0.0000    0.0000 H   0  0  0  0  0  0  0  0  0  0  0  0
    0.0000    0.0000    0.0000 H   0  0  0  0  0  0  0  0  0  0  0  0
    0.0000    0.0000    0.0000 H   0  0  0  0  0  0  0  0  0  0  0  0
    0.0000    0.0000    0.0000 H   0  0  0  0  0  0  0  0  0  0  0  0
    0.0000    0.0000    0.0000 H   0  0  0  0  0  0  0  0  0  0  0  0
    0.0000    0.0000    0.0000 H   0  0  0  0  0  0  0  0  0  0  0  0
    0.0000    0.0000    0.0000 H   0  0  0  0  0  0  0  0  0  0  0  0
    0.0000    0.0000    0.0000 H   0  0  0  0  0  0  0  0  0  0  0  0
    0.0000    0.0000    0.0000 H   0  0  0  0  0  0  0  0  0  0  0  0
    0.0000    0.0000    0.0000 H   0  0  0  0  0  0  0  0  0  0  0  0
    0.0000    0.0000    0.0000 H   0  0  0  0  0  0  0  0  0  0  0  0
    0.0000    0.0000    0.0000 H   0  0  0  0  0  0  0  0  0  0  0  0
    0.0000    0.0000    0.0000 H   0  0  0  0  0  0  0  0  0  0  0  0
    0.0000    0.0000    0.0000 H   0  0  0  0  0  0  0  0  0  0  0  0
    6.9778   -1.5336   -0.3714 C   0  0  0  0  0  0  0  0  0  0  0  0
    6.1422   -2.5028   -0.8846 C   0  0  0  0  0  0  0  0  0  0  0  0
    4.7813   -2.2262   -0.8230 C   0  0  0  0  0  0  0  0  0  0  0  0
    4.2906   -1.0551   -0.2824 C   0  0  0  0  0  0  0  0  0  0  0  0
    2.8099   -0.8552   -0.2641 C   0  0  0  0  0  0  0  0  0  0  0  0
    2.4026   -0.9117   -1.6018 F   0  0  0  0  0  0  0  0  0  0  0  0
    2.2366   -1.9391    0.3828 F   0  0  0  0  0  0  0  0  0  0  0  0
    2.4779    0.3433    0.3080 F   0  0  0  0  0  0  0  0  0  0  0  0
    5.1691   -0.1271    0.2133 C   0  0  0  0  0  0  0  0  0  0  0  0
    6.5047   -0.3904    0.1567 N   0  0  0  0  0  0  0  0  0  0  0  0
    6.5109   -3.4261   -1.3119 H   0  0  0  0  0  0  0  0  0  0  0  0
    4.0964   -2.9415   -1.2055 H   0  0  0  0  0  0  0  0  0  0  0  0
    4.7779    0.7887    0.6356 H   0  0  0  0  0  0  0  0  0  0  0  0
  1  2  1  0
  2  3  1  0
  2 19  1  0
  3  4  1  0
  3  5  2  0
  5  6  1  0
  6  7  1  1
  6 19  1  0
  7  8  2  0
  7 18  1  0
  8  9  1  0
  9 10  2  0
 10 11  1  0
 11 12  1  0
 11 18  2  0
 12 13  2  0
 12 17  1  0
 13 14  1  0
 14 15  2  0
 15 16  1  0
 16 17  2  0
 19 20  2  0
  1 21  1  0
  1 22  1  0
  1 23  1  0
  4 24  1  0
  4 25  1  0
  5 26  1  0
  8 27  1  0
  9 28  1  0
 10 29  1  0
 13 30  1  0
 14 31  1  0
 15 32  1  0
 17 33  1  0
 18 34  1  0
 35 36  2  0
 36 37  1  0
 37 38  2  0
 38 39  1  0
 39 40  1  0
 39 41  1  0
 39 42  1  0
 38 43  1  0
 43 44  2  0
 44 35  1  0
 36 45  1  0
 37 46  1  0
 43 47  1  0
  6 35  1  0
M  CHG  1   5   1
M  END
>  <attachment_point>  (355) 
26

>  <score>  (355) 
<NA>

$$$$
CAT-4j
     RDKit          3D

 51 54  0  0  1  0  0  0  0  0999 V2000
   11.7106   -2.3098    1.2658 C   0  0  0  0  0  0  0  0  0  0  0  0
   13.0313   -2.6523    0.7225 N   0  0  0  0  0  0  0  0  0  0  0  0
   14.2010   -2.6281    1.3773 C   0  0  0  0  0  0  0  0  0  0  0  0
   14.3777   -2.3568    2.6732 N   0  0  0  0  0  0  0  0  0  0  0  0
   15.2217   -2.9197    0.5738 N   0  0  0  0  0  0  0  0  0  0  0  0
   14.7965   -3.2519   -0.7875 C   0  0  1  0  0  0  0  0  0  0  0  0
   15.3794   -2.2443   -1.7949 C   0  0  0  0  0  0  0  0  0  0  0  0
   15.9522   -2.6550   -3.0208 C   0  0  0  0  0  0  0  0  0  0  0  0
   16.4340   -1.6937   -3.9273 C   0  0  0  0  0  0  0  0  0  0  0  0
   16.3364   -0.3224   -3.6308 C   0  0  0  0  0  0  0  0  0  0  0  0
   15.7943    0.1250   -2.4073 C   0  0  0  0  0  0  0  0  0  0  0  0
   15.6711    1.5693   -2.0915 C   0  0  0  0  0  0  0  0  0  0  0  0
   15.3832    2.0354   -0.7903 C   0  0  0  0  0  0  0  0  0  0  0  0
   15.3534    3.4188   -0.5357 C   0  0  0  0  0  0  0  0  0  0  0  0
   15.5968    4.3049   -1.5946 C   0  0  0  0  0  0  0  0  0  0  0  0
   15.8275    3.8920   -2.8511 N   0  0  0  0  0  0  0  0  0  0  0  0
   15.8598    2.5642   -3.0762 C   0  0  0  0  0  0  0  0  0  0  0  0
   15.3327   -0.8573   -1.5012 C   0  0  0  0  0  0  0  0  0  0  0  0
   13.2767   -3.0094   -0.6368 C   0  0  0  0  0  0  0  0  0  0  0  0
   12.3981   -3.0674   -1.5055 O   0  0  0  0  0  0  0  0  0  0  0  0
    0.0000    0.0000    0.0000 H   0  0  0  0  0  0  0  0  0  0  0  0
    0.0000    0.0000    0.0000 H   0  0  0  0  0  0  0  0  0  0  0  0
    0.0000    0.0000    0.0000 H   0  0  0  0  0  0  0  0  0  0  0  0
    0.0000    0.0000    0.0000 H   0  0  0  0  0  0  0  0  0  0  0  0
    0.0000    0.0000    0.0000 H   0  0  0  0  0  0  0  0  0  0  0  0
    0.0000    0.0000    0.0000 H   0  0  0  0  0  0  0  0  0  0  0  0
    0.0000    0.0000    0.0000 H   0  0  0  0  0  0  0  0  0  0  0  0
    0.0000    0.0000    0.0000 H   0  0  0  0  0  0  0  0  0  0  0  0
    0.0000    0.0000    0.0000 H   0  0  0  0  0  0  0  0  0  0  0  0
    0.0000    0.0000    0.0000 H   0  0  0  0  0  0  0  0  0  0  0  0
    0.0000    0.0000    0.0000 H   0  0  0  0  0  0  0  0  0  0  0  0
    0.0000    0.0000    0.0000 H   0  0  0  0  0  0  0  0  0  0  0  0
    0.0000    0.0000    0.0000 H   0  0  0  0  0  0  0  0  0  0  0  0
    0.0000    0.0000    0.0000 H   0  0  0  0  0  0  0  0  0  0  0  0
    6.9650   -1.5307   -0.3707 C   0  0  0  0  0  0  0  0  0  0  0  0
    6.2339   -1.6039   -1.3643 O   0  0  0  0  0  0  0  0  0  0  0  0
    6.4499   -1.1506    0.8360 O   0  0  0  0  0  0  0  0  0  0  0  0
    5.1223   -0.8243    1.0629 C   0  0  0  0  0  0  0  0  0  0  0  0
    4.1310   -1.8828    0.7854 C   0  0  0  0  0  0  0  0  0  0  0  0
    3.4602   -1.9373   -0.4169 C   0  0  0  0  0  0  0  0  0  0  0  0
    2.5440   -2.9755   -0.6240 C   0  0  0  0  0  0  0  0  0  0  0  0
    2.2893   -3.9349    0.3183 C   0  0  0  0  0  0  0  0  0  0  0  0
    2.9687   -3.8657    1.5163 C   0  0  0  0  0  0  0  0  0  0  0  0
    3.8787   -2.8604    1.7600 C   0  0  0  0  0  0  0  0  0  0  0  0
    4.8310    0.1256    0.5230 H   0  0  0  0  0  0  0  0  0  0  0  0
    5.0537   -0.5893    2.1701 H   0  0  0  0  0  0  0  0  0  0  0  0
    3.5908   -1.2114   -1.2171 H   0  0  0  0  0  0  0  0  0  0  0  0
    2.0071   -3.0291   -1.5721 H   0  0  0  0  0  0  0  0  0  0  0  0
    1.5823   -4.7458    0.1731 H   0  0  0  0  0  0  0  0  0  0  0  0
    2.7585   -4.6412    2.2703 H   0  0  0  0  0  0  0  0  0  0  0  0
    4.4064   -2.8282    2.7226 H   0  0  0  0  0  0  0  0  0  0  0  0
  1  2  1  0
  2  3  1  0
  2 19  1  0
  3  4  1  0
  3  5  2  0
  5  6  1  0
  6  7  1  0
  6 19  1  0
  7  8  2  0
  7 18  1  0
  8  9  1  0
  9 10  2  0
 10 11  1  0
 11 12  1  0
 11 18  2  0
 12 13  2  0
 12 17  1  0
 13 14  1  0
 14 15  2  0
 15 16  1  0
 16 17  2  0
 19 20  2  0
  1 21  1  0
  1 22  1  0
  1 23  1  0
  4 24  1  0
  4 25  1  0
  5 26  1  0
  8 27  1  0
  9 28  1  0
 10 29  1  0
 13 30  1  0
 14 31  1  0
 15 32  1  0
 17 33  1  0
 18 34  1  0
 35 36  2  0
 35 37  1  0
 37 38  1  0
 38 39  1  0
 39 40  2  0
 40 41  1  0
 41 42  2  0
 42 43  1  0
 43 44  2  0
 44 39  1  0
 38 45  1  0
 38 46  1  0
 40 47  1  0
 41 48  1  0
 42 49  1  0
 43 50  1  0
 44 51  1  0
  6 35  1  6
M  CHG  1   5   1
M  END
>  <attachment_point>  (356) 
26

>  <score>  (356) 
<NA>

$$$$
CAT-4j
     RDKit          3D

 46 48  0  0  1  0  0  0  0  0999 V2000
   11.7106   -2.3098    1.2658 C   0  0  0  0  0  0  0  0  0  0  0  0
   13.0313   -2.6523    0.7225 N   0  0  0  0  0  0  0  0  0  0  0  0
   14.2010   -2.6281    1.3773 C   0  0  0  0  0  0  0  0  0  0  0  0
   14.3777   -2.3568    2.6732 N   0  0  0  0  0  0  0  0  0  0  0  0
   15.2217   -2.9197    0.5738 N   0  0  0  0  0  0  0  0  0  0  0  0
   14.7965   -3.2519   -0.7875 C   0  0  1  0  0  0  0  0  0  0  0  0
   15.3794   -2.2443   -1.7949 C   0  0  0  0  0  0  0  0  0  0  0  0
   15.9522   -2.6550   -3.0208 C   0  0  0  0  0  0  0  0  0  0  0  0
   16.4340   -1.6937   -3.9273 C   0  0  0  0  0  0  0  0  0  0  0  0
   16.3364   -0.3224   -3.6308 C   0  0  0  0  0  0  0  0  0  0  0  0
   15.7943    0.1250   -2.4073 C   0  0  0  0  0  0  0  0  0  0  0  0
   15.6711    1.5693   -2.0915 C   0  0  0  0  0  0  0  0  0  0  0  0
   15.3832    2.0354   -0.7903 C   0  0  0  0  0  0  0  0  0  0  0  0
   15.3534    3.4188   -0.5357 C   0  0  0  0  0  0  0  0  0  0  0  0
   15.5968    4.3049   -1.5946 C   0  0  0  0  0  0  0  0  0  0  0  0
   15.8275    3.8920   -2.8511 N   0  0  0  0  0  0  0  0  0  0  0  0
   15.8598    2.5642   -3.0762 C   0  0  0  0  0  0  0  0  0  0  0  0
   15.3327   -0.8573   -1.5012 C   0  0  0  0  0  0  0  0  0  0  0  0
   13.2767   -3.0094   -0.6368 C   0  0  0  0  0  0  0  0  0  0  0  0
   12.3981   -3.0674   -1.5055 O   0  0  0  0  0  0  0  0  0  0  0  0
    0.0000    0.0000    0.0000 H   0  0  0  0  0  0  0  0  0  0  0  0
    0.0000    0.0000    0.0000 H   0  0  0  0  0  0  0  0  0  0  0  0
    0.0000    0.0000    0.0000 H   0  0  0  0  0  0  0  0  0  0  0  0
    0.0000    0.0000    0.0000 H   0  0  0  0  0  0  0  0  0  0  0  0
    0.0000    0.0000    0.0000 H   0  0  0  0  0  0  0  0  0  0  0  0
    0.0000    0.0000    0.0000 H   0  0  0  0  0  0  0  0  0  0  0  0
    0.0000    0.0000    0.0000 H   0  0  0  0  0  0  0  0  0  0  0  0
    0.0000    0.0000    0.0000 H   0  0  0  0  0  0  0  0  0  0  0  0
    0.0000    0.0000    0.0000 H   0  0  0  0  0  0  0  0  0  0  0  0
    0.0000    0.0000    0.0000 H   0  0  0  0  0  0  0  0  0  0  0  0
    0.0000    0.0000    0.0000 H   0  0  0  0  0  0  0  0  0  0  0  0
    0.0000    0.0000    0.0000 H   0  0  0  0  0  0  0  0  0  0  0  0
    0.0000    0.0000    0.0000 H   0  0  0  0  0  0  0  0  0  0  0  0
    0.0000    0.0000    0.0000 H   0  0  0  0  0  0  0  0  0  0  0  0
    6.9791   -1.5338   -0.3714 S   0  0  0  0  0  6  0  0  0  0  0  0
    6.7814   -0.6361    0.8361 O   0  0  0  0  0  0  0  0  0  0  0  0
    6.5433   -0.7937   -1.5763 O   0  0  0  0  0  0  0  0  0  0  0  0
    6.0677   -2.9592   -0.0712 N   0  0  0  0  0  0  0  0  0  0  0  0
    5.6546   -3.6292   -1.2799 C   0  0  0  0  0  0  0  0  0  0  0  0
    4.9904   -2.7527    0.8581 C   0  0  0  0  0  0  0  0  0  0  0  0
    6.6005   -3.8252   -1.8626 H   0  0  0  0  0  0  0  0  0  0  0  0
    5.2528   -4.6230   -0.9754 H   0  0  0  0  0  0  0  0  0  0  0  0
    4.8971   -3.1010   -1.8570 H   0  0  0  0  0  0  0  0  0  0  0  0
    4.7305   -1.6636    0.8200 H   0  0  0  0  0  0  0  0  0  0  0  0
    4.0500   -3.2836    0.5600 H   0  0  0  0  0  0  0  0  0  0  0  0
    5.2713   -2.9585    1.9108 H   0  0  0  0  0  0  0  0  0  0  0  0
  1  2  1  0
  2  3  1  0
  2 19  1  0
  3  4  1  0
  3  5  2  0
  5  6  1  0
  6  7  1  1
  6 19  1  0
  7  8  2  0
  7 18  1  0
  8  9  1  0
  9 10  2  0
 10 11  1  0
 11 12  1  0
 11 18  2  0
 12 13  2  0
 12 17  1  0
 13 14  1  0
 14 15  2  0
 15 16  1  0
 16 17  2  0
 19 20  2  0
  1 21  1  0
  1 22  1  0
  1 23  1  0
  4 24  1  0
  4 25  1  0
  5 26  1  0
  8 27  1  0
  9 28  1  0
 10 29  1  0
 13 30  1  0
 14 31  1  0
 15 32  1  0
 17 33  1  0
 18 34  1  0
 35 36  2  0
 35 37  2  0
 35 38  1  0
 38 39  1  0
 38 40  1  0
 39 41  1  0
 39 42  1  0
 39 43  1  0
 40 44  1  0
 40 45  1  0
 40 46  1  0
  6 35  1  0
M  CHG  1   5   1
M  END
>  <attachment_point>  (357) 
26

>  <score>  (357) 
<NA>

$$$$
CAT-4j
     RDKit          3D

 43 45  0  0  1  0  0  0  0  0999 V2000
   11.7106   -2.3098    1.2658 C   0  0  0  0  0  0  0  0  0  0  0  0
   13.0313   -2.6523    0.7225 N   0  0  0  0  0  0  0  0  0  0  0  0
   14.2010   -2.6281    1.3773 C   0  0  0  0  0  0  0  0  0  0  0  0
   14.3777   -2.3568    2.6732 N   0  0  0  0  0  0  0  0  0  0  0  0
   15.2217   -2.9197    0.5738 N   0  0  0  0  0  0  0  0  0  0  0  0
   14.7965   -3.2519   -0.7875 C   0  0  1  0  0  0  0  0  0  0  0  0
   15.3794   -2.2443   -1.7949 C   0  0  0  0  0  0  0  0  0  0  0  0
   15.9522   -2.6550   -3.0208 C   0  0  0  0  0  0  0  0  0  0  0  0
   16.4340   -1.6937   -3.9273 C   0  0  0  0  0  0  0  0  0  0  0  0
   16.3364   -0.3224   -3.6308 C   0  0  0  0  0  0  0  0  0  0  0  0
   15.7943    0.1250   -2.4073 C   0  0  0  0  0  0  0  0  0  0  0  0
   15.6711    1.5693   -2.0915 C   0  0  0  0  0  0  0  0  0  0  0  0
   15.3832    2.0354   -0.7903 C   0  0  0  0  0  0  0  0  0  0  0  0
   15.3534    3.4188   -0.5357 C   0  0  0  0  0  0  0  0  0  0  0  0
   15.5968    4.3049   -1.5946 C   0  0  0  0  0  0  0  0  0  0  0  0
   15.8275    3.8920   -2.8511 N   0  0  0  0  0  0  0  0  0  0  0  0
   15.8598    2.5642   -3.0762 C   0  0  0  0  0  0  0  0  0  0  0  0
   15.3327   -0.8573   -1.5012 C   0  0  0  0  0  0  0  0  0  0  0  0
   13.2767   -3.0094   -0.6368 C   0  0  0  0  0  0  0  0  0  0  0  0
   12.3981   -3.0674   -1.5055 O   0  0  0  0  0  0  0  0  0  0  0  0
    0.0000    0.0000    0.0000 H   0  0  0  0  0  0  0  0  0  0  0  0
    0.0000    0.0000    0.0000 H   0  0  0  0  0  0  0  0  0  0  0  0
    0.0000    0.0000    0.0000 H   0  0  0  0  0  0  0  0  0  0  0  0
    0.0000    0.0000    0.0000 H   0  0  0  0  0  0  0  0  0  0  0  0
    0.0000    0.0000    0.0000 H   0  0  0  0  0  0  0  0  0  0  0  0
    0.0000    0.0000    0.0000 H   0  0  0  0  0  0  0  0  0  0  0  0
    0.0000    0.0000    0.0000 H   0  0  0  0  0  0  0  0  0  0  0  0
    0.0000    0.0000    0.0000 H   0  0  0  0  0  0  0  0  0  0  0  0
    0.0000    0.0000    0.0000 H   0  0  0  0  0  0  0  0  0  0  0  0
    0.0000    0.0000    0.0000 H   0  0  0  0  0  0  0  0  0  0  0  0
    0.0000    0.0000    0.0000 H   0  0  0  0  0  0  0  0  0  0  0  0
    0.0000    0.0000    0.0000 H   0  0  0  0  0  0  0  0  0  0  0  0
    0.0000    0.0000    0.0000 H   0  0  0  0  0  0  0  0  0  0  0  0
    0.0000    0.0000    0.0000 H   0  0  0  0  0  0  0  0  0  0  0  0
    6.9711   -1.5321   -0.3710 C   0  0  0  0  0  0  0  0  0  0  0  0
    6.7445   -0.0849   -0.2641 C   0  0  0  0  0  0  0  0  0  0  0  0
    5.5570    0.3214   -0.1915 O   0  0  0  0  0  0  0  0  0  0  0  0
    7.7750    0.8968   -0.2365 N   0  0  0  0  0  0  0  0  0  0  0  0
    7.5308    2.2245   -0.1370 O   0  0  0  0  0  0  0  0  0  0  0  0
    6.5988   -1.9966    0.5750 H   0  0  0  0  0  0  0  0  0  0  0  0
    6.5307   -1.9885   -1.2755 H   0  0  0  0  0  0  0  0  0  0  0  0
    8.7578    0.5301   -0.2986 H   0  0  0  0  0  0  0  0  0  0  0  0
    7.4525    2.6625   -1.0355 H   0  0  0  0  0  0  0  0  0  0  0  0
  1  2  1  0
  2  3  1  0
  2 19  1  0
  3  4  1  0
  3  5  2  0
  5  6  1  0
  6  7  1  0
  6 19  1  0
  7  8  2  0
  7 18  1  0
  8  9  1  0
  9 10  2  0
 10 11  1  0
 11 12  1  0
 11 18  2  0
 12 13  2  0
 12 17  1  0
 13 14  1  0
 14 15  2  0
 15 16  1  0
 16 17  2  0
 19 20  2  0
  1 21  1  0
  1 22  1  0
  1 23  1  0
  4 24  1  0
  4 25  1  0
  5 26  1  0
  8 27  1  0
  9 28  1  0
 10 29  1  0
 13 30  1  0
 14 31  1  0
 15 32  1  0
 17 33  1  0
 18 34  1  0
 35 36  1  0
 36 37  2  0
 36 38  1  0
 38 39  1  0
 35 40  1  0
 35 41  1  0
 38 42  1  0
 39 43  1  0
  6 35  1  6
M  CHG  1   5   1
M  END
>  <attachment_point>  (358) 
26

>  <score>  (358) 
<NA>

$$$$
CAT-4j
     RDKit          3D

 51 54  0  0  1  0  0  0  0  0999 V2000
   11.7106   -2.3098    1.2658 C   0  0  0  0  0  0  0  0  0  0  0  0
   13.0313   -2.6523    0.7225 N   0  0  0  0  0  0  0  0  0  0  0  0
   14.2010   -2.6281    1.3773 C   0  0  0  0  0  0  0  0  0  0  0  0
   14.3777   -2.3568    2.6732 N   0  0  0  0  0  0  0  0  0  0  0  0
   15.2217   -2.9197    0.5738 N   0  0  0  0  0  0  0  0  0  0  0  0
   14.7965   -3.2519   -0.7875 C   0  0  1  0  0  0  0  0  0  0  0  0
   15.3794   -2.2443   -1.7949 C   0  0  0  0  0  0  0  0  0  0  0  0
   15.9522   -2.6550   -3.0208 C   0  0  0  0  0  0  0  0  0  0  0  0
   16.4340   -1.6937   -3.9273 C   0  0  0  0  0  0  0  0  0  0  0  0
   16.3364   -0.3224   -3.6308 C   0  0  0  0  0  0  0  0  0  0  0  0
   15.7943    0.1250   -2.4073 C   0  0  0  0  0  0  0  0  0  0  0  0
   15.6711    1.5693   -2.0915 C   0  0  0  0  0  0  0  0  0  0  0  0
   15.3832    2.0354   -0.7903 C   0  0  0  0  0  0  0  0  0  0  0  0
   15.3534    3.4188   -0.5357 C   0  0  0  0  0  0  0  0  0  0  0  0
   15.5968    4.3049   -1.5946 C   0  0  0  0  0  0  0  0  0  0  0  0
   15.8275    3.8920   -2.8511 N   0  0  0  0  0  0  0  0  0  0  0  0
   15.8598    2.5642   -3.0762 C   0  0  0  0  0  0  0  0  0  0  0  0
   15.3327   -0.8573   -1.5012 C   0  0  0  0  0  0  0  0  0  0  0  0
   13.2767   -3.0094   -0.6368 C   0  0  0  0  0  0  0  0  0  0  0  0
   12.3981   -3.0674   -1.5055 O   0  0  0  0  0  0  0  0  0  0  0  0
    0.0000    0.0000    0.0000 H   0  0  0  0  0  0  0  0  0  0  0  0
    0.0000    0.0000    0.0000 H   0  0  0  0  0  0  0  0  0  0  0  0
    0.0000    0.0000    0.0000 H   0  0  0  0  0  0  0  0  0  0  0  0
    0.0000    0.0000    0.0000 H   0  0  0  0  0  0  0  0  0  0  0  0
    0.0000    0.0000    0.0000 H   0  0  0  0  0  0  0  0  0  0  0  0
    0.0000    0.0000    0.0000 H   0  0  0  0  0  0  0  0  0  0  0  0
    0.0000    0.0000    0.0000 H   0  0  0  0  0  0  0  0  0  0  0  0
    0.0000    0.0000    0.0000 H   0  0  0  0  0  0  0  0  0  0  0  0
    0.0000    0.0000    0.0000 H   0  0  0  0  0  0  0  0  0  0  0  0
    0.0000    0.0000    0.0000 H   0  0  0  0  0  0  0  0  0  0  0  0
    0.0000    0.0000    0.0000 H   0  0  0  0  0  0  0  0  0  0  0  0
    0.0000    0.0000    0.0000 H   0  0  0  0  0  0  0  0  0  0  0  0
    0.0000    0.0000    0.0000 H   0  0  0  0  0  0  0  0  0  0  0  0
    0.0000    0.0000    0.0000 H   0  0  0  0  0  0  0  0  0  0  0  0
    6.9031   -1.5171   -0.3674 C   0  0  0  0  0  0  0  0  0  0  0  0
    6.7289   -0.4108    0.0854 O   0  0  0  0  0  0  0  0  0  0  0  0
    6.0060   -2.5127   -0.8149 C   0  0  0  0  0  0  0  0  0  0  0  0
    6.4596   -3.7254   -1.3012 C   0  0  0  0  0  0  0  0  0  0  0  0
    5.6284   -4.7332   -1.7513 C   0  0  0  0  0  0  0  0  0  0  0  0
    4.2724   -4.5222   -1.7152 C   0  0  0  0  0  0  0  0  0  0  0  0
    3.3971   -5.5035   -2.1559 O   0  0  0  0  0  0  0  0  0  0  0  0
    3.9085   -6.7325   -2.6468 C   0  0  0  0  0  0  0  0  0  0  0  0
    3.7616   -3.3332   -1.2409 C   0  0  0  0  0  0  0  0  0  0  0  0
    4.6226   -2.3552   -0.8021 C   0  0  0  0  0  0  0  0  0  0  0  0
    7.5166   -3.8916   -1.3301 H   0  0  0  0  0  0  0  0  0  0  0  0
    6.0644   -5.6646   -2.1214 H   0  0  0  0  0  0  0  0  0  0  0  0
    4.5616   -6.5448   -3.5204 H   0  0  0  0  0  0  0  0  0  0  0  0
    3.1139   -7.4037   -2.9668 H   0  0  0  0  0  0  0  0  0  0  0  0
    4.5211   -7.1717   -1.8274 H   0  0  0  0  0  0  0  0  0  0  0  0
    2.7047   -3.1131   -1.1897 H   0  0  0  0  0  0  0  0  0  0  0  0
    4.2827   -1.3959   -0.4167 H   0  0  0  0  0  0  0  0  0  0  0  0
  1  2  1  0
  2  3  1  0
  2 19  1  0
  3  4  1  0
  3  5  2  0
  5  6  1  0
  6  7  1  0
  6 19  1  0
  7  8  2  0
  7 18  1  0
  8  9  1  0
  9 10  2  0
 10 11  1  0
 11 12  1  0
 11 18  2  0
 12 13  2  0
 12 17  1  0
 13 14  1  0
 14 15  2  0
 15 16  1  0
 16 17  2  0
 19 20  2  0
  1 21  1  0
  1 22  1  0
  1 23  1  0
  4 24  1  0
  4 25  1  0
  5 26  1  0
  8 27  1  0
  9 28  1  0
 10 29  1  0
 13 30  1  0
 14 31  1  0
 15 32  1  0
 17 33  1  0
 18 34  1  0
 35 36  2  0
 35 37  1  0
 37 38  2  0
 38 39  1  0
 39 40  2  0
 40 41  1  0
 41 42  1  0
 40 43  1  0
 43 44  2  0
 44 37  1  0
 38 45  1  0
 39 46  1  0
 42 47  1  0
 42 48  1  0
 42 49  1  0
 43 50  1  0
 44 51  1  0
  6 35  1  6
M  CHG  1   5   1
M  END
>  <attachment_point>  (359) 
26

>  <score>  (359) 
<NA>

$$$$
CAT-4j
     RDKit          3D

 41 44  0  0  1  0  0  0  0  0999 V2000
   11.7106   -2.3098    1.2658 C   0  0  0  0  0  0  0  0  0  0  0  0
   13.0313   -2.6523    0.7225 N   0  0  0  0  0  0  0  0  0  0  0  0
   14.2010   -2.6281    1.3773 C   0  0  0  0  0  0  0  0  0  0  0  0
   14.3777   -2.3568    2.6732 N   0  0  0  0  0  0  0  0  0  0  0  0
   15.2217   -2.9197    0.5738 N   0  0  0  0  0  0  0  0  0  0  0  0
   14.7965   -3.2519   -0.7875 C   0  0  1  0  0  0  0  0  0  0  0  0
   15.3794   -2.2443   -1.7949 C   0  0  0  0  0  0  0  0  0  0  0  0
   15.9522   -2.6550   -3.0208 C   0  0  0  0  0  0  0  0  0  0  0  0
   16.4340   -1.6937   -3.9273 C   0  0  0  0  0  0  0  0  0  0  0  0
   16.3364   -0.3224   -3.6308 C   0  0  0  0  0  0  0  0  0  0  0  0
   15.7943    0.1250   -2.4073 C   0  0  0  0  0  0  0  0  0  0  0  0
   15.6711    1.5693   -2.0915 C   0  0  0  0  0  0  0  0  0  0  0  0
   15.3832    2.0354   -0.7903 C   0  0  0  0  0  0  0  0  0  0  0  0
   15.3534    3.4188   -0.5357 C   0  0  0  0  0  0  0  0  0  0  0  0
   15.5968    4.3049   -1.5946 C   0  0  0  0  0  0  0  0  0  0  0  0
   15.8275    3.8920   -2.8511 N   0  0  0  0  0  0  0  0  0  0  0  0
   15.8598    2.5642   -3.0762 C   0  0  0  0  0  0  0  0  0  0  0  0
   15.3327   -0.8573   -1.5012 C   0  0  0  0  0  0  0  0  0  0  0  0
   13.2767   -3.0094   -0.6368 C   0  0  0  0  0  0  0  0  0  0  0  0
   12.3981   -3.0674   -1.5055 O   0  0  0  0  0  0  0  0  0  0  0  0
    0.0000    0.0000    0.0000 H   0  0  0  0  0  0  0  0  0  0  0  0
    0.0000    0.0000    0.0000 H   0  0  0  0  0  0  0  0  0  0  0  0
    0.0000    0.0000    0.0000 H   0  0  0  0  0  0  0  0  0  0  0  0
    0.0000    0.0000    0.0000 H   0  0  0  0  0  0  0  0  0  0  0  0
    0.0000    0.0000    0.0000 H   0  0  0  0  0  0  0  0  0  0  0  0
    0.0000    0.0000    0.0000 H   0  0  0  0  0  0  0  0  0  0  0  0
    0.0000    0.0000    0.0000 H   0  0  0  0  0  0  0  0  0  0  0  0
    0.0000    0.0000    0.0000 H   0  0  0  0  0  0  0  0  0  0  0  0
    0.0000    0.0000    0.0000 H   0  0  0  0  0  0  0  0  0  0  0  0
    0.0000    0.0000    0.0000 H   0  0  0  0  0  0  0  0  0  0  0  0
    0.0000    0.0000    0.0000 H   0  0  0  0  0  0  0  0  0  0  0  0
    0.0000    0.0000    0.0000 H   0  0  0  0  0  0  0  0  0  0  0  0
    0.0000    0.0000    0.0000 H   0  0  0  0  0  0  0  0  0  0  0  0
    0.0000    0.0000    0.0000 H   0  0  0  0  0  0  0  0  0  0  0  0
    6.9732   -1.5325   -0.3711 N   0  0  0  0  0  0  0  0  0  0  0  0
    6.2071   -1.5355    0.7126 C   0  0  0  0  0  0  0  0  0  0  0  0
    4.9697   -1.1764    0.2476 N   0  0  0  0  0  0  0  0  0  0  0  0
    5.0181   -0.9709   -1.0707 C   0  0  0  0  0  0  0  0  0  0  0  0
    6.2901   -1.2005   -1.4424 N   0  0  0  0  0  0  0  0  0  0  0  0
    6.4470   -1.7587    1.7383 H   0  0  0  0  0  0  0  0  0  0  0  0
    4.2352   -0.6851   -1.7218 H   0  0  0  0  0  0  0  0  0  0  0  0
  1  2  1  0
  2  3  1  0
  2 19  1  0
  3  4  1  0
  3  5  2  0
  5  6  1  0
  6  7  1  0
  6 19  1  0
  7  8  2  0
  7 18  1  0
  8  9  1  0
  9 10  2  0
 10 11  1  0
 11 12  1  0
 11 18  2  0
 12 13  2  0
 12 17  1  0
 13 14  1  0
 14 15  2  0
 15 16  1  0
 16 17  2  0
 19 20  2  0
  1 21  1  0
  1 22  1  0
  1 23  1  0
  4 24  1  0
  4 25  1  0
  5 26  1  0
  8 27  1  0
  9 28  1  0
 10 29  1  0
 13 30  1  0
 14 31  1  0
 15 32  1  0
 17 33  1  0
 18 34  1  0
 35 36  1  0
 36 37  2  0
 37 38  1  0
 38 39  2  0
 39 35  1  0
 36 40  1  0
 38 41  1  0
  6 35  1  6
M  CHG  1   5   1
M  END
>  <attachment_point>  (360) 
26

>  <score>  (360) 
<NA>

$$$$
CAT-4j
     RDKit          3D

 42 44  0  0  1  0  0  0  0  0999 V2000
   11.7106   -2.3098    1.2658 C   0  0  0  0  0  0  0  0  0  0  0  0
   13.0313   -2.6523    0.7225 N   0  0  0  0  0  0  0  0  0  0  0  0
   14.2010   -2.6281    1.3773 C   0  0  0  0  0  0  0  0  0  0  0  0
   14.3777   -2.3568    2.6732 N   0  0  0  0  0  0  0  0  0  0  0  0
   15.2217   -2.9197    0.5738 N   0  0  0  0  0  0  0  0  0  0  0  0
   14.7965   -3.2519   -0.7875 C   0  0  1  0  0  0  0  0  0  0  0  0
   15.3794   -2.2443   -1.7949 C   0  0  0  0  0  0  0  0  0  0  0  0
   15.9522   -2.6550   -3.0208 C   0  0  0  0  0  0  0  0  0  0  0  0
   16.4340   -1.6937   -3.9273 C   0  0  0  0  0  0  0  0  0  0  0  0
   16.3364   -0.3224   -3.6308 C   0  0  0  0  0  0  0  0  0  0  0  0
   15.7943    0.1250   -2.4073 C   0  0  0  0  0  0  0  0  0  0  0  0
   15.6711    1.5693   -2.0915 C   0  0  0  0  0  0  0  0  0  0  0  0
   15.3832    2.0354   -0.7903 C   0  0  0  0  0  0  0  0  0  0  0  0
   15.3534    3.4188   -0.5357 C   0  0  0  0  0  0  0  0  0  0  0  0
   15.5968    4.3049   -1.5946 C   0  0  0  0  0  0  0  0  0  0  0  0
   15.8275    3.8920   -2.8511 N   0  0  0  0  0  0  0  0  0  0  0  0
   15.8598    2.5642   -3.0762 C   0  0  0  0  0  0  0  0  0  0  0  0
   15.3327   -0.8573   -1.5012 C   0  0  0  0  0  0  0  0  0  0  0  0
   13.2767   -3.0094   -0.6368 C   0  0  0  0  0  0  0  0  0  0  0  0
   12.3981   -3.0674   -1.5055 O   0  0  0  0  0  0  0  0  0  0  0  0
    0.0000    0.0000    0.0000 H   0  0  0  0  0  0  0  0  0  0  0  0
    0.0000    0.0000    0.0000 H   0  0  0  0  0  0  0  0  0  0  0  0
    0.0000    0.0000    0.0000 H   0  0  0  0  0  0  0  0  0  0  0  0
    0.0000    0.0000    0.0000 H   0  0  0  0  0  0  0  0  0  0  0  0
    0.0000    0.0000    0.0000 H   0  0  0  0  0  0  0  0  0  0  0  0
    0.0000    0.0000    0.0000 H   0  0  0  0  0  0  0  0  0  0  0  0
    0.0000    0.0000    0.0000 H   0  0  0  0  0  0  0  0  0  0  0  0
    0.0000    0.0000    0.0000 H   0  0  0  0  0  0  0  0  0  0  0  0
    0.0000    0.0000    0.0000 H   0  0  0  0  0  0  0  0  0  0  0  0
    0.0000    0.0000    0.0000 H   0  0  0  0  0  0  0  0  0  0  0  0
    0.0000    0.0000    0.0000 H   0  0  0  0  0  0  0  0  0  0  0  0
    0.0000    0.0000    0.0000 H   0  0  0  0  0  0  0  0  0  0  0  0
    0.0000    0.0000    0.0000 H   0  0  0  0  0  0  0  0  0  0  0  0
    0.0000    0.0000    0.0000 H   0  0  0  0  0  0  0  0  0  0  0  0
    6.9939   -1.5371   -0.3722 O   0  0  0  0  0  0  0  0  0  0  0  0
    6.3915   -2.6582    0.2202 C   0  0  0  0  0  0  0  0  0  0  0  0
    4.9033   -2.3329    0.2972 C   0  0  0  0  0  0  0  0  0  0  0  0
    4.8010   -1.1894    1.0787 F   0  0  0  0  0  0  0  0  0  0  0  0
    6.5370   -3.5236   -0.4346 H   0  0  0  0  0  0  0  0  0  0  0  0
    6.8165   -2.8513    1.2279 H   0  0  0  0  0  0  0  0  0  0  0  0
    4.3819   -3.1692    0.7752 H   0  0  0  0  0  0  0  0  0  0  0  0
    4.5544   -2.1561   -0.7314 H   0  0  0  0  0  0  0  0  0  0  0  0
  1  2  1  0
  2  3  1  0
  2 19  1  0
  3  4  1  0
  3  5  2  0
  5  6  1  0
  6  7  1  0
  6 19  1  0
  7  8  2  0
  7 18  1  0
  8  9  1  0
  9 10  2  0
 10 11  1  0
 11 12  1  0
 11 18  2  0
 12 13  2  0
 12 17  1  0
 13 14  1  0
 14 15  2  0
 15 16  1  0
 16 17  2  0
 19 20  2  0
  1 21  1  0
  1 22  1  0
  1 23  1  0
  4 24  1  0
  4 25  1  0
  5 26  1  0
  8 27  1  0
  9 28  1  0
 10 29  1  0
 13 30  1  0
 14 31  1  0
 15 32  1  0
 17 33  1  0
 18 34  1  0
 35 36  1  0
 36 37  1  0
 37 38  1  0
 36 39  1  0
 36 40  1  0
 37 41  1  0
 37 42  1  0
  6 35  1  6
M  CHG  1   5   1
M  END
>  <attachment_point>  (361) 
26

>  <score>  (361) 
<NA>

$$$$
CAT-4j
     RDKit          3D

 51 54  0  0  1  0  0  0  0  0999 V2000
   11.7106   -2.3098    1.2658 C   0  0  0  0  0  0  0  0  0  0  0  0
   13.0313   -2.6523    0.7225 N   0  0  0  0  0  0  0  0  0  0  0  0
   14.2010   -2.6281    1.3773 C   0  0  0  0  0  0  0  0  0  0  0  0
   14.3777   -2.3568    2.6732 N   0  0  0  0  0  0  0  0  0  0  0  0
   15.2217   -2.9197    0.5738 N   0  0  0  0  0  0  0  0  0  0  0  0
   14.7965   -3.2519   -0.7875 C   0  0  1  0  0  0  0  0  0  0  0  0
   15.3794   -2.2443   -1.7949 C   0  0  0  0  0  0  0  0  0  0  0  0
   15.9522   -2.6550   -3.0208 C   0  0  0  0  0  0  0  0  0  0  0  0
   16.4340   -1.6937   -3.9273 C   0  0  0  0  0  0  0  0  0  0  0  0
   16.3364   -0.3224   -3.6308 C   0  0  0  0  0  0  0  0  0  0  0  0
   15.7943    0.1250   -2.4073 C   0  0  0  0  0  0  0  0  0  0  0  0
   15.6711    1.5693   -2.0915 C   0  0  0  0  0  0  0  0  0  0  0  0
   15.3832    2.0354   -0.7903 C   0  0  0  0  0  0  0  0  0  0  0  0
   15.3534    3.4188   -0.5357 C   0  0  0  0  0  0  0  0  0  0  0  0
   15.5968    4.3049   -1.5946 C   0  0  0  0  0  0  0  0  0  0  0  0
   15.8275    3.8920   -2.8511 N   0  0  0  0  0  0  0  0  0  0  0  0
   15.8598    2.5642   -3.0762 C   0  0  0  0  0  0  0  0  0  0  0  0
   15.3327   -0.8573   -1.5012 C   0  0  0  0  0  0  0  0  0  0  0  0
   13.2767   -3.0094   -0.6368 C   0  0  0  0  0  0  0  0  0  0  0  0
   12.3981   -3.0674   -1.5055 O   0  0  0  0  0  0  0  0  0  0  0  0
    0.0000    0.0000    0.0000 H   0  0  0  0  0  0  0  0  0  0  0  0
    0.0000    0.0000    0.0000 H   0  0  0  0  0  0  0  0  0  0  0  0
    0.0000    0.0000    0.0000 H   0  0  0  0  0  0  0  0  0  0  0  0
    0.0000    0.0000    0.0000 H   0  0  0  0  0  0  0  0  0  0  0  0
    0.0000    0.0000    0.0000 H   0  0  0  0  0  0  0  0  0  0  0  0
    0.0000    0.0000    0.0000 H   0  0  0  0  0  0  0  0  0  0  0  0
    0.0000    0.0000    0.0000 H   0  0  0  0  0  0  0  0  0  0  0  0
    0.0000    0.0000    0.0000 H   0  0  0  0  0  0  0  0  0  0  0  0
    0.0000    0.0000    0.0000 H   0  0  0  0  0  0  0  0  0  0  0  0
    0.0000    0.0000    0.0000 H   0  0  0  0  0  0  0  0  0  0  0  0
    0.0000    0.0000    0.0000 H   0  0  0  0  0  0  0  0  0  0  0  0
    0.0000    0.0000    0.0000 H   0  0  0  0  0  0  0  0  0  0  0  0
    0.0000    0.0000    0.0000 H   0  0  0  0  0  0  0  0  0  0  0  0
    0.0000    0.0000    0.0000 H   0  0  0  0  0  0  0  0  0  0  0  0
    6.9887   -1.5359   -0.3720 N   0  0  0  0  0  0  0  0  0  0  0  0
    6.4078   -1.1761   -1.6043 C   0  0  0  0  0  0  0  0  0  0  0  0
    6.3928    0.1498   -1.9858 C   0  0  0  0  0  0  0  0  0  0  0  0
    5.8328    0.5358   -3.1841 C   0  0  0  0  0  0  0  0  0  0  0  0
    5.2932   -0.4567   -3.9760 C   0  0  0  0  0  0  0  0  0  0  0  0
    5.3119   -1.7793   -3.5880 C   0  0  0  0  0  0  0  0  0  0  0  0
    5.8712   -2.1839   -2.3862 C   0  0  0  0  0  0  0  0  0  0  0  0
    5.8917   -3.5794   -1.9755 C   0  0  0  0  0  0  0  0  0  0  0  0
    5.3490   -4.6129   -2.7624 N   0  0  0  0  0  0  0  0  0  0  0  0
    6.4173   -3.8566   -0.8734 O   0  0  0  0  0  0  0  0  0  0  0  0
    6.4624   -1.5786    0.5176 H   0  0  0  0  0  0  0  0  0  0  0  0
    6.8160    0.9329   -1.3660 H   0  0  0  0  0  0  0  0  0  0  0  0
    5.8077    1.5755   -3.5092 H   0  0  0  0  0  0  0  0  0  0  0  0
    4.8496   -0.1619   -4.9222 H   0  0  0  0  0  0  0  0  0  0  0  0
    4.8823   -2.5450   -4.2253 H   0  0  0  0  0  0  0  0  0  0  0  0
    4.3192   -4.7157   -2.8801 H   0  0  0  0  0  0  0  0  0  0  0  0
    5.9421   -5.3138   -3.2573 H   0  0  0  0  0  0  0  0  0  0  0  0
  1  2  1  0
  2  3  1  0
  2 19  1  0
  3  4  1  0
  3  5  2  0
  5  6  1  0
  6  7  1  0
  6 19  1  0
  7  8  2  0
  7 18  1  0
  8  9  1  0
  9 10  2  0
 10 11  1  0
 11 12  1  0
 11 18  2  0
 12 13  2  0
 12 17  1  0
 13 14  1  0
 14 15  2  0
 15 16  1  0
 16 17  2  0
 19 20  2  0
  1 21  1  0
  1 22  1  0
  1 23  1  0
  4 24  1  0
  4 25  1  0
  5 26  1  0
  8 27  1  0
  9 28  1  0
 10 29  1  0
 13 30  1  0
 14 31  1  0
 15 32  1  0
 17 33  1  0
 18 34  1  0
 35 36  1  0
 36 37  2  0
 37 38  1  0
 38 39  2  0
 39 40  1  0
 40 41  2  0
 41 42  1  0
 42 43  1  0
 42 44  2  0
 41 36  1  0
 35 45  1  0
 37 46  1  0
 38 47  1  0
 39 48  1  0
 40 49  1  0
 43 50  1  0
 43 51  1  0
  6 35  1  6
M  CHG  1   5   1
M  END
>  <attachment_point>  (362) 
26

>  <score>  (362) 
<NA>

$$$$
CAT-4j
     RDKit          3D

 46 48  0  0  1  0  0  0  0  0999 V2000
   11.7106   -2.3098    1.2658 C   0  0  0  0  0  0  0  0  0  0  0  0
   13.0313   -2.6523    0.7225 N   0  0  0  0  0  0  0  0  0  0  0  0
   14.2010   -2.6281    1.3773 C   0  0  0  0  0  0  0  0  0  0  0  0
   14.3777   -2.3568    2.6732 N   0  0  0  0  0  0  0  0  0  0  0  0
   15.2217   -2.9197    0.5738 N   0  0  0  0  0  0  0  0  0  0  0  0
   14.7965   -3.2519   -0.7875 C   0  0  1  0  0  0  0  0  0  0  0  0
   15.3794   -2.2443   -1.7949 C   0  0  0  0  0  0  0  0  0  0  0  0
   15.9522   -2.6550   -3.0208 C   0  0  0  0  0  0  0  0  0  0  0  0
   16.4340   -1.6937   -3.9273 C   0  0  0  0  0  0  0  0  0  0  0  0
   16.3364   -0.3224   -3.6308 C   0  0  0  0  0  0  0  0  0  0  0  0
   15.7943    0.1250   -2.4073 C   0  0  0  0  0  0  0  0  0  0  0  0
   15.6711    1.5693   -2.0915 C   0  0  0  0  0  0  0  0  0  0  0  0
   15.3832    2.0354   -0.7903 C   0  0  0  0  0  0  0  0  0  0  0  0
   15.3534    3.4188   -0.5357 C   0  0  0  0  0  0  0  0  0  0  0  0
   15.5968    4.3049   -1.5946 C   0  0  0  0  0  0  0  0  0  0  0  0
   15.8275    3.8920   -2.8511 N   0  0  0  0  0  0  0  0  0  0  0  0
   15.8598    2.5642   -3.0762 C   0  0  0  0  0  0  0  0  0  0  0  0
   15.3327   -0.8573   -1.5012 C   0  0  0  0  0  0  0  0  0  0  0  0
   13.2767   -3.0094   -0.6368 C   0  0  0  0  0  0  0  0  0  0  0  0
   12.3981   -3.0674   -1.5055 O   0  0  0  0  0  0  0  0  0  0  0  0
    0.0000    0.0000    0.0000 H   0  0  0  0  0  0  0  0  0  0  0  0
    0.0000    0.0000    0.0000 H   0  0  0  0  0  0  0  0  0  0  0  0
    0.0000    0.0000    0.0000 H   0  0  0  0  0  0  0  0  0  0  0  0
    0.0000    0.0000    0.0000 H   0  0  0  0  0  0  0  0  0  0  0  0
    0.0000    0.0000    0.0000 H   0  0  0  0  0  0  0  0  0  0  0  0
    0.0000    0.0000    0.0000 H   0  0  0  0  0  0  0  0  0  0  0  0
    0.0000    0.0000    0.0000 H   0  0  0  0  0  0  0  0  0  0  0  0
    0.0000    0.0000    0.0000 H   0  0  0  0  0  0  0  0  0  0  0  0
    0.0000    0.0000    0.0000 H   0  0  0  0  0  0  0  0  0  0  0  0
    0.0000    0.0000    0.0000 H   0  0  0  0  0  0  0  0  0  0  0  0
    0.0000    0.0000    0.0000 H   0  0  0  0  0  0  0  0  0  0  0  0
    0.0000    0.0000    0.0000 H   0  0  0  0  0  0  0  0  0  0  0  0
    0.0000    0.0000    0.0000 H   0  0  0  0  0  0  0  0  0  0  0  0
    0.0000    0.0000    0.0000 H   0  0  0  0  0  0  0  0  0  0  0  0
    6.9553   -1.5286   -0.3702 C   0  0  0  0  0  0  0  0  0  0  0  0
    6.5449   -1.7190    1.0779 C   0  0  0  0  0  0  0  0  0  0  0  0
    5.1207   -1.4335    1.2918 C   0  0  0  0  0  0  0  0  0  0  0  0
    4.3852   -1.0762    0.3328 O   0  0  0  0  0  0  0  0  0  0  0  0
    4.5194   -1.5453    2.5664 N   0  0  0  0  0  0  0  0  0  0  0  0
    3.2077   -1.2842    2.7725 O   0  0  0  0  0  0  0  0  0  0  0  0
    6.5045   -2.2567   -1.0502 H   0  0  0  0  0  0  0  0  0  0  0  0
    6.8249   -0.4742   -0.6914 H   0  0  0  0  0  0  0  0  0  0  0  0
    6.8137   -2.7465    1.3954 H   0  0  0  0  0  0  0  0  0  0  0  0
    7.2005   -1.0268    1.6693 H   0  0  0  0  0  0  0  0  0  0  0  0
    5.1607   -1.8474    3.3543 H   0  0  0  0  0  0  0  0  0  0  0  0
    3.0933   -0.3169    2.5068 H   0  0  0  0  0  0  0  0  0  0  0  0
  1  2  1  0
  2  3  1  0
  2 19  1  0
  3  4  1  0
  3  5  2  0
  5  6  1  0
  6  7  1  0
  6 19  1  0
  7  8  2  0
  7 18  1  0
  8  9  1  0
  9 10  2  0
 10 11  1  0
 11 12  1  0
 11 18  2  0
 12 13  2  0
 12 17  1  0
 13 14  1  0
 14 15  2  0
 15 16  1  0
 16 17  2  0
 19 20  2  0
  1 21  1  0
  1 22  1  0
  1 23  1  0
  4 24  1  0
  4 25  1  0
  5 26  1  0
  8 27  1  0
  9 28  1  0
 10 29  1  0
 13 30  1  0
 14 31  1  0
 15 32  1  0
 17 33  1  0
 18 34  1  0
 35 36  1  0
 36 37  1  0
 37 38  2  0
 37 39  1  0
 39 40  1  0
 35 41  1  0
 35 42  1  0
 36 43  1  0
 36 44  1  0
 39 45  1  0
 40 46  1  0
  6 35  1  6
M  CHG  1   5   1
M  END
>  <attachment_point>  (363) 
26

>  <score>  (363) 
<NA>

$$$$
CAT-4j
     RDKit          3D

 41 43  0  0  1  0  0  0  0  0999 V2000
   11.7106   -2.3098    1.2658 C   0  0  0  0  0  0  0  0  0  0  0  0
   13.0313   -2.6523    0.7225 N   0  0  0  0  0  0  0  0  0  0  0  0
   14.2010   -2.6281    1.3773 C   0  0  0  0  0  0  0  0  0  0  0  0
   14.3777   -2.3568    2.6732 N   0  0  0  0  0  0  0  0  0  0  0  0
   15.2217   -2.9197    0.5738 N   0  0  0  0  0  0  0  0  0  0  0  0
   14.7965   -3.2519   -0.7875 C   0  0  1  0  0  0  0  0  0  0  0  0
   15.3794   -2.2443   -1.7949 C   0  0  0  0  0  0  0  0  0  0  0  0
   15.9522   -2.6550   -3.0208 C   0  0  0  0  0  0  0  0  0  0  0  0
   16.4340   -1.6937   -3.9273 C   0  0  0  0  0  0  0  0  0  0  0  0
   16.3364   -0.3224   -3.6308 C   0  0  0  0  0  0  0  0  0  0  0  0
   15.7943    0.1250   -2.4073 C   0  0  0  0  0  0  0  0  0  0  0  0
   15.6711    1.5693   -2.0915 C   0  0  0  0  0  0  0  0  0  0  0  0
   15.3832    2.0354   -0.7903 C   0  0  0  0  0  0  0  0  0  0  0  0
   15.3534    3.4188   -0.5357 C   0  0  0  0  0  0  0  0  0  0  0  0
   15.5968    4.3049   -1.5946 C   0  0  0  0  0  0  0  0  0  0  0  0
   15.8275    3.8920   -2.8511 N   0  0  0  0  0  0  0  0  0  0  0  0
   15.8598    2.5642   -3.0762 C   0  0  0  0  0  0  0  0  0  0  0  0
   15.3327   -0.8573   -1.5012 C   0  0  0  0  0  0  0  0  0  0  0  0
   13.2767   -3.0094   -0.6368 C   0  0  0  0  0  0  0  0  0  0  0  0
   12.3981   -3.0674   -1.5055 O   0  0  0  0  0  0  0  0  0  0  0  0
    0.0000    0.0000    0.0000 H   0  0  0  0  0  0  0  0  0  0  0  0
    0.0000    0.0000    0.0000 H   0  0  0  0  0  0  0  0  0  0  0  0
    0.0000    0.0000    0.0000 H   0  0  0  0  0  0  0  0  0  0  0  0
    0.0000    0.0000    0.0000 H   0  0  0  0  0  0  0  0  0  0  0  0
    0.0000    0.0000    0.0000 H   0  0  0  0  0  0  0  0  0  0  0  0
    0.0000    0.0000    0.0000 H   0  0  0  0  0  0  0  0  0  0  0  0
    0.0000    0.0000    0.0000 H   0  0  0  0  0  0  0  0  0  0  0  0
    0.0000    0.0000    0.0000 H   0  0  0  0  0  0  0  0  0  0  0  0
    0.0000    0.0000    0.0000 H   0  0  0  0  0  0  0  0  0  0  0  0
    0.0000    0.0000    0.0000 H   0  0  0  0  0  0  0  0  0  0  0  0
    0.0000    0.0000    0.0000 H   0  0  0  0  0  0  0  0  0  0  0  0
    0.0000    0.0000    0.0000 H   0  0  0  0  0  0  0  0  0  0  0  0
    0.0000    0.0000    0.0000 H   0  0  0  0  0  0  0  0  0  0  0  0
    0.0000    0.0000    0.0000 H   0  0  0  0  0  0  0  0  0  0  0  0
    7.1138   -1.5634   -0.3786 O   0  0  0  0  0  0  0  0  0  0  0  0
    6.6680   -0.2475   -0.2017 C   0  0  0  0  0  0  0  0  0  0  0  0
    5.1965   -0.2837   -0.1672 C   0  0  0  0  0  0  0  0  0  0  0  0
    3.9850   -0.3053   -0.1251 C   0  0  0  0  0  0  0  0  0  0  0  0
    7.0305    0.4092   -1.0312 H   0  0  0  0  0  0  0  0  0  0  0  0
    7.0280    0.1010    0.7719 H   0  0  0  0  0  0  0  0  0  0  0  0
    2.9265   -0.3057   -0.0902 H   0  0  0  0  0  0  0  0  0  0  0  0
  1  2  1  0
  2  3  1  0
  2 19  1  0
  3  4  1  0
  3  5  2  0
  5  6  1  0
  6  7  1  0
  6 19  1  0
  7  8  2  0
  7 18  1  0
  8  9  1  0
  9 10  2  0
 10 11  1  0
 11 12  1  0
 11 18  2  0
 12 13  2  0
 12 17  1  0
 13 14  1  0
 14 15  2  0
 15 16  1  0
 16 17  2  0
 19 20  2  0
  1 21  1  0
  1 22  1  0
  1 23  1  0
  4 24  1  0
  4 25  1  0
  5 26  1  0
  8 27  1  0
  9 28  1  0
 10 29  1  0
 13 30  1  0
 14 31  1  0
 15 32  1  0
 17 33  1  0
 18 34  1  0
 35 36  1  0
 36 37  1  0
 37 38  3  0
 36 39  1  0
 36 40  1  0
 38 41  1  0
  6 35  1  6
M  CHG  1   5   1
M  END
>  <attachment_point>  (364) 
26

>  <score>  (364) 
<NA>

$$$$
CAT-4j
     RDKit          3D

 40 43  0  0  1  0  0  0  0  0999 V2000
   11.7106   -2.3098    1.2658 C   0  0  0  0  0  0  0  0  0  0  0  0
   13.0313   -2.6523    0.7225 N   0  0  0  0  0  0  0  0  0  0  0  0
   14.2010   -2.6281    1.3773 C   0  0  0  0  0  0  0  0  0  0  0  0
   14.3777   -2.3568    2.6732 N   0  0  0  0  0  0  0  0  0  0  0  0
   15.2217   -2.9197    0.5738 N   0  0  0  0  0  0  0  0  0  0  0  0
   14.7965   -3.2519   -0.7875 C   0  0  1  0  0  0  0  0  0  0  0  0
   15.3794   -2.2443   -1.7949 C   0  0  0  0  0  0  0  0  0  0  0  0
   15.9522   -2.6550   -3.0208 C   0  0  0  0  0  0  0  0  0  0  0  0
   16.4340   -1.6937   -3.9273 C   0  0  0  0  0  0  0  0  0  0  0  0
   16.3364   -0.3224   -3.6308 C   0  0  0  0  0  0  0  0  0  0  0  0
   15.7943    0.1250   -2.4073 C   0  0  0  0  0  0  0  0  0  0  0  0
   15.6711    1.5693   -2.0915 C   0  0  0  0  0  0  0  0  0  0  0  0
   15.3832    2.0354   -0.7903 C   0  0  0  0  0  0  0  0  0  0  0  0
   15.3534    3.4188   -0.5357 C   0  0  0  0  0  0  0  0  0  0  0  0
   15.5968    4.3049   -1.5946 C   0  0  0  0  0  0  0  0  0  0  0  0
   15.8275    3.8920   -2.8511 N   0  0  0  0  0  0  0  0  0  0  0  0
   15.8598    2.5642   -3.0762 C   0  0  0  0  0  0  0  0  0  0  0  0
   15.3327   -0.8573   -1.5012 C   0  0  0  0  0  0  0  0  0  0  0  0
   13.2767   -3.0094   -0.6368 C   0  0  0  0  0  0  0  0  0  0  0  0
   12.3981   -3.0674   -1.5055 O   0  0  0  0  0  0  0  0  0  0  0  0
    0.0000    0.0000    0.0000 H   0  0  0  0  0  0  0  0  0  0  0  0
    0.0000    0.0000    0.0000 H   0  0  0  0  0  0  0  0  0  0  0  0
    0.0000    0.0000    0.0000 H   0  0  0  0  0  0  0  0  0  0  0  0
    0.0000    0.0000    0.0000 H   0  0  0  0  0  0  0  0  0  0  0  0
    0.0000    0.0000    0.0000 H   0  0  0  0  0  0  0  0  0  0  0  0
    0.0000    0.0000    0.0000 H   0  0  0  0  0  0  0  0  0  0  0  0
    0.0000    0.0000    0.0000 H   0  0  0  0  0  0  0  0  0  0  0  0
    0.0000    0.0000    0.0000 H   0  0  0  0  0  0  0  0  0  0  0  0
    0.0000    0.0000    0.0000 H   0  0  0  0  0  0  0  0  0  0  0  0
    0.0000    0.0000    0.0000 H   0  0  0  0  0  0  0  0  0  0  0  0
    0.0000    0.0000    0.0000 H   0  0  0  0  0  0  0  0  0  0  0  0
    0.0000    0.0000    0.0000 H   0  0  0  0  0  0  0  0  0  0  0  0
    0.0000    0.0000    0.0000 H   0  0  0  0  0  0  0  0  0  0  0  0
    0.0000    0.0000    0.0000 H   0  0  0  0  0  0  0  0  0  0  0  0
    6.9649   -1.5307   -0.3707 C   0  0  0  0  0  0  0  0  0  0  0  0
    5.9943   -2.4275   -0.5338 N   0  0  0  0  0  0  0  0  0  0  0  0
    4.8535   -1.7704   -0.3945 N   0  0  0  0  0  0  0  0  0  0  0  0
    5.0793   -0.4911   -0.1494 N   0  0  0  0  0  0  0  0  0  0  0  0
    6.3923   -0.3520   -0.1365 N   0  0  0  0  0  0  0  0  0  0  0  0
    4.3783    0.2643    0.0042 H   0  0  0  0  0  0  0  0  0  0  0  0
  1  2  1  0
  2  3  1  0
  2 19  1  0
  3  4  1  0
  3  5  2  0
  5  6  1  0
  6  7  1  1
  6 19  1  0
  7  8  2  0
  7 18  1  0
  8  9  1  0
  9 10  2  0
 10 11  1  0
 11 12  1  0
 11 18  2  0
 12 13  2  0
 12 17  1  0
 13 14  1  0
 14 15  2  0
 15 16  1  0
 16 17  2  0
 19 20  2  0
  1 21  1  0
  1 22  1  0
  1 23  1  0
  4 24  1  0
  4 25  1  0
  5 26  1  0
  8 27  1  0
  9 28  1  0
 10 29  1  0
 13 30  1  0
 14 31  1  0
 15 32  1  0
 17 33  1  0
 18 34  1  0
 35 36  1  0
 36 37  2  0
 37 38  1  0
 38 39  1  0
 39 35  2  0
 38 40  1  0
  6 35  1  0
M  CHG  1   5   1
M  END
>  <attachment_point>  (365) 
26

>  <score>  (365) 
<NA>

$$$$
CAT-4j
     RDKit          3D

 54 57  0  0  1  0  0  0  0  0999 V2000
   11.7106   -2.3098    1.2658 C   0  0  0  0  0  0  0  0  0  0  0  0
   13.0313   -2.6523    0.7225 N   0  0  0  0  0  0  0  0  0  0  0  0
   14.2010   -2.6281    1.3773 C   0  0  0  0  0  0  0  0  0  0  0  0
   14.3777   -2.3568    2.6732 N   0  0  0  0  0  0  0  0  0  0  0  0
   15.2217   -2.9197    0.5738 N   0  0  0  0  0  0  0  0  0  0  0  0
   14.7965   -3.2519   -0.7875 C   0  0  1  0  0  0  0  0  0  0  0  0
   15.3794   -2.2443   -1.7949 C   0  0  0  0  0  0  0  0  0  0  0  0
   15.9522   -2.6550   -3.0208 C   0  0  0  0  0  0  0  0  0  0  0  0
   16.4340   -1.6937   -3.9273 C   0  0  0  0  0  0  0  0  0  0  0  0
   16.3364   -0.3224   -3.6308 C   0  0  0  0  0  0  0  0  0  0  0  0
   15.7943    0.1250   -2.4073 C   0  0  0  0  0  0  0  0  0  0  0  0
   15.6711    1.5693   -2.0915 C   0  0  0  0  0  0  0  0  0  0  0  0
   15.3832    2.0354   -0.7903 C   0  0  0  0  0  0  0  0  0  0  0  0
   15.3534    3.4188   -0.5357 C   0  0  0  0  0  0  0  0  0  0  0  0
   15.5968    4.3049   -1.5946 C   0  0  0  0  0  0  0  0  0  0  0  0
   15.8275    3.8920   -2.8511 N   0  0  0  0  0  0  0  0  0  0  0  0
   15.8598    2.5642   -3.0762 C   0  0  0  0  0  0  0  0  0  0  0  0
   15.3327   -0.8573   -1.5012 C   0  0  0  0  0  0  0  0  0  0  0  0
   13.2767   -3.0094   -0.6368 C   0  0  0  0  0  0  0  0  0  0  0  0
   12.3981   -3.0674   -1.5055 O   0  0  0  0  0  0  0  0  0  0  0  0
    0.0000    0.0000    0.0000 H   0  0  0  0  0  0  0  0  0  0  0  0
    0.0000    0.0000    0.0000 H   0  0  0  0  0  0  0  0  0  0  0  0
    0.0000    0.0000    0.0000 H   0  0  0  0  0  0  0  0  0  0  0  0
    0.0000    0.0000    0.0000 H   0  0  0  0  0  0  0  0  0  0  0  0
    0.0000    0.0000    0.0000 H   0  0  0  0  0  0  0  0  0  0  0  0
    0.0000    0.0000    0.0000 H   0  0  0  0  0  0  0  0  0  0  0  0
    0.0000    0.0000    0.0000 H   0  0  0  0  0  0  0  0  0  0  0  0
    0.0000    0.0000    0.0000 H   0  0  0  0  0  0  0  0  0  0  0  0
    0.0000    0.0000    0.0000 H   0  0  0  0  0  0  0  0  0  0  0  0
    0.0000    0.0000    0.0000 H   0  0  0  0  0  0  0  0  0  0  0  0
    0.0000    0.0000    0.0000 H   0  0  0  0  0  0  0  0  0  0  0  0
    0.0000    0.0000    0.0000 H   0  0  0  0  0  0  0  0  0  0  0  0
    0.0000    0.0000    0.0000 H   0  0  0  0  0  0  0  0  0  0  0  0
    0.0000    0.0000    0.0000 H   0  0  0  0  0  0  0  0  0  0  0  0
    6.9994   -1.5383   -0.3725 N   0  0  0  0  0  0  0  0  0  0  0  0
    6.9289   -0.5284    0.6913 C   0  0  0  0  0  0  0  0  0  0  0  0
    5.4724   -0.2954    0.9206 C   0  0  0  0  0  0  0  0  0  0  0  0
    4.8458    0.3087   -0.2803 C   0  0  0  0  0  0  0  0  0  0  0  0
    4.8463    1.8328   -0.0921 C   0  0  0  0  0  0  0  0  0  0  0  0
    6.1092    2.3379    0.0516 O   0  0  0  0  0  0  0  0  0  0  0  0
    5.4068   -0.0988   -1.5895 C   0  0  0  0  0  0  0  0  0  0  0  0
    6.6396   -0.8975   -1.5908 C   0  0  0  0  0  0  0  0  0  0  0  0
    7.4387   -0.8858    1.6069 H   0  0  0  0  0  0  0  0  0  0  0  0
    7.3894    0.3965    0.2954 H   0  0  0  0  0  0  0  0  0  0  0  0
    5.3624    0.3533    1.8142 H   0  0  0  0  0  0  0  0  0  0  0  0
    4.9567   -1.2674    1.1713 H   0  0  0  0  0  0  0  0  0  0  0  0
    3.7468    0.0434   -0.2285 H   0  0  0  0  0  0  0  0  0  0  0  0
    4.2113    2.0254    0.8156 H   0  0  0  0  0  0  0  0  0  0  0  0
    4.3384    2.3392   -0.9380 H   0  0  0  0  0  0  0  0  0  0  0  0
    6.1916    2.8010    0.9231 H   0  0  0  0  0  0  0  0  0  0  0  0
    4.6203   -0.6508   -2.1877 H   0  0  0  0  0  0  0  0  0  0  0  0
    5.5639    0.8444   -2.1952 H   0  0  0  0  0  0  0  0  0  0  0  0
    6.6060   -1.6997   -2.3875 H   0  0  0  0  0  0  0  0  0  0  0  0
    7.5122   -0.2530   -1.9091 H   0  0  0  0  0  0  0  0  0  0  0  0
  1  2  1  0
  2  3  1  0
  2 19  1  0
  3  4  1  0
  3  5  2  0
  5  6  1  0
  6  7  1  0
  6 19  1  0
  7  8  2  0
  7 18  1  0
  8  9  1  0
  9 10  2  0
 10 11  1  0
 11 12  1  0
 11 18  2  0
 12 13  2  0
 12 17  1  0
 13 14  1  0
 14 15  2  0
 15 16  1  0
 16 17  2  0
 19 20  2  0
  1 21  1  0
  1 22  1  0
  1 23  1  0
  4 24  1  0
  4 25  1  0
  5 26  1  0
  8 27  1  0
  9 28  1  0
 10 29  1  0
 13 30  1  0
 14 31  1  0
 15 32  1  0
 17 33  1  0
 18 34  1  0
 35 36  1  0
 36 37  1  0
 37 38  1  0
 38 39  1  0
 39 40  1  0
 38 41  1  0
 41 42  1  0
 42 35  1  0
 36 43  1  0
 36 44  1  0
 37 45  1  0
 37 46  1  0
 38 47  1  0
 39 48  1  0
 39 49  1  0
 40 50  1  0
 41 51  1  0
 41 52  1  0
 42 53  1  0
 42 54  1  0
  6 35  1  6
M  CHG  1   5   1
M  END
>  <attachment_point>  (366) 
26

>  <score>  (366) 
<NA>

$$$$
CAT-4j
     RDKit          3D

 46 49  0  0  1  0  0  0  0  0999 V2000
   11.7106   -2.3098    1.2658 C   0  0  0  0  0  0  0  0  0  0  0  0
   13.0313   -2.6523    0.7225 N   0  0  0  0  0  0  0  0  0  0  0  0
   14.2010   -2.6281    1.3773 C   0  0  0  0  0  0  0  0  0  0  0  0
   14.3777   -2.3568    2.6732 N   0  0  0  0  0  0  0  0  0  0  0  0
   15.2217   -2.9197    0.5738 N   0  0  0  0  0  0  0  0  0  0  0  0
   14.7965   -3.2519   -0.7875 C   0  0  1  0  0  0  0  0  0  0  0  0
   15.3794   -2.2443   -1.7949 C   0  0  0  0  0  0  0  0  0  0  0  0
   15.9522   -2.6550   -3.0208 C   0  0  0  0  0  0  0  0  0  0  0  0
   16.4340   -1.6937   -3.9273 C   0  0  0  0  0  0  0  0  0  0  0  0
   16.3364   -0.3224   -3.6308 C   0  0  0  0  0  0  0  0  0  0  0  0
   15.7943    0.1250   -2.4073 C   0  0  0  0  0  0  0  0  0  0  0  0
   15.6711    1.5693   -2.0915 C   0  0  0  0  0  0  0  0  0  0  0  0
   15.3832    2.0354   -0.7903 C   0  0  0  0  0  0  0  0  0  0  0  0
   15.3534    3.4188   -0.5357 C   0  0  0  0  0  0  0  0  0  0  0  0
   15.5968    4.3049   -1.5946 C   0  0  0  0  0  0  0  0  0  0  0  0
   15.8275    3.8920   -2.8511 N   0  0  0  0  0  0  0  0  0  0  0  0
   15.8598    2.5642   -3.0762 C   0  0  0  0  0  0  0  0  0  0  0  0
   15.3327   -0.8573   -1.5012 C   0  0  0  0  0  0  0  0  0  0  0  0
   13.2767   -3.0094   -0.6368 C   0  0  0  0  0  0  0  0  0  0  0  0
   12.3981   -3.0674   -1.5055 O   0  0  0  0  0  0  0  0  0  0  0  0
    0.0000    0.0000    0.0000 H   0  0  0  0  0  0  0  0  0  0  0  0
    0.0000    0.0000    0.0000 H   0  0  0  0  0  0  0  0  0  0  0  0
    0.0000    0.0000    0.0000 H   0  0  0  0  0  0  0  0  0  0  0  0
    0.0000    0.0000    0.0000 H   0  0  0  0  0  0  0  0  0  0  0  0
    0.0000    0.0000    0.0000 H   0  0  0  0  0  0  0  0  0  0  0  0
    0.0000    0.0000    0.0000 H   0  0  0  0  0  0  0  0  0  0  0  0
    0.0000    0.0000    0.0000 H   0  0  0  0  0  0  0  0  0  0  0  0
    0.0000    0.0000    0.0000 H   0  0  0  0  0  0  0  0  0  0  0  0
    0.0000    0.0000    0.0000 H   0  0  0  0  0  0  0  0  0  0  0  0
    0.0000    0.0000    0.0000 H   0  0  0  0  0  0  0  0  0  0  0  0
    0.0000    0.0000    0.0000 H   0  0  0  0  0  0  0  0  0  0  0  0
    0.0000    0.0000    0.0000 H   0  0  0  0  0  0  0  0  0  0  0  0
    0.0000    0.0000    0.0000 H   0  0  0  0  0  0  0  0  0  0  0  0
    0.0000    0.0000    0.0000 H   0  0  0  0  0  0  0  0  0  0  0  0
    6.8178   -1.4984   -0.3629 C   0  0  0  0  0  0  0  0  0  0  0  0
    5.7254   -1.2461   -0.2890 C   0  0  0  0  0  0  0  0  0  0  0  0
    4.3499   -0.9089   -0.1798 C   0  0  0  0  0  0  0  0  0  0  0  0
    3.4244   -1.6706   -0.8557 C   0  0  0  0  0  0  0  0  0  0  0  0
    2.0919   -1.3763   -0.7743 C   0  0  0  0  0  0  0  0  0  0  0  0
    1.7080   -0.3015   -0.0005 C   0  0  0  0  0  0  0  0  0  0  0  0
    2.6085    0.4492    0.6644 N   0  0  0  0  0  0  0  0  0  0  0  0
    3.9130    0.1551    0.5802 C   0  0  0  0  0  0  0  0  0  0  0  0
    3.7045   -2.5274   -1.4754 H   0  0  0  0  0  0  0  0  0  0  0  0
    1.3567   -1.9911   -1.3185 H   0  0  0  0  0  0  0  0  0  0  0  0
    0.6481   -0.1064    0.0348 H   0  0  0  0  0  0  0  0  0  0  0  0
    4.6538    0.7370    1.1000 H   0  0  0  0  0  0  0  0  0  0  0  0
  1  2  1  0
  2  3  1  0
  2 19  1  0
  3  4  1  0
  3  5  2  0
  5  6  1  0
  6  7  1  0
  6 19  1  0
  7  8  2  0
  7 18  1  0
  8  9  1  0
  9 10  2  0
 10 11  1  0
 11 12  1  0
 11 18  2  0
 12 13  2  0
 12 17  1  0
 13 14  1  0
 14 15  2  0
 15 16  1  0
 16 17  2  0
 19 20  2  0
  1 21  1  0
  1 22  1  0
  1 23  1  0
  4 24  1  0
  4 25  1  0
  5 26  1  0
  8 27  1  0
  9 28  1  0
 10 29  1  0
 13 30  1  0
 14 31  1  0
 15 32  1  0
 17 33  1  0
 18 34  1  0
 35 36  3  0
 36 37  1  0
 37 38  2  0
 38 39  1  0
 39 40  2  0
 40 41  1  0
 41 42  2  0
 42 37  1  0
 38 43  1  0
 39 44  1  0
 40 45  1  0
 42 46  1  0
  6 35  1  6
M  CHG  1   5   1
M  END
>  <attachment_point>  (367) 
26

>  <score>  (367) 
<NA>

$$$$
CAT-4j
     RDKit          3D

 47 50  0  0  1  0  0  0  0  0999 V2000
   11.7106   -2.3098    1.2658 C   0  0  0  0  0  0  0  0  0  0  0  0
   13.0313   -2.6523    0.7225 N   0  0  0  0  0  0  0  0  0  0  0  0
   14.2010   -2.6281    1.3773 C   0  0  0  0  0  0  0  0  0  0  0  0
   14.3777   -2.3568    2.6732 N   0  0  0  0  0  0  0  0  0  0  0  0
   15.2217   -2.9197    0.5738 N   0  0  0  0  0  0  0  0  0  0  0  0
   14.7965   -3.2519   -0.7875 C   0  0  1  0  0  0  0  0  0  0  0  0
   15.3794   -2.2443   -1.7949 C   0  0  0  0  0  0  0  0  0  0  0  0
   15.9522   -2.6550   -3.0208 C   0  0  0  0  0  0  0  0  0  0  0  0
   16.4340   -1.6937   -3.9273 C   0  0  0  0  0  0  0  0  0  0  0  0
   16.3364   -0.3224   -3.6308 C   0  0  0  0  0  0  0  0  0  0  0  0
   15.7943    0.1250   -2.4073 C   0  0  0  0  0  0  0  0  0  0  0  0
   15.6711    1.5693   -2.0915 C   0  0  0  0  0  0  0  0  0  0  0  0
   15.3832    2.0354   -0.7903 C   0  0  0  0  0  0  0  0  0  0  0  0
   15.3534    3.4188   -0.5357 C   0  0  0  0  0  0  0  0  0  0  0  0
   15.5968    4.3049   -1.5946 C   0  0  0  0  0  0  0  0  0  0  0  0
   15.8275    3.8920   -2.8511 N   0  0  0  0  0  0  0  0  0  0  0  0
   15.8598    2.5642   -3.0762 C   0  0  0  0  0  0  0  0  0  0  0  0
   15.3327   -0.8573   -1.5012 C   0  0  0  0  0  0  0  0  0  0  0  0
   13.2767   -3.0094   -0.6368 C   0  0  0  0  0  0  0  0  0  0  0  0
   12.3981   -3.0674   -1.5055 O   0  0  0  0  0  0  0  0  0  0  0  0
    0.0000    0.0000    0.0000 H   0  0  0  0  0  0  0  0  0  0  0  0
    0.0000    0.0000    0.0000 H   0  0  0  0  0  0  0  0  0  0  0  0
    0.0000    0.0000    0.0000 H   0  0  0  0  0  0  0  0  0  0  0  0
    0.0000    0.0000    0.0000 H   0  0  0  0  0  0  0  0  0  0  0  0
    0.0000    0.0000    0.0000 H   0  0  0  0  0  0  0  0  0  0  0  0
    0.0000    0.0000    0.0000 H   0  0  0  0  0  0  0  0  0  0  0  0
    0.0000    0.0000    0.0000 H   0  0  0  0  0  0  0  0  0  0  0  0
    0.0000    0.0000    0.0000 H   0  0  0  0  0  0  0  0  0  0  0  0
    0.0000    0.0000    0.0000 H   0  0  0  0  0  0  0  0  0  0  0  0
    0.0000    0.0000    0.0000 H   0  0  0  0  0  0  0  0  0  0  0  0
    0.0000    0.0000    0.0000 H   0  0  0  0  0  0  0  0  0  0  0  0
    0.0000    0.0000    0.0000 H   0  0  0  0  0  0  0  0  0  0  0  0
    0.0000    0.0000    0.0000 H   0  0  0  0  0  0  0  0  0  0  0  0
    0.0000    0.0000    0.0000 H   0  0  0  0  0  0  0  0  0  0  0  0
    6.8984   -1.5161   -0.3671 C   0  0  0  0  0  0  0  0  0  0  0  0
    6.1645   -2.4928   -0.3291 O   0  0  0  0  0  0  0  0  0  0  0  0
    6.5996   -0.1206   -0.3502 C   0  0  0  0  0  0  0  0  0  0  0  0
    5.3039    0.3417   -0.2811 C   0  0  0  0  0  0  0  0  0  0  0  0
    5.0326    1.6895   -0.2656 C   0  0  0  0  0  0  0  0  0  0  0  0
    6.0388    2.6437   -0.3181 C   0  0  0  0  0  0  0  0  0  0  0  0
    5.6713    4.3633   -0.2971 Cl  0  0  0  0  0  0  0  0  0  0  0  0
    7.3359    2.1787   -0.3872 C   0  0  0  0  0  0  0  0  0  0  0  0
    7.6006    0.8266   -0.4024 C   0  0  0  0  0  0  0  0  0  0  0  0
    4.5336   -0.4180   -0.2410 H   0  0  0  0  0  0  0  0  0  0  0  0
    4.0231    2.0558   -0.2118 H   0  0  0  0  0  0  0  0  0  0  0  0
    8.1168    2.9354   -0.4278 H   0  0  0  0  0  0  0  0  0  0  0  0
    8.6368    0.5303   -0.4575 H   0  0  0  0  0  0  0  0  0  0  0  0
  1  2  1  0
  2  3  1  0
  2 19  1  0
  3  4  1  0
  3  5  2  0
  5  6  1  0
  6  7  1  0
  6 19  1  0
  7  8  2  0
  7 18  1  0
  8  9  1  0
  9 10  2  0
 10 11  1  0
 11 12  1  0
 11 18  2  0
 12 13  2  0
 12 17  1  0
 13 14  1  0
 14 15  2  0
 15 16  1  0
 16 17  2  0
 19 20  2  0
  1 21  1  0
  1 22  1  0
  1 23  1  0
  4 24  1  0
  4 25  1  0
  5 26  1  0
  8 27  1  0
  9 28  1  0
 10 29  1  0
 13 30  1  0
 14 31  1  0
 15 32  1  0
 17 33  1  0
 18 34  1  0
 35 36  2  0
 35 37  1  0
 37 38  2  0
 38 39  1  0
 39 40  2  0
 40 41  1  0
 40 42  1  0
 42 43  2  0
 43 37  1  0
 38 44  1  0
 39 45  1  0
 42 46  1  0
 43 47  1  0
  6 35  1  6
M  CHG  1   5   1
M  END
>  <attachment_point>  (368) 
26

>  <score>  (368) 
<NA>

$$$$
CAT-4j
     RDKit          3D

 48 50  0  0  1  0  0  0  0  0999 V2000
   11.7106   -2.3098    1.2658 C   0  0  0  0  0  0  0  0  0  0  0  0
   13.0313   -2.6523    0.7225 N   0  0  0  0  0  0  0  0  0  0  0  0
   14.2010   -2.6281    1.3773 C   0  0  0  0  0  0  0  0  0  0  0  0
   14.3777   -2.3568    2.6732 N   0  0  0  0  0  0  0  0  0  0  0  0
   15.2217   -2.9197    0.5738 N   0  0  0  0  0  0  0  0  0  0  0  0
   14.7965   -3.2519   -0.7875 C   0  0  1  0  0  0  0  0  0  0  0  0
   15.3794   -2.2443   -1.7949 C   0  0  0  0  0  0  0  0  0  0  0  0
   15.9522   -2.6550   -3.0208 C   0  0  0  0  0  0  0  0  0  0  0  0
   16.4340   -1.6937   -3.9273 C   0  0  0  0  0  0  0  0  0  0  0  0
   16.3364   -0.3224   -3.6308 C   0  0  0  0  0  0  0  0  0  0  0  0
   15.7943    0.1250   -2.4073 C   0  0  0  0  0  0  0  0  0  0  0  0
   15.6711    1.5693   -2.0915 C   0  0  0  0  0  0  0  0  0  0  0  0
   15.3832    2.0354   -0.7903 C   0  0  0  0  0  0  0  0  0  0  0  0
   15.3534    3.4188   -0.5357 C   0  0  0  0  0  0  0  0  0  0  0  0
   15.5968    4.3049   -1.5946 C   0  0  0  0  0  0  0  0  0  0  0  0
   15.8275    3.8920   -2.8511 N   0  0  0  0  0  0  0  0  0  0  0  0
   15.8598    2.5642   -3.0762 C   0  0  0  0  0  0  0  0  0  0  0  0
   15.3327   -0.8573   -1.5012 C   0  0  0  0  0  0  0  0  0  0  0  0
   13.2767   -3.0094   -0.6368 C   0  0  0  0  0  0  0  0  0  0  0  0
   12.3981   -3.0674   -1.5055 O   0  0  0  0  0  0  0  0  0  0  0  0
    0.0000    0.0000    0.0000 H   0  0  0  0  0  0  0  0  0  0  0  0
    0.0000    0.0000    0.0000 H   0  0  0  0  0  0  0  0  0  0  0  0
    0.0000    0.0000    0.0000 H   0  0  0  0  0  0  0  0  0  0  0  0
    0.0000    0.0000    0.0000 H   0  0  0  0  0  0  0  0  0  0  0  0
    0.0000    0.0000    0.0000 H   0  0  0  0  0  0  0  0  0  0  0  0
    0.0000    0.0000    0.0000 H   0  0  0  0  0  0  0  0  0  0  0  0
    0.0000    0.0000    0.0000 H   0  0  0  0  0  0  0  0  0  0  0  0
    0.0000    0.0000    0.0000 H   0  0  0  0  0  0  0  0  0  0  0  0
    0.0000    0.0000    0.0000 H   0  0  0  0  0  0  0  0  0  0  0  0
    0.0000    0.0000    0.0000 H   0  0  0  0  0  0  0  0  0  0  0  0
    0.0000    0.0000    0.0000 H   0  0  0  0  0  0  0  0  0  0  0  0
    0.0000    0.0000    0.0000 H   0  0  0  0  0  0  0  0  0  0  0  0
    0.0000    0.0000    0.0000 H   0  0  0  0  0  0  0  0  0  0  0  0
    0.0000    0.0000    0.0000 H   0  0  0  0  0  0  0  0  0  0  0  0
    6.9190   -1.5206   -0.3682 N   0  0  0  0  0  0  0  0  0  0  0  0
    6.1182   -2.4068    0.3026 C   0  0  0  0  0  0  0  0  0  0  0  0
    6.6584   -3.4437    0.8166 O   0  0  0  0  0  0  0  0  0  0  0  0
    4.6459   -2.2114    0.4569 C   0  0  0  0  0  0  0  0  0  0  0  0
    4.0196   -2.1538   -0.9390 C   0  0  0  0  0  0  0  0  0  0  0  0
    4.2920   -1.0318    1.2956 C   0  0  0  0  0  0  0  0  0  0  0  0
    6.7253   -0.6812   -0.8294 H   0  0  0  0  0  0  0  0  0  0  0  0
    4.2161   -3.1124    0.9335 H   0  0  0  0  0  0  0  0  0  0  0  0
    3.5658   -3.1256   -1.2237 H   0  0  0  0  0  0  0  0  0  0  0  0
    4.8300   -1.9736   -1.7045 H   0  0  0  0  0  0  0  0  0  0  0  0
    3.2416   -1.3633   -1.0016 H   0  0  0  0  0  0  0  0  0  0  0  0
    4.0520   -1.3048    2.3515 H   0  0  0  0  0  0  0  0  0  0  0  0
    5.0481   -0.2412    1.3284 H   0  0  0  0  0  0  0  0  0  0  0  0
    3.3442   -0.5817    0.8958 H   0  0  0  0  0  0  0  0  0  0  0  0
  1  2  1  0
  2  3  1  0
  2 19  1  0
  3  4  1  0
  3  5  2  0
  5  6  1  0
  6  7  1  0
  6 19  1  0
  7  8  2  0
  7 18  1  0
  8  9  1  0
  9 10  2  0
 10 11  1  0
 11 12  1  0
 11 18  2  0
 12 13  2  0
 12 17  1  0
 13 14  1  0
 14 15  2  0
 15 16  1  0
 16 17  2  0
 19 20  2  0
  1 21  1  0
  1 22  1  0
  1 23  1  0
  4 24  1  0
  4 25  1  0
  5 26  1  0
  8 27  1  0
  9 28  1  0
 10 29  1  0
 13 30  1  0
 14 31  1  0
 15 32  1  0
 17 33  1  0
 18 34  1  0
 35 36  1  0
 36 37  2  0
 36 38  1  0
 38 39  1  0
 38 40  1  0
 35 41  1  0
 38 42  1  0
 39 43  1  0
 39 44  1  0
 39 45  1  0
 40 46  1  0
 40 47  1  0
 40 48  1  0
  6 35  1  6
M  CHG  1   5   1
M  END
>  <attachment_point>  (369) 
26

>  <score>  (369) 
<NA>

$$$$
CAT-4j
     RDKit          3D

 47 50  0  0  1  0  0  0  0  0999 V2000
   11.7106   -2.3098    1.2658 C   0  0  0  0  0  0  0  0  0  0  0  0
   13.0313   -2.6523    0.7225 N   0  0  0  0  0  0  0  0  0  0  0  0
   14.2010   -2.6281    1.3773 C   0  0  0  0  0  0  0  0  0  0  0  0
   14.3777   -2.3568    2.6732 N   0  0  0  0  0  0  0  0  0  0  0  0
   15.2217   -2.9197    0.5738 N   0  0  0  0  0  0  0  0  0  0  0  0
   14.7965   -3.2519   -0.7875 C   0  0  1  0  0  0  0  0  0  0  0  0
   15.3794   -2.2443   -1.7949 C   0  0  0  0  0  0  0  0  0  0  0  0
   15.9522   -2.6550   -3.0208 C   0  0  0  0  0  0  0  0  0  0  0  0
   16.4340   -1.6937   -3.9273 C   0  0  0  0  0  0  0  0  0  0  0  0
   16.3364   -0.3224   -3.6308 C   0  0  0  0  0  0  0  0  0  0  0  0
   15.7943    0.1250   -2.4073 C   0  0  0  0  0  0  0  0  0  0  0  0
   15.6711    1.5693   -2.0915 C   0  0  0  0  0  0  0  0  0  0  0  0
   15.3832    2.0354   -0.7903 C   0  0  0  0  0  0  0  0  0  0  0  0
   15.3534    3.4188   -0.5357 C   0  0  0  0  0  0  0  0  0  0  0  0
   15.5968    4.3049   -1.5946 C   0  0  0  0  0  0  0  0  0  0  0  0
   15.8275    3.8920   -2.8511 N   0  0  0  0  0  0  0  0  0  0  0  0
   15.8598    2.5642   -3.0762 C   0  0  0  0  0  0  0  0  0  0  0  0
   15.3327   -0.8573   -1.5012 C   0  0  0  0  0  0  0  0  0  0  0  0
   13.2767   -3.0094   -0.6368 C   0  0  0  0  0  0  0  0  0  0  0  0
   12.3981   -3.0674   -1.5055 O   0  0  0  0  0  0  0  0  0  0  0  0
    0.0000    0.0000    0.0000 H   0  0  0  0  0  0  0  0  0  0  0  0
    0.0000    0.0000    0.0000 H   0  0  0  0  0  0  0  0  0  0  0  0
    0.0000    0.0000    0.0000 H   0  0  0  0  0  0  0  0  0  0  0  0
    0.0000    0.0000    0.0000 H   0  0  0  0  0  0  0  0  0  0  0  0
    0.0000    0.0000    0.0000 H   0  0  0  0  0  0  0  0  0  0  0  0
    0.0000    0.0000    0.0000 H   0  0  0  0  0  0  0  0  0  0  0  0
    0.0000    0.0000    0.0000 H   0  0  0  0  0  0  0  0  0  0  0  0
    0.0000    0.0000    0.0000 H   0  0  0  0  0  0  0  0  0  0  0  0
    0.0000    0.0000    0.0000 H   0  0  0  0  0  0  0  0  0  0  0  0
    0.0000    0.0000    0.0000 H   0  0  0  0  0  0  0  0  0  0  0  0
    0.0000    0.0000    0.0000 H   0  0  0  0  0  0  0  0  0  0  0  0
    0.0000    0.0000    0.0000 H   0  0  0  0  0  0  0  0  0  0  0  0
    0.0000    0.0000    0.0000 H   0  0  0  0  0  0  0  0  0  0  0  0
    0.0000    0.0000    0.0000 H   0  0  0  0  0  0  0  0  0  0  0  0
    6.9033   -1.5172   -0.3674 N   0  0  0  0  0  0  0  0  0  0  0  0
    6.9931   -0.3566   -1.2681 C   0  0  0  0  0  0  0  0  0  0  0  0
    7.5162   -0.8007   -2.6329 C   0  0  0  0  0  0  0  0  0  0  0  0
    7.7021    0.1590   -3.7200 C   0  0  0  0  0  0  0  0  0  0  0  0
    8.9061   -0.4279   -3.0123 C   0  0  0  0  0  0  0  0  0  0  0  0
    6.6605   -2.3370   -0.9697 H   0  0  0  0  0  0  0  0  0  0  0  0
    7.6745    0.3852   -0.8072 H   0  0  0  0  0  0  0  0  0  0  0  0
    5.9590    0.0162   -1.3517 H   0  0  0  0  0  0  0  0  0  0  0  0
    7.1487   -1.8135   -2.9184 H   0  0  0  0  0  0  0  0  0  0  0  0
    7.5601   -0.1967   -4.7759 H   0  0  0  0  0  0  0  0  0  0  0  0
    7.4875    1.2362   -3.5879 H   0  0  0  0  0  0  0  0  0  0  0  0
    9.4860   -1.2078   -3.5681 H   0  0  0  0  0  0  0  0  0  0  0  0
    9.4583    0.2407   -2.3072 H   0  0  0  0  0  0  0  0  0  0  0  0
  1  2  1  0
  2  3  1  0
  2 19  1  0
  3  4  1  0
  3  5  2  0
  5  6  1  0
  6  7  1  0
  6 19  1  0
  7  8  2  0
  7 18  1  0
  8  9  1  0
  9 10  2  0
 10 11  1  0
 11 12  1  0
 11 18  2  0
 12 13  2  0
 12 17  1  0
 13 14  1  0
 14 15  2  0
 15 16  1  0
 16 17  2  0
 19 20  2  0
  1 21  1  0
  1 22  1  0
  1 23  1  0
  4 24  1  0
  4 25  1  0
  5 26  1  0
  8 27  1  0
  9 28  1  0
 10 29  1  0
 13 30  1  0
 14 31  1  0
 15 32  1  0
 17 33  1  0
 18 34  1  0
 35 36  1  0
 36 37  1  0
 37 38  1  0
 38 39  1  0
 39 37  1  0
 35 40  1  0
 36 41  1  0
 36 42  1  0
 37 43  1  0
 38 44  1  0
 38 45  1  0
 39 46  1  0
 39 47  1  0
  6 35  1  6
M  CHG  1   5   1
M  END
>  <attachment_point>  (370) 
26

>  <score>  (370) 
<NA>

$$$$
CAT-4j
     RDKit          3D

 45 48  0  0  1  0  0  0  0  0999 V2000
   11.7106   -2.3098    1.2658 C   0  0  0  0  0  0  0  0  0  0  0  0
   13.0313   -2.6523    0.7225 N   0  0  0  0  0  0  0  0  0  0  0  0
   14.2010   -2.6281    1.3773 C   0  0  0  0  0  0  0  0  0  0  0  0
   14.3777   -2.3568    2.6732 N   0  0  0  0  0  0  0  0  0  0  0  0
   15.2217   -2.9197    0.5738 N   0  0  0  0  0  0  0  0  0  0  0  0
   14.7965   -3.2519   -0.7875 C   0  0  1  0  0  0  0  0  0  0  0  0
   15.3794   -2.2443   -1.7949 C   0  0  0  0  0  0  0  0  0  0  0  0
   15.9522   -2.6550   -3.0208 C   0  0  0  0  0  0  0  0  0  0  0  0
   16.4340   -1.6937   -3.9273 C   0  0  0  0  0  0  0  0  0  0  0  0
   16.3364   -0.3224   -3.6308 C   0  0  0  0  0  0  0  0  0  0  0  0
   15.7943    0.1250   -2.4073 C   0  0  0  0  0  0  0  0  0  0  0  0
   15.6711    1.5693   -2.0915 C   0  0  0  0  0  0  0  0  0  0  0  0
   15.3832    2.0354   -0.7903 C   0  0  0  0  0  0  0  0  0  0  0  0
   15.3534    3.4188   -0.5357 C   0  0  0  0  0  0  0  0  0  0  0  0
   15.5968    4.3049   -1.5946 C   0  0  0  0  0  0  0  0  0  0  0  0
   15.8275    3.8920   -2.8511 N   0  0  0  0  0  0  0  0  0  0  0  0
   15.8598    2.5642   -3.0762 C   0  0  0  0  0  0  0  0  0  0  0  0
   15.3327   -0.8573   -1.5012 C   0  0  0  0  0  0  0  0  0  0  0  0
   13.2767   -3.0094   -0.6368 C   0  0  0  0  0  0  0  0  0  0  0  0
   12.3981   -3.0674   -1.5055 O   0  0  0  0  0  0  0  0  0  0  0  0
    0.0000    0.0000    0.0000 H   0  0  0  0  0  0  0  0  0  0  0  0
    0.0000    0.0000    0.0000 H   0  0  0  0  0  0  0  0  0  0  0  0
    0.0000    0.0000    0.0000 H   0  0  0  0  0  0  0  0  0  0  0  0
    0.0000    0.0000    0.0000 H   0  0  0  0  0  0  0  0  0  0  0  0
    0.0000    0.0000    0.0000 H   0  0  0  0  0  0  0  0  0  0  0  0
    0.0000    0.0000    0.0000 H   0  0  0  0  0  0  0  0  0  0  0  0
    0.0000    0.0000    0.0000 H   0  0  0  0  0  0  0  0  0  0  0  0
    0.0000    0.0000    0.0000 H   0  0  0  0  0  0  0  0  0  0  0  0
    0.0000    0.0000    0.0000 H   0  0  0  0  0  0  0  0  0  0  0  0
    0.0000    0.0000    0.0000 H   0  0  0  0  0  0  0  0  0  0  0  0
    0.0000    0.0000    0.0000 H   0  0  0  0  0  0  0  0  0  0  0  0
    0.0000    0.0000    0.0000 H   0  0  0  0  0  0  0  0  0  0  0  0
    0.0000    0.0000    0.0000 H   0  0  0  0  0  0  0  0  0  0  0  0
    0.0000    0.0000    0.0000 H   0  0  0  0  0  0  0  0  0  0  0  0
    6.9419   -1.5257   -0.3695 C   0  0  0  0  0  0  0  0  0  0  0  0
    6.4433   -0.2757   -0.0809 C   0  0  0  0  0  0  0  0  0  0  0  0
    5.0624   -0.4747   -0.1228 C   0  0  0  0  0  0  0  0  0  0  0  0
    4.7773   -1.7560   -0.4162 N   0  0  0  0  0  0  0  0  0  0  0  0
    3.4500   -2.3586   -0.5508 C   0  0  0  0  0  0  0  0  0  0  0  0
    5.9406   -2.3702   -0.5605 N   0  0  0  0  0  0  0  0  0  0  0  0
    6.9757    0.6436    0.1287 H   0  0  0  0  0  0  0  0  0  0  0  0
    4.3213    0.3028    0.0579 H   0  0  0  0  0  0  0  0  0  0  0  0
    3.0034   -2.5629    0.4561 H   0  0  0  0  0  0  0  0  0  0  0  0
    3.5803   -3.3403   -1.0443 H   0  0  0  0  0  0  0  0  0  0  0  0
    2.7870   -1.6912   -1.1338 H   0  0  0  0  0  0  0  0  0  0  0  0
  1  2  1  0
  2  3  1  0
  2 19  1  0
  3  4  1  0
  3  5  2  0
  5  6  1  0
  6  7  1  1
  6 19  1  0
  7  8  2  0
  7 18  1  0
  8  9  1  0
  9 10  2  0
 10 11  1  0
 11 12  1  0
 11 18  2  0
 12 13  2  0
 12 17  1  0
 13 14  1  0
 14 15  2  0
 15 16  1  0
 16 17  2  0
 19 20  2  0
  1 21  1  0
  1 22  1  0
  1 23  1  0
  4 24  1  0
  4 25  1  0
  5 26  1  0
  8 27  1  0
  9 28  1  0
 10 29  1  0
 13 30  1  0
 14 31  1  0
 15 32  1  0
 17 33  1  0
 18 34  1  0
 35 36  1  0
 36 37  2  0
 37 38  1  0
 38 39  1  0
 38 40  1  0
 40 35  2  0
 36 41  1  0
 37 42  1  0
 39 43  1  0
 39 44  1  0
 39 45  1  0
  6 35  1  0
M  CHG  1   5   1
M  END
>  <attachment_point>  (371) 
26

>  <score>  (371) 
<NA>

$$$$
CAT-4j
     RDKit          3D

 55 58  0  0  1  0  0  0  0  0999 V2000
   11.7106   -2.3098    1.2658 C   0  0  0  0  0  0  0  0  0  0  0  0
   13.0313   -2.6523    0.7225 N   0  0  0  0  0  0  0  0  0  0  0  0
   14.2010   -2.6281    1.3773 C   0  0  0  0  0  0  0  0  0  0  0  0
   14.3777   -2.3568    2.6732 N   0  0  0  0  0  0  0  0  0  0  0  0
   15.2217   -2.9197    0.5738 N   0  0  0  0  0  0  0  0  0  0  0  0
   14.7965   -3.2519   -0.7875 C   0  0  1  0  0  0  0  0  0  0  0  0
   15.3794   -2.2443   -1.7949 C   0  0  0  0  0  0  0  0  0  0  0  0
   15.9522   -2.6550   -3.0208 C   0  0  0  0  0  0  0  0  0  0  0  0
   16.4340   -1.6937   -3.9273 C   0  0  0  0  0  0  0  0  0  0  0  0
   16.3364   -0.3224   -3.6308 C   0  0  0  0  0  0  0  0  0  0  0  0
   15.7943    0.1250   -2.4073 C   0  0  0  0  0  0  0  0  0  0  0  0
   15.6711    1.5693   -2.0915 C   0  0  0  0  0  0  0  0  0  0  0  0
   15.3832    2.0354   -0.7903 C   0  0  0  0  0  0  0  0  0  0  0  0
   15.3534    3.4188   -0.5357 C   0  0  0  0  0  0  0  0  0  0  0  0
   15.5968    4.3049   -1.5946 C   0  0  0  0  0  0  0  0  0  0  0  0
   15.8275    3.8920   -2.8511 N   0  0  0  0  0  0  0  0  0  0  0  0
   15.8598    2.5642   -3.0762 C   0  0  0  0  0  0  0  0  0  0  0  0
   15.3327   -0.8573   -1.5012 C   0  0  0  0  0  0  0  0  0  0  0  0
   13.2767   -3.0094   -0.6368 C   0  0  0  0  0  0  0  0  0  0  0  0
   12.3981   -3.0674   -1.5055 O   0  0  0  0  0  0  0  0  0  0  0  0
    0.0000    0.0000    0.0000 H   0  0  0  0  0  0  0  0  0  0  0  0
    0.0000    0.0000    0.0000 H   0  0  0  0  0  0  0  0  0  0  0  0
    0.0000    0.0000    0.0000 H   0  0  0  0  0  0  0  0  0  0  0  0
    0.0000    0.0000    0.0000 H   0  0  0  0  0  0  0  0  0  0  0  0
    0.0000    0.0000    0.0000 H   0  0  0  0  0  0  0  0  0  0  0  0
    0.0000    0.0000    0.0000 H   0  0  0  0  0  0  0  0  0  0  0  0
    0.0000    0.0000    0.0000 H   0  0  0  0  0  0  0  0  0  0  0  0
    0.0000    0.0000    0.0000 H   0  0  0  0  0  0  0  0  0  0  0  0
    0.0000    0.0000    0.0000 H   0  0  0  0  0  0  0  0  0  0  0  0
    0.0000    0.0000    0.0000 H   0  0  0  0  0  0  0  0  0  0  0  0
    0.0000    0.0000    0.0000 H   0  0  0  0  0  0  0  0  0  0  0  0
    0.0000    0.0000    0.0000 H   0  0  0  0  0  0  0  0  0  0  0  0
    0.0000    0.0000    0.0000 H   0  0  0  0  0  0  0  0  0  0  0  0
    0.0000    0.0000    0.0000 H   0  0  0  0  0  0  0  0  0  0  0  0
    7.0335   -1.5458   -0.3743 N   0  0  0  0  0  0  0  0  0  0  0  0
    6.5914   -0.4610   -1.2616 C   0  0  0  0  0  0  0  0  0  0  0  0
    6.4394   -1.0528   -2.6231 C   0  0  0  0  0  0  0  0  0  0  0  0
    6.4299   -2.5417   -2.3519 C   0  0  1  0  0  0  0  0  0  0  0  0
    7.6143   -3.1532   -2.8561 N   0  0  0  0  0  0  0  0  0  0  0  0
    8.8330   -2.6485   -2.2853 C   0  0  0  0  0  0  0  0  0  0  0  0
    7.5780   -4.5848   -2.6179 C   0  0  0  0  0  0  0  0  0  0  0  0
    6.2498   -2.6504   -0.8711 C   0  0  0  0  0  0  0  0  0  0  0  0
    5.6275   -0.0754   -0.8488 H   0  0  0  0  0  0  0  0  0  0  0  0
    7.3194    0.3630   -1.2273 H   0  0  0  0  0  0  0  0  0  0  0  0
    5.4400   -0.7378   -3.0161 H   0  0  0  0  0  0  0  0  0  0  0  0
    7.2510   -0.7565   -3.3245 H   0  0  0  0  0  0  0  0  0  0  0  0
    5.5614   -2.9850   -2.8616 H   0  0  0  0  0  0  0  0  0  0  0  0
    8.9088   -2.8669   -1.2111 H   0  0  0  0  0  0  0  0  0  0  0  0
    9.6650   -3.2408   -2.7718 H   0  0  0  0  0  0  0  0  0  0  0  0
    9.0083   -1.5754   -2.5066 H   0  0  0  0  0  0  0  0  0  0  0  0
    6.6041   -5.0361   -2.9005 H   0  0  0  0  0  0  0  0  0  0  0  0
    7.7673   -4.7602   -1.5348 H   0  0  0  0  0  0  0  0  0  0  0  0
    8.4340   -5.0157   -3.1800 H   0  0  0  0  0  0  0  0  0  0  0  0
    6.4856   -3.6140   -0.4371 H   0  0  0  0  0  0  0  0  0  0  0  0
    5.1796   -2.4306   -0.6239 H   0  0  0  0  0  0  0  0  0  0  0  0
  1  2  1  0
  2  3  1  0
  2 19  1  0
  3  4  1  0
  3  5  2  0
  5  6  1  0
  6  7  1  0
  6 19  1  0
  7  8  2  0
  7 18  1  0
  8  9  1  0
  9 10  2  0
 10 11  1  0
 11 12  1  0
 11 18  2  0
 12 13  2  0
 12 17  1  0
 13 14  1  0
 14 15  2  0
 15 16  1  0
 16 17  2  0
 19 20  2  0
  1 21  1  0
  1 22  1  0
  1 23  1  0
  4 24  1  0
  4 25  1  0
  5 26  1  0
  8 27  1  0
  9 28  1  0
 10 29  1  0
 13 30  1  0
 14 31  1  0
 15 32  1  0
 17 33  1  0
 18 34  1  0
 35 36  1  0
 36 37  1  0
 37 38  1  0
 38 39  1  0
 39 40  1  0
 39 41  1  0
 38 42  1  0
 42 35  1  0
 36 43  1  0
 36 44  1  0
 37 45  1  0
 37 46  1  0
 38 47  1  6
 40 48  1  0
 40 49  1  0
 40 50  1  0
 41 51  1  0
 41 52  1  0
 41 53  1  0
 42 54  1  0
 42 55  1  0
  6 35  1  6
M  CHG  1   5   1
M  END
>  <attachment_point>  (372) 
26

>  <score>  (372) 
<NA>

$$$$
CAT-4j
     RDKit          3D

 54 58  0  0  1  0  0  0  0  0999 V2000
   11.7106   -2.3098    1.2658 C   0  0  0  0  0  0  0  0  0  0  0  0
   13.0313   -2.6523    0.7225 N   0  0  0  0  0  0  0  0  0  0  0  0
   14.2010   -2.6281    1.3773 C   0  0  0  0  0  0  0  0  0  0  0  0
   14.3777   -2.3568    2.6732 N   0  0  0  0  0  0  0  0  0  0  0  0
   15.2217   -2.9197    0.5738 N   0  0  0  0  0  0  0  0  0  0  0  0
   14.7965   -3.2519   -0.7875 C   0  0  1  0  0  0  0  0  0  0  0  0
   15.3794   -2.2443   -1.7949 C   0  0  0  0  0  0  0  0  0  0  0  0
   15.9522   -2.6550   -3.0208 C   0  0  0  0  0  0  0  0  0  0  0  0
   16.4340   -1.6937   -3.9273 C   0  0  0  0  0  0  0  0  0  0  0  0
   16.3364   -0.3224   -3.6308 C   0  0  0  0  0  0  0  0  0  0  0  0
   15.7943    0.1250   -2.4073 C   0  0  0  0  0  0  0  0  0  0  0  0
   15.6711    1.5693   -2.0915 C   0  0  0  0  0  0  0  0  0  0  0  0
   15.3832    2.0354   -0.7903 C   0  0  0  0  0  0  0  0  0  0  0  0
   15.3534    3.4188   -0.5357 C   0  0  0  0  0  0  0  0  0  0  0  0
   15.5968    4.3049   -1.5946 C   0  0  0  0  0  0  0  0  0  0  0  0
   15.8275    3.8920   -2.8511 N   0  0  0  0  0  0  0  0  0  0  0  0
   15.8598    2.5642   -3.0762 C   0  0  0  0  0  0  0  0  0  0  0  0
   15.3327   -0.8573   -1.5012 C   0  0  0  0  0  0  0  0  0  0  0  0
   13.2767   -3.0094   -0.6368 C   0  0  0  0  0  0  0  0  0  0  0  0
   12.3981   -3.0674   -1.5055 O   0  0  0  0  0  0  0  0  0  0  0  0
    0.0000    0.0000    0.0000 H   0  0  0  0  0  0  0  0  0  0  0  0
    0.0000    0.0000    0.0000 H   0  0  0  0  0  0  0  0  0  0  0  0
    0.0000    0.0000    0.0000 H   0  0  0  0  0  0  0  0  0  0  0  0
    0.0000    0.0000    0.0000 H   0  0  0  0  0  0  0  0  0  0  0  0
    0.0000    0.0000    0.0000 H   0  0  0  0  0  0  0  0  0  0  0  0
    0.0000    0.0000    0.0000 H   0  0  0  0  0  0  0  0  0  0  0  0
    0.0000    0.0000    0.0000 H   0  0  0  0  0  0  0  0  0  0  0  0
    0.0000    0.0000    0.0000 H   0  0  0  0  0  0  0  0  0  0  0  0
    0.0000    0.0000    0.0000 H   0  0  0  0  0  0  0  0  0  0  0  0
    0.0000    0.0000    0.0000 H   0  0  0  0  0  0  0  0  0  0  0  0
    0.0000    0.0000    0.0000 H   0  0  0  0  0  0  0  0  0  0  0  0
    0.0000    0.0000    0.0000 H   0  0  0  0  0  0  0  0  0  0  0  0
    0.0000    0.0000    0.0000 H   0  0  0  0  0  0  0  0  0  0  0  0
    0.0000    0.0000    0.0000 H   0  0  0  0  0  0  0  0  0  0  0  0
    7.0593   -1.5515   -0.3757 N   0  0  0  0  0  0  0  0  0  0  0  0
    6.6526   -0.2170   -0.6484 C   0  0  0  0  0  0  0  0  0  0  0  0
    5.1914   -0.0311   -0.9042 C   0  0  0  0  0  0  0  0  0  0  0  0
    4.7191   -1.1268   -1.7975 C   0  0  0  0  0  0  0  0  0  0  0  0
    3.8957   -0.9036   -2.8898 C   0  0  0  0  0  0  0  0  0  0  0  0
    3.5074   -1.9939   -3.6644 C   0  0  0  0  0  0  0  0  0  0  0  0
    3.9292   -3.2692   -3.3570 C   0  0  0  0  0  0  0  0  0  0  0  0
    4.7482   -3.4589   -2.2635 C   0  0  0  0  0  0  0  0  0  0  0  0
    5.1513   -2.3968   -1.4743 C   0  0  0  0  0  0  0  0  0  0  0  0
    6.0305   -2.5336   -0.2869 C   0  0  0  0  0  0  0  0  0  0  0  0
    6.9767    0.5012    0.1603 H   0  0  0  0  0  0  0  0  0  0  0  0
    7.1899    0.1116   -1.5848 H   0  0  0  0  0  0  0  0  0  0  0  0
    4.6468   -0.0830    0.0800 H   0  0  0  0  0  0  0  0  0  0  0  0
    4.9331    0.9273   -1.3481 H   0  0  0  0  0  0  0  0  0  0  0  0
    3.5736    0.1050   -3.1169 H   0  0  0  0  0  0  0  0  0  0  0  0
    2.8580   -1.8233   -4.5271 H   0  0  0  0  0  0  0  0  0  0  0  0
    3.6440   -4.1286   -3.9386 H   0  0  0  0  0  0  0  0  0  0  0  0
    5.1159   -4.4531   -1.9698 H   0  0  0  0  0  0  0  0  0  0  0  0
    5.4507   -2.4998    0.6654 H   0  0  0  0  0  0  0  0  0  0  0  0
    6.5161   -3.5415   -0.3801 H   0  0  0  0  0  0  0  0  0  0  0  0
  1  2  1  0
  2  3  1  0
  2 19  1  0
  3  4  1  0
  3  5  2  0
  5  6  1  0
  6  7  1  0
  6 19  1  0
  7  8  2  0
  7 18  1  0
  8  9  1  0
  9 10  2  0
 10 11  1  0
 11 12  1  0
 11 18  2  0
 12 13  2  0
 12 17  1  0
 13 14  1  0
 14 15  2  0
 15 16  1  0
 16 17  2  0
 19 20  2  0
  1 21  1  0
  1 22  1  0
  1 23  1  0
  4 24  1  0
  4 25  1  0
  5 26  1  0
  8 27  1  0
  9 28  1  0
 10 29  1  0
 13 30  1  0
 14 31  1  0
 15 32  1  0
 17 33  1  0
 18 34  1  0
 35 36  1  0
 36 37  1  0
 37 38  1  0
 38 39  2  0
 39 40  1  0
 40 41  2  0
 41 42  1  0
 42 43  2  0
 43 44  1  0
 44 35  1  0
 43 38  1  0
 36 45  1  0
 36 46  1  0
 37 47  1  0
 37 48  1  0
 39 49  1  0
 40 50  1  0
 41 51  1  0
 42 52  1  0
 44 53  1  0
 44 54  1  0
  6 35  1  6
M  CHG  1   5   1
M  END
>  <attachment_point>  (373) 
26

>  <score>  (373) 
<NA>

$$$$
CAT-4j
     RDKit          3D

 45 48  0  0  1  0  0  0  0  0999 V2000
   11.7106   -2.3098    1.2658 C   0  0  0  0  0  0  0  0  0  0  0  0
   13.0313   -2.6523    0.7225 N   0  0  0  0  0  0  0  0  0  0  0  0
   14.2010   -2.6281    1.3773 C   0  0  0  0  0  0  0  0  0  0  0  0
   14.3777   -2.3568    2.6732 N   0  0  0  0  0  0  0  0  0  0  0  0
   15.2217   -2.9197    0.5738 N   0  0  0  0  0  0  0  0  0  0  0  0
   14.7965   -3.2519   -0.7875 C   0  0  1  0  0  0  0  0  0  0  0  0
   15.3794   -2.2443   -1.7949 C   0  0  0  0  0  0  0  0  0  0  0  0
   15.9522   -2.6550   -3.0208 C   0  0  0  0  0  0  0  0  0  0  0  0
   16.4340   -1.6937   -3.9273 C   0  0  0  0  0  0  0  0  0  0  0  0
   16.3364   -0.3224   -3.6308 C   0  0  0  0  0  0  0  0  0  0  0  0
   15.7943    0.1250   -2.4073 C   0  0  0  0  0  0  0  0  0  0  0  0
   15.6711    1.5693   -2.0915 C   0  0  0  0  0  0  0  0  0  0  0  0
   15.3832    2.0354   -0.7903 C   0  0  0  0  0  0  0  0  0  0  0  0
   15.3534    3.4188   -0.5357 C   0  0  0  0  0  0  0  0  0  0  0  0
   15.5968    4.3049   -1.5946 C   0  0  0  0  0  0  0  0  0  0  0  0
   15.8275    3.8920   -2.8511 N   0  0  0  0  0  0  0  0  0  0  0  0
   15.8598    2.5642   -3.0762 C   0  0  0  0  0  0  0  0  0  0  0  0
   15.3327   -0.8573   -1.5012 C   0  0  0  0  0  0  0  0  0  0  0  0
   13.2767   -3.0094   -0.6368 C   0  0  0  0  0  0  0  0  0  0  0  0
   12.3981   -3.0674   -1.5055 O   0  0  0  0  0  0  0  0  0  0  0  0
    0.0000    0.0000    0.0000 H   0  0  0  0  0  0  0  0  0  0  0  0
    0.0000    0.0000    0.0000 H   0  0  0  0  0  0  0  0  0  0  0  0
    0.0000    0.0000    0.0000 H   0  0  0  0  0  0  0  0  0  0  0  0
    0.0000    0.0000    0.0000 H   0  0  0  0  0  0  0  0  0  0  0  0
    0.0000    0.0000    0.0000 H   0  0  0  0  0  0  0  0  0  0  0  0
    0.0000    0.0000    0.0000 H   0  0  0  0  0  0  0  0  0  0  0  0
    0.0000    0.0000    0.0000 H   0  0  0  0  0  0  0  0  0  0  0  0
    0.0000    0.0000    0.0000 H   0  0  0  0  0  0  0  0  0  0  0  0
    0.0000    0.0000    0.0000 H   0  0  0  0  0  0  0  0  0  0  0  0
    0.0000    0.0000    0.0000 H   0  0  0  0  0  0  0  0  0  0  0  0
    0.0000    0.0000    0.0000 H   0  0  0  0  0  0  0  0  0  0  0  0
    0.0000    0.0000    0.0000 H   0  0  0  0  0  0  0  0  0  0  0  0
    0.0000    0.0000    0.0000 H   0  0  0  0  0  0  0  0  0  0  0  0
    0.0000    0.0000    0.0000 H   0  0  0  0  0  0  0  0  0  0  0  0
    7.0127   -1.5412   -0.3732 C   0  0  2  0  0  0  0  0  0  0  0  0
    6.6513   -0.1973   -1.0271 C   0  0  0  0  0  0  0  0  0  0  0  0
    6.5431    0.6147    0.1169 O   0  0  0  0  0  0  0  0  0  0  0  0
    6.1480   -0.1441    1.2009 C   0  0  0  0  0  0  0  0  0  0  0  0
    5.5431    0.3454    2.4284 N   0  0  0  0  0  0  0  0  0  0  0  0
    6.4123   -1.3715    0.9296 N   0  0  0  0  0  0  0  0  0  0  0  0
    6.4053   -2.3384   -0.8897 H   0  0  0  0  0  0  0  0  0  0  0  0
    5.6492   -0.2844   -1.4726 H   0  0  0  0  0  0  0  0  0  0  0  0
    7.4354    0.1291   -1.7271 H   0  0  0  0  0  0  0  0  0  0  0  0
    5.9053    1.2211    2.8623 H   0  0  0  0  0  0  0  0  0  0  0  0
    4.7595   -0.1376    2.9016 H   0  0  0  0  0  0  0  0  0  0  0  0
  1  2  1  0
  2  3  1  0
  2 19  1  0
  3  4  1  0
  3  5  2  0
  5  6  1  0
  6  7  1  1
  6 19  1  0
  7  8  2  0
  7 18  1  0
  8  9  1  0
  9 10  2  0
 10 11  1  0
 11 12  1  0
 11 18  2  0
 12 13  2  0
 12 17  1  0
 13 14  1  0
 14 15  2  0
 15 16  1  0
 16 17  2  0
 19 20  2  0
  1 21  1  0
  1 22  1  0
  1 23  1  0
  4 24  1  0
  4 25  1  0
  5 26  1  0
  8 27  1  0
  9 28  1  0
 10 29  1  0
 13 30  1  0
 14 31  1  0
 15 32  1  0
 17 33  1  0
 18 34  1  0
 35 36  1  0
 36 37  1  0
 37 38  1  0
 38 39  1  0
 38 40  2  0
 40 35  1  0
 35 41  1  1
 36 42  1  0
 36 43  1  0
 39 44  1  0
 39 45  1  0
  6 35  1  0
M  CHG  1   5   1
M  END
>  <attachment_point>  (374) 
26

>  <score>  (374) 
<NA>

$$$$
CAT-4j
     RDKit          3D

 58 62  0  0  1  0  0  0  0  0999 V2000
   11.7106   -2.3098    1.2658 C   0  0  0  0  0  0  0  0  0  0  0  0
   13.0313   -2.6523    0.7225 N   0  0  0  0  0  0  0  0  0  0  0  0
   14.2010   -2.6281    1.3773 C   0  0  0  0  0  0  0  0  0  0  0  0
   14.3777   -2.3568    2.6732 N   0  0  0  0  0  0  0  0  0  0  0  0
   15.2217   -2.9197    0.5738 N   0  0  0  0  0  0  0  0  0  0  0  0
   14.7965   -3.2519   -0.7875 C   0  0  1  0  0  0  0  0  0  0  0  0
   15.3794   -2.2443   -1.7949 C   0  0  0  0  0  0  0  0  0  0  0  0
   15.9522   -2.6550   -3.0208 C   0  0  0  0  0  0  0  0  0  0  0  0
   16.4340   -1.6937   -3.9273 C   0  0  0  0  0  0  0  0  0  0  0  0
   16.3364   -0.3224   -3.6308 C   0  0  0  0  0  0  0  0  0  0  0  0
   15.7943    0.1250   -2.4073 C   0  0  0  0  0  0  0  0  0  0  0  0
   15.6711    1.5693   -2.0915 C   0  0  0  0  0  0  0  0  0  0  0  0
   15.3832    2.0354   -0.7903 C   0  0  0  0  0  0  0  0  0  0  0  0
   15.3534    3.4188   -0.5357 C   0  0  0  0  0  0  0  0  0  0  0  0
   15.5968    4.3049   -1.5946 C   0  0  0  0  0  0  0  0  0  0  0  0
   15.8275    3.8920   -2.8511 N   0  0  0  0  0  0  0  0  0  0  0  0
   15.8598    2.5642   -3.0762 C   0  0  0  0  0  0  0  0  0  0  0  0
   15.3327   -0.8573   -1.5012 C   0  0  0  0  0  0  0  0  0  0  0  0
   13.2767   -3.0094   -0.6368 C   0  0  0  0  0  0  0  0  0  0  0  0
   12.3981   -3.0674   -1.5055 O   0  0  0  0  0  0  0  0  0  0  0  0
    0.0000    0.0000    0.0000 H   0  0  0  0  0  0  0  0  0  0  0  0
    0.0000    0.0000    0.0000 H   0  0  0  0  0  0  0  0  0  0  0  0
    0.0000    0.0000    0.0000 H   0  0  0  0  0  0  0  0  0  0  0  0
    0.0000    0.0000    0.0000 H   0  0  0  0  0  0  0  0  0  0  0  0
    0.0000    0.0000    0.0000 H   0  0  0  0  0  0  0  0  0  0  0  0
    0.0000    0.0000    0.0000 H   0  0  0  0  0  0  0  0  0  0  0  0
    0.0000    0.0000    0.0000 H   0  0  0  0  0  0  0  0  0  0  0  0
    0.0000    0.0000    0.0000 H   0  0  0  0  0  0  0  0  0  0  0  0
    0.0000    0.0000    0.0000 H   0  0  0  0  0  0  0  0  0  0  0  0
    0.0000    0.0000    0.0000 H   0  0  0  0  0  0  0  0  0  0  0  0
    0.0000    0.0000    0.0000 H   0  0  0  0  0  0  0  0  0  0  0  0
    0.0000    0.0000    0.0000 H   0  0  0  0  0  0  0  0  0  0  0  0
    0.0000    0.0000    0.0000 H   0  0  0  0  0  0  0  0  0  0  0  0
    0.0000    0.0000    0.0000 H   0  0  0  0  0  0  0  0  0  0  0  0
    6.9481   -1.5270   -0.3698 C   0  0  0  0  0  0  0  0  0  0  0  0
    6.5524   -0.2519   -0.1129 C   0  0  0  0  0  0  0  0  0  0  0  0
    5.1832    0.0315   -0.0435 C   0  0  0  0  0  0  0  0  0  0  0  0
    4.2573   -0.9559   -0.2307 C   0  0  0  0  0  0  0  0  0  0  0  0
    2.8698   -0.6957   -0.1643 N   0  0  0  0  0  0  0  0  0  0  0  0
    2.4468    0.6574    0.1473 C   0  0  0  0  0  0  0  0  0  0  0  0
    1.0239    0.6137    0.5935 C   0  0  0  0  0  0  0  0  0  0  0  0
    0.2412   -0.0621   -0.3357 O   0  0  0  0  0  0  0  0  0  0  0  0
    0.5107   -1.4045   -0.4021 C   0  0  0  0  0  0  0  0  0  0  0  0
    1.9482   -1.7727   -0.4078 C   0  0  0  0  0  0  0  0  0  0  0  0
    4.6894   -2.2339   -0.4886 C   0  0  0  0  0  0  0  0  0  0  0  0
    6.0514   -2.5328   -0.5610 C   0  0  0  0  0  0  0  0  0  0  0  0
    7.2964    0.5270    0.0348 H   0  0  0  0  0  0  0  0  0  0  0  0
    4.8933    1.0569    0.1624 H   0  0  0  0  0  0  0  0  0  0  0  0
    2.5893    1.3217   -0.7224 H   0  0  0  0  0  0  0  0  0  0  0  0
    3.0501    1.0287    1.0223 H   0  0  0  0  0  0  0  0  0  0  0  0
    0.6443    1.6643    0.6197 H   0  0  0  0  0  0  0  0  0  0  0  0
    0.9338    0.1938    1.6112 H   0  0  0  0  0  0  0  0  0  0  0  0
    0.0637   -1.7755   -1.3714 H   0  0  0  0  0  0  0  0  0  0  0  0
   -0.0404   -1.9948    0.3831 H   0  0  0  0  0  0  0  0  0  0  0  0
    2.1468   -2.5523    0.3616 H   0  0  0  0  0  0  0  0  0  0  0  0
    2.2696   -2.2390   -1.3856 H   0  0  0  0  0  0  0  0  0  0  0  0
    3.9909   -3.0304   -0.6397 H   0  0  0  0  0  0  0  0  0  0  0  0
    6.3908   -3.5375   -0.7638 H   0  0  0  0  0  0  0  0  0  0  0  0
  1  2  1  0
  2  3  1  0
  2 19  1  0
  3  4  1  0
  3  5  2  0
  5  6  1  0
  6  7  1  1
  6 19  1  0
  7  8  2  0
  7 18  1  0
  8  9  1  0
  9 10  2  0
 10 11  1  0
 11 12  1  0
 11 18  2  0
 12 13  2  0
 12 17  1  0
 13 14  1  0
 14 15  2  0
 15 16  1  0
 16 17  2  0
 19 20  2  0
  1 21  1  0
  1 22  1  0
  1 23  1  0
  4 24  1  0
  4 25  1  0
  5 26  1  0
  8 27  1  0
  9 28  1  0
 10 29  1  0
 13 30  1  0
 14 31  1  0
 15 32  1  0
 17 33  1  0
 18 34  1  0
 35 36  2  0
 36 37  1  0
 37 38  2  0
 38 39  1  0
 39 40  1  0
 40 41  1  0
 41 42  1  0
 42 43  1  0
 43 44  1  0
 38 45  1  0
 45 46  2  0
 46 35  1  0
 44 39  1  0
 36 47  1  0
 37 48  1  0
 40 49  1  0
 40 50  1  0
 41 51  1  0
 41 52  1  0
 43 53  1  0
 43 54  1  0
 44 55  1  0
 44 56  1  0
 45 57  1  0
 46 58  1  0
  6 35  1  0
M  CHG  1   5   1
M  END
>  <attachment_point>  (375) 
26

>  <score>  (375) 
<NA>

$$$$
CAT-4j
     RDKit          3D

 44 47  0  0  1  0  0  0  0  0999 V2000
   11.7106   -2.3098    1.2658 C   0  0  0  0  0  0  0  0  0  0  0  0
   13.0313   -2.6523    0.7225 N   0  0  0  0  0  0  0  0  0  0  0  0
   14.2010   -2.6281    1.3773 C   0  0  0  0  0  0  0  0  0  0  0  0
   14.3777   -2.3568    2.6732 N   0  0  0  0  0  0  0  0  0  0  0  0
   15.2217   -2.9197    0.5738 N   0  0  0  0  0  0  0  0  0  0  0  0
   14.7965   -3.2519   -0.7875 C   0  0  1  0  0  0  0  0  0  0  0  0
   15.3794   -2.2443   -1.7949 C   0  0  0  0  0  0  0  0  0  0  0  0
   15.9522   -2.6550   -3.0208 C   0  0  0  0  0  0  0  0  0  0  0  0
   16.4340   -1.6937   -3.9273 C   0  0  0  0  0  0  0  0  0  0  0  0
   16.3364   -0.3224   -3.6308 C   0  0  0  0  0  0  0  0  0  0  0  0
   15.7943    0.1250   -2.4073 C   0  0  0  0  0  0  0  0  0  0  0  0
   15.6711    1.5693   -2.0915 C   0  0  0  0  0  0  0  0  0  0  0  0
   15.3832    2.0354   -0.7903 C   0  0  0  0  0  0  0  0  0  0  0  0
   15.3534    3.4188   -0.5357 C   0  0  0  0  0  0  0  0  0  0  0  0
   15.5968    4.3049   -1.5946 C   0  0  0  0  0  0  0  0  0  0  0  0
   15.8275    3.8920   -2.8511 N   0  0  0  0  0  0  0  0  0  0  0  0
   15.8598    2.5642   -3.0762 C   0  0  0  0  0  0  0  0  0  0  0  0
   15.3327   -0.8573   -1.5012 C   0  0  0  0  0  0  0  0  0  0  0  0
   13.2767   -3.0094   -0.6368 C   0  0  0  0  0  0  0  0  0  0  0  0
   12.3981   -3.0674   -1.5055 O   0  0  0  0  0  0  0  0  0  0  0  0
    0.0000    0.0000    0.0000 H   0  0  0  0  0  0  0  0  0  0  0  0
    0.0000    0.0000    0.0000 H   0  0  0  0  0  0  0  0  0  0  0  0
    0.0000    0.0000    0.0000 H   0  0  0  0  0  0  0  0  0  0  0  0
    0.0000    0.0000    0.0000 H   0  0  0  0  0  0  0  0  0  0  0  0
    0.0000    0.0000    0.0000 H   0  0  0  0  0  0  0  0  0  0  0  0
    0.0000    0.0000    0.0000 H   0  0  0  0  0  0  0  0  0  0  0  0
    0.0000    0.0000    0.0000 H   0  0  0  0  0  0  0  0  0  0  0  0
    0.0000    0.0000    0.0000 H   0  0  0  0  0  0  0  0  0  0  0  0
    0.0000    0.0000    0.0000 H   0  0  0  0  0  0  0  0  0  0  0  0
    0.0000    0.0000    0.0000 H   0  0  0  0  0  0  0  0  0  0  0  0
    0.0000    0.0000    0.0000 H   0  0  0  0  0  0  0  0  0  0  0  0
    0.0000    0.0000    0.0000 H   0  0  0  0  0  0  0  0  0  0  0  0
    0.0000    0.0000    0.0000 H   0  0  0  0  0  0  0  0  0  0  0  0
    0.0000    0.0000    0.0000 H   0  0  0  0  0  0  0  0  0  0  0  0
    6.9690   -1.5316   -0.3709 C   0  0  0  0  0  0  0  0  0  0  0  0
    6.0293   -2.3947   -0.5136 N   0  0  0  0  0  0  0  0  0  0  0  0
    4.7388   -1.7606   -0.3814 C   0  0  0  0  0  0  0  0  0  0  0  0
    5.0609   -0.2974   -0.5733 C   0  0  0  0  0  0  0  0  0  0  0  0
    6.4383   -0.2411   -0.1339 N   0  0  0  0  0  0  0  0  0  0  0  0
    3.9910   -2.1307   -1.1066 H   0  0  0  0  0  0  0  0  0  0  0  0
    4.4202   -1.8894    0.6730 H   0  0  0  0  0  0  0  0  0  0  0  0
    5.0643    0.0005   -1.6493 H   0  0  0  0  0  0  0  0  0  0  0  0
    4.3925    0.3563    0.0337 H   0  0  0  0  0  0  0  0  0  0  0  0
    6.9662    0.5464    0.2715 H   0  0  0  0  0  0  0  0  0  0  0  0
  1  2  1  0
  2  3  1  0
  2 19  1  0
  3  4  1  0
  3  5  2  0
  5  6  1  0
  6  7  1  1
  6 19  1  0
  7  8  2  0
  7 18  1  0
  8  9  1  0
  9 10  2  0
 10 11  1  0
 11 12  1  0
 11 18  2  0
 12 13  2  0
 12 17  1  0
 13 14  1  0
 14 15  2  0
 15 16  1  0
 16 17  2  0
 19 20  2  0
  1 21  1  0
  1 22  1  0
  1 23  1  0
  4 24  1  0
  4 25  1  0
  5 26  1  0
  8 27  1  0
  9 28  1  0
 10 29  1  0
 13 30  1  0
 14 31  1  0
 15 32  1  0
 17 33  1  0
 18 34  1  0
 35 36  2  0
 36 37  1  0
 37 38  1  0
 38 39  1  0
 39 35  1  0
 37 40  1  0
 37 41  1  0
 38 42  1  0
 38 43  1  0
 39 44  1  0
  6 35  1  0
M  CHG  1   5   1
M  END
>  <attachment_point>  (376) 
26

>  <score>  (376) 
<NA>

$$$$
CAT-4j
     RDKit          3D

 47 49  0  0  1  0  0  0  0  0999 V2000
   11.7106   -2.3098    1.2658 C   0  0  0  0  0  0  0  0  0  0  0  0
   13.0313   -2.6523    0.7225 N   0  0  0  0  0  0  0  0  0  0  0  0
   14.2010   -2.6281    1.3773 C   0  0  0  0  0  0  0  0  0  0  0  0
   14.3777   -2.3568    2.6732 N   0  0  0  0  0  0  0  0  0  0  0  0
   15.2217   -2.9197    0.5738 N   0  0  0  0  0  0  0  0  0  0  0  0
   14.7965   -3.2519   -0.7875 C   0  0  1  0  0  0  0  0  0  0  0  0
   15.3794   -2.2443   -1.7949 C   0  0  0  0  0  0  0  0  0  0  0  0
   15.9522   -2.6550   -3.0208 C   0  0  0  0  0  0  0  0  0  0  0  0
   16.4340   -1.6937   -3.9273 C   0  0  0  0  0  0  0  0  0  0  0  0
   16.3364   -0.3224   -3.6308 C   0  0  0  0  0  0  0  0  0  0  0  0
   15.7943    0.1250   -2.4073 C   0  0  0  0  0  0  0  0  0  0  0  0
   15.6711    1.5693   -2.0915 C   0  0  0  0  0  0  0  0  0  0  0  0
   15.3832    2.0354   -0.7903 C   0  0  0  0  0  0  0  0  0  0  0  0
   15.3534    3.4188   -0.5357 C   0  0  0  0  0  0  0  0  0  0  0  0
   15.5968    4.3049   -1.5946 C   0  0  0  0  0  0  0  0  0  0  0  0
   15.8275    3.8920   -2.8511 N   0  0  0  0  0  0  0  0  0  0  0  0
   15.8598    2.5642   -3.0762 C   0  0  0  0  0  0  0  0  0  0  0  0
   15.3327   -0.8573   -1.5012 C   0  0  0  0  0  0  0  0  0  0  0  0
   13.2767   -3.0094   -0.6368 C   0  0  0  0  0  0  0  0  0  0  0  0
   12.3981   -3.0674   -1.5055 O   0  0  0  0  0  0  0  0  0  0  0  0
    0.0000    0.0000    0.0000 H   0  0  0  0  0  0  0  0  0  0  0  0
    0.0000    0.0000    0.0000 H   0  0  0  0  0  0  0  0  0  0  0  0
    0.0000    0.0000    0.0000 H   0  0  0  0  0  0  0  0  0  0  0  0
    0.0000    0.0000    0.0000 H   0  0  0  0  0  0  0  0  0  0  0  0
    0.0000    0.0000    0.0000 H   0  0  0  0  0  0  0  0  0  0  0  0
    0.0000    0.0000    0.0000 H   0  0  0  0  0  0  0  0  0  0  0  0
    0.0000    0.0000    0.0000 H   0  0  0  0  0  0  0  0  0  0  0  0
    0.0000    0.0000    0.0000 H   0  0  0  0  0  0  0  0  0  0  0  0
    0.0000    0.0000    0.0000 H   0  0  0  0  0  0  0  0  0  0  0  0
    0.0000    0.0000    0.0000 H   0  0  0  0  0  0  0  0  0  0  0  0
    0.0000    0.0000    0.0000 H   0  0  0  0  0  0  0  0  0  0  0  0
    0.0000    0.0000    0.0000 H   0  0  0  0  0  0  0  0  0  0  0  0
    0.0000    0.0000    0.0000 H   0  0  0  0  0  0  0  0  0  0  0  0
    0.0000    0.0000    0.0000 H   0  0  0  0  0  0  0  0  0  0  0  0
    6.9849   -1.5351   -0.3717 N   0  0  0  0  0  0  0  0  0  0  0  0
    6.7532   -1.0531    0.9971 C   0  0  0  0  0  0  0  0  0  0  0  0
    7.6155    0.1764    1.2116 C   0  0  0  0  0  0  0  0  0  0  0  0
    9.0603   -0.2803    1.0057 C   0  0  0  0  0  0  0  0  0  0  0  0
    9.9632    0.7458    1.1715 O   0  0  0  0  0  0  0  0  0  0  0  0
    6.5219   -2.4424   -0.5262 H   0  0  0  0  0  0  0  0  0  0  0  0
    5.6957   -0.8888    1.1776 H   0  0  0  0  0  0  0  0  0  0  0  0
    7.1351   -1.8633    1.6589 H   0  0  0  0  0  0  0  0  0  0  0  0
    7.4760    0.5797    2.2195 H   0  0  0  0  0  0  0  0  0  0  0  0
    7.3103    0.8971    0.4183 H   0  0  0  0  0  0  0  0  0  0  0  0
    9.2303   -1.0849    1.7467 H   0  0  0  0  0  0  0  0  0  0  0  0
    9.2057   -0.7157    0.0078 H   0  0  0  0  0  0  0  0  0  0  0  0
    9.5706    1.6264    0.9551 H   0  0  0  0  0  0  0  0  0  0  0  0
  1  2  1  0
  2  3  1  0
  2 19  1  0
  3  4  1  0
  3  5  2  0
  5  6  1  0
  6  7  1  0
  6 19  1  0
  7  8  2  0
  7 18  1  0
  8  9  1  0
  9 10  2  0
 10 11  1  0
 11 12  1  0
 11 18  2  0
 12 13  2  0
 12 17  1  0
 13 14  1  0
 14 15  2  0
 15 16  1  0
 16 17  2  0
 19 20  2  0
  1 21  1  0
  1 22  1  0
  1 23  1  0
  4 24  1  0
  4 25  1  0
  5 26  1  0
  8 27  1  0
  9 28  1  0
 10 29  1  0
 13 30  1  0
 14 31  1  0
 15 32  1  0
 17 33  1  0
 18 34  1  0
 35 36  1  0
 36 37  1  0
 37 38  1  0
 38 39  1  0
 35 40  1  0
 36 41  1  0
 36 42  1  0
 37 43  1  0
 37 44  1  0
 38 45  1  0
 38 46  1  0
 39 47  1  0
  6 35  1  6
M  CHG  1   5   1
M  END
>  <attachment_point>  (377) 
26

>  <score>  (377) 
<NA>

$$$$
CAT-4j
     RDKit          3D

 40 42  0  0  1  0  0  0  0  0999 V2000
   11.7106   -2.3098    1.2658 C   0  0  0  0  0  0  0  0  0  0  0  0
   13.0313   -2.6523    0.7225 N   0  0  0  0  0  0  0  0  0  0  0  0
   14.2010   -2.6281    1.3773 C   0  0  0  0  0  0  0  0  0  0  0  0
   14.3777   -2.3568    2.6732 N   0  0  0  0  0  0  0  0  0  0  0  0
   15.2217   -2.9197    0.5738 N   0  0  0  0  0  0  0  0  0  0  0  0
   14.7965   -3.2519   -0.7875 C   0  0  1  0  0  0  0  0  0  0  0  0
   15.3794   -2.2443   -1.7949 C   0  0  0  0  0  0  0  0  0  0  0  0
   15.9522   -2.6550   -3.0208 C   0  0  0  0  0  0  0  0  0  0  0  0
   16.4340   -1.6937   -3.9273 C   0  0  0  0  0  0  0  0  0  0  0  0
   16.3364   -0.3224   -3.6308 C   0  0  0  0  0  0  0  0  0  0  0  0
   15.7943    0.1250   -2.4073 C   0  0  0  0  0  0  0  0  0  0  0  0
   15.6711    1.5693   -2.0915 C   0  0  0  0  0  0  0  0  0  0  0  0
   15.3832    2.0354   -0.7903 C   0  0  0  0  0  0  0  0  0  0  0  0
   15.3534    3.4188   -0.5357 C   0  0  0  0  0  0  0  0  0  0  0  0
   15.5968    4.3049   -1.5946 C   0  0  0  0  0  0  0  0  0  0  0  0
   15.8275    3.8920   -2.8511 N   0  0  0  0  0  0  0  0  0  0  0  0
   15.8598    2.5642   -3.0762 C   0  0  0  0  0  0  0  0  0  0  0  0
   15.3327   -0.8573   -1.5012 C   0  0  0  0  0  0  0  0  0  0  0  0
   13.2767   -3.0094   -0.6368 C   0  0  0  0  0  0  0  0  0  0  0  0
   12.3981   -3.0674   -1.5055 O   0  0  0  0  0  0  0  0  0  0  0  0
    0.0000    0.0000    0.0000 H   0  0  0  0  0  0  0  0  0  0  0  0
    0.0000    0.0000    0.0000 H   0  0  0  0  0  0  0  0  0  0  0  0
    0.0000    0.0000    0.0000 H   0  0  0  0  0  0  0  0  0  0  0  0
    0.0000    0.0000    0.0000 H   0  0  0  0  0  0  0  0  0  0  0  0
    0.0000    0.0000    0.0000 H   0  0  0  0  0  0  0  0  0  0  0  0
    0.0000    0.0000    0.0000 H   0  0  0  0  0  0  0  0  0  0  0  0
    0.0000    0.0000    0.0000 H   0  0  0  0  0  0  0  0  0  0  0  0
    0.0000    0.0000    0.0000 H   0  0  0  0  0  0  0  0  0  0  0  0
    0.0000    0.0000    0.0000 H   0  0  0  0  0  0  0  0  0  0  0  0
    0.0000    0.0000    0.0000 H   0  0  0  0  0  0  0  0  0  0  0  0
    0.0000    0.0000    0.0000 H   0  0  0  0  0  0  0  0  0  0  0  0
    0.0000    0.0000    0.0000 H   0  0  0  0  0  0  0  0  0  0  0  0
    0.0000    0.0000    0.0000 H   0  0  0  0  0  0  0  0  0  0  0  0
    0.0000    0.0000    0.0000 H   0  0  0  0  0  0  0  0  0  0  0  0
    6.9798   -1.5340   -0.3715 C   0  0  0  0  0  0  0  0  0  0  0  0
    6.5094   -0.5227    0.0872 O   0  0  0  0  0  0  0  0  0  0  0  0
    6.0460   -2.5515   -0.9057 C   0  0  0  0  0  0  0  0  0  0  0  0
    6.1825   -3.7434   -0.2338 F   0  0  0  0  0  0  0  0  0  0  0  0
    6.3407   -2.7290   -2.2505 F   0  0  0  0  0  0  0  0  0  0  0  0
    4.7436   -2.1605   -0.8141 F   0  0  0  0  0  0  0  0  0  0  0  0
  1  2  1  0
  2  3  1  0
  2 19  1  0
  3  4  1  0
  3  5  2  0
  5  6  1  0
  6  7  1  0
  6 19  1  0
  7  8  2  0
  7 18  1  0
  8  9  1  0
  9 10  2  0
 10 11  1  0
 11 12  1  0
 11 18  2  0
 12 13  2  0
 12 17  1  0
 13 14  1  0
 14 15  2  0
 15 16  1  0
 16 17  2  0
 19 20  2  0
  1 21  1  0
  1 22  1  0
  1 23  1  0
  4 24  1  0
  4 25  1  0
  5 26  1  0
  8 27  1  0
  9 28  1  0
 10 29  1  0
 13 30  1  0
 14 31  1  0
 15 32  1  0
 17 33  1  0
 18 34  1  0
 35 36  2  0
 35 37  1  0
 37 38  1  0
 37 39  1  0
 37 40  1  0
  6 35  1  6
M  CHG  1   5   1
M  END
>  <attachment_point>  (378) 
26

>  <score>  (378) 
<NA>

$$$$
CAT-4j
     RDKit          3D

 50 54  0  0  1  0  0  0  0  0999 V2000
   11.7106   -2.3098    1.2658 C   0  0  0  0  0  0  0  0  0  0  0  0
   13.0313   -2.6523    0.7225 N   0  0  0  0  0  0  0  0  0  0  0  0
   14.2010   -2.6281    1.3773 C   0  0  0  0  0  0  0  0  0  0  0  0
   14.3777   -2.3568    2.6732 N   0  0  0  0  0  0  0  0  0  0  0  0
   15.2217   -2.9197    0.5738 N   0  0  0  0  0  0  0  0  0  0  0  0
   14.7965   -3.2519   -0.7875 C   0  0  1  0  0  0  0  0  0  0  0  0
   15.3794   -2.2443   -1.7949 C   0  0  0  0  0  0  0  0  0  0  0  0
   15.9522   -2.6550   -3.0208 C   0  0  0  0  0  0  0  0  0  0  0  0
   16.4340   -1.6937   -3.9273 C   0  0  0  0  0  0  0  0  0  0  0  0
   16.3364   -0.3224   -3.6308 C   0  0  0  0  0  0  0  0  0  0  0  0
   15.7943    0.1250   -2.4073 C   0  0  0  0  0  0  0  0  0  0  0  0
   15.6711    1.5693   -2.0915 C   0  0  0  0  0  0  0  0  0  0  0  0
   15.3832    2.0354   -0.7903 C   0  0  0  0  0  0  0  0  0  0  0  0
   15.3534    3.4188   -0.5357 C   0  0  0  0  0  0  0  0  0  0  0  0
   15.5968    4.3049   -1.5946 C   0  0  0  0  0  0  0  0  0  0  0  0
   15.8275    3.8920   -2.8511 N   0  0  0  0  0  0  0  0  0  0  0  0
   15.8598    2.5642   -3.0762 C   0  0  0  0  0  0  0  0  0  0  0  0
   15.3327   -0.8573   -1.5012 C   0  0  0  0  0  0  0  0  0  0  0  0
   13.2767   -3.0094   -0.6368 C   0  0  0  0  0  0  0  0  0  0  0  0
   12.3981   -3.0674   -1.5055 O   0  0  0  0  0  0  0  0  0  0  0  0
    0.0000    0.0000    0.0000 H   0  0  0  0  0  0  0  0  0  0  0  0
    0.0000    0.0000    0.0000 H   0  0  0  0  0  0  0  0  0  0  0  0
    0.0000    0.0000    0.0000 H   0  0  0  0  0  0  0  0  0  0  0  0
    0.0000    0.0000    0.0000 H   0  0  0  0  0  0  0  0  0  0  0  0
    0.0000    0.0000    0.0000 H   0  0  0  0  0  0  0  0  0  0  0  0
    0.0000    0.0000    0.0000 H   0  0  0  0  0  0  0  0  0  0  0  0
    0.0000    0.0000    0.0000 H   0  0  0  0  0  0  0  0  0  0  0  0
    0.0000    0.0000    0.0000 H   0  0  0  0  0  0  0  0  0  0  0  0
    0.0000    0.0000    0.0000 H   0  0  0  0  0  0  0  0  0  0  0  0
    0.0000    0.0000    0.0000 H   0  0  0  0  0  0  0  0  0  0  0  0
    0.0000    0.0000    0.0000 H   0  0  0  0  0  0  0  0  0  0  0  0
    0.0000    0.0000    0.0000 H   0  0  0  0  0  0  0  0  0  0  0  0
    0.0000    0.0000    0.0000 H   0  0  0  0  0  0  0  0  0  0  0  0
    0.0000    0.0000    0.0000 H   0  0  0  0  0  0  0  0  0  0  0  0
    7.0013   -1.5387   -0.3726 C   0  0  0  0  0  0  0  0  0  0  0  0
    6.0552   -2.5333   -0.2200 C   0  0  0  0  0  0  0  0  0  0  0  0
    4.7279   -2.1605   -0.1562 C   0  0  0  0  0  0  0  0  0  0  0  0
    4.3460   -0.8356   -0.2412 C   0  0  0  0  0  0  0  0  0  0  0  0
    3.0562   -0.4596   -0.1804 N   0  0  0  0  0  0  0  0  0  0  0  0
    2.6575    0.8282   -0.2611 C   0  0  0  0  0  0  0  0  0  0  0  0
    3.5719    1.8705   -0.4155 C   0  0  0  0  0  0  0  0  0  0  0  0
    4.8982    1.4961   -0.4791 C   0  0  0  0  0  0  0  0  0  0  0  0
    5.2825    0.1703   -0.3941 C   0  0  0  0  0  0  0  0  0  0  0  0
    6.6074   -0.2145   -0.4567 C   0  0  0  0  0  0  0  0  0  0  0  0
    6.3412   -3.5860   -0.1511 H   0  0  0  0  0  0  0  0  0  0  0  0
    3.9878   -2.9476   -0.0361 H   0  0  0  0  0  0  0  0  0  0  0  0
    1.6238    1.0792   -0.2081 H   0  0  0  0  0  0  0  0  0  0  0  0
    3.2539    2.9028   -0.4803 H   0  0  0  0  0  0  0  0  0  0  0  0
    5.6294    2.2827   -0.5985 H   0  0  0  0  0  0  0  0  0  0  0  0
    7.3349    0.5869   -0.5771 H   0  0  0  0  0  0  0  0  0  0  0  0
  1  2  1  0
  2  3  1  0
  2 19  1  0
  3  4  1  0
  3  5  2  0
  5  6  1  0
  6  7  1  1
  6 19  1  0
  7  8  2  0
  7 18  1  0
  8  9  1  0
  9 10  2  0
 10 11  1  0
 11 12  1  0
 11 18  2  0
 12 13  2  0
 12 17  1  0
 13 14  1  0
 14 15  2  0
 15 16  1  0
 16 17  2  0
 19 20  2  0
  1 21  1  0
  1 22  1  0
  1 23  1  0
  4 24  1  0
  4 25  1  0
  5 26  1  0
  8 27  1  0
  9 28  1  0
 10 29  1  0
 13 30  1  0
 14 31  1  0
 15 32  1  0
 17 33  1  0
 18 34  1  0
 35 36  2  0
 36 37  1  0
 37 38  2  0
 38 39  1  0
 39 40  2  0
 40 41  1  0
 41 42  2  0
 42 43  1  0
 43 44  2  0
 44 35  1  0
 43 38  1  0
 36 45  1  0
 37 46  1  0
 40 47  1  0
 41 48  1  0
 42 49  1  0
 44 50  1  0
  6 35  1  0
M  CHG  1   5   1
M  END
>  <attachment_point>  (379) 
26

>  <score>  (379) 
<NA>

$$$$
CAT-4j
     RDKit          3D

 47 50  0  0  1  0  0  0  0  0999 V2000
   11.7106   -2.3098    1.2658 C   0  0  0  0  0  0  0  0  0  0  0  0
   13.0313   -2.6523    0.7225 N   0  0  0  0  0  0  0  0  0  0  0  0
   14.2010   -2.6281    1.3773 C   0  0  0  0  0  0  0  0  0  0  0  0
   14.3777   -2.3568    2.6732 N   0  0  0  0  0  0  0  0  0  0  0  0
   15.2217   -2.9197    0.5738 N   0  0  0  0  0  0  0  0  0  0  0  0
   14.7965   -3.2519   -0.7875 C   0  0  1  0  0  0  0  0  0  0  0  0
   15.3794   -2.2443   -1.7949 C   0  0  0  0  0  0  0  0  0  0  0  0
   15.9522   -2.6550   -3.0208 C   0  0  0  0  0  0  0  0  0  0  0  0
   16.4340   -1.6937   -3.9273 C   0  0  0  0  0  0  0  0  0  0  0  0
   16.3364   -0.3224   -3.6308 C   0  0  0  0  0  0  0  0  0  0  0  0
   15.7943    0.1250   -2.4073 C   0  0  0  0  0  0  0  0  0  0  0  0
   15.6711    1.5693   -2.0915 C   0  0  0  0  0  0  0  0  0  0  0  0
   15.3832    2.0354   -0.7903 C   0  0  0  0  0  0  0  0  0  0  0  0
   15.3534    3.4188   -0.5357 C   0  0  0  0  0  0  0  0  0  0  0  0
   15.5968    4.3049   -1.5946 C   0  0  0  0  0  0  0  0  0  0  0  0
   15.8275    3.8920   -2.8511 N   0  0  0  0  0  0  0  0  0  0  0  0
   15.8598    2.5642   -3.0762 C   0  0  0  0  0  0  0  0  0  0  0  0
   15.3327   -0.8573   -1.5012 C   0  0  0  0  0  0  0  0  0  0  0  0
   13.2767   -3.0094   -0.6368 C   0  0  0  0  0  0  0  0  0  0  0  0
   12.3981   -3.0674   -1.5055 O   0  0  0  0  0  0  0  0  0  0  0  0
    0.0000    0.0000    0.0000 H   0  0  0  0  0  0  0  0  0  0  0  0
    0.0000    0.0000    0.0000 H   0  0  0  0  0  0  0  0  0  0  0  0
    0.0000    0.0000    0.0000 H   0  0  0  0  0  0  0  0  0  0  0  0
    0.0000    0.0000    0.0000 H   0  0  0  0  0  0  0  0  0  0  0  0
    0.0000    0.0000    0.0000 H   0  0  0  0  0  0  0  0  0  0  0  0
    0.0000    0.0000    0.0000 H   0  0  0  0  0  0  0  0  0  0  0  0
    0.0000    0.0000    0.0000 H   0  0  0  0  0  0  0  0  0  0  0  0
    0.0000    0.0000    0.0000 H   0  0  0  0  0  0  0  0  0  0  0  0
    0.0000    0.0000    0.0000 H   0  0  0  0  0  0  0  0  0  0  0  0
    0.0000    0.0000    0.0000 H   0  0  0  0  0  0  0  0  0  0  0  0
    0.0000    0.0000    0.0000 H   0  0  0  0  0  0  0  0  0  0  0  0
    0.0000    0.0000    0.0000 H   0  0  0  0  0  0  0  0  0  0  0  0
    0.0000    0.0000    0.0000 H   0  0  0  0  0  0  0  0  0  0  0  0
    0.0000    0.0000    0.0000 H   0  0  0  0  0  0  0  0  0  0  0  0
    6.9681   -1.5314   -0.3709 C   0  0  1  0  0  0  0  0  0  0  0  0
    6.6899   -1.4588    1.1324 C   0  0  0  0  0  0  0  0  0  0  0  0
    7.3254   -0.0944    1.4219 C   0  0  0  0  0  0  0  0  0  0  0  0
    6.7758    0.7072    0.2371 C   0  0  0  0  0  0  0  0  0  0  0  0
    6.8165   -0.2083   -0.8850 N   0  0  0  0  0  0  0  0  0  0  0  0
    6.3597   -2.2938   -0.8693 H   0  0  0  0  0  0  0  0  0  0  0  0
    5.5940   -1.3465    1.3095 H   0  0  0  0  0  0  0  0  0  0  0  0
    7.1544   -2.2670    1.6892 H   0  0  0  0  0  0  0  0  0  0  0  0
    7.0328    0.3129    2.3812 H   0  0  0  0  0  0  0  0  0  0  0  0
    8.4020   -0.1978    1.2439 H   0  0  0  0  0  0  0  0  0  0  0  0
    5.7127    0.8873    0.4677 H   0  0  0  0  0  0  0  0  0  0  0  0
    7.3626    1.6196    0.0577 H   0  0  0  0  0  0  0  0  0  0  0  0
    7.6114    0.0643   -1.5309 H   0  0  0  0  0  0  0  0  0  0  0  0
  1  2  1  0
  2  3  1  0
  2 19  1  0
  3  4  1  0
  3  5  2  0
  5  6  1  0
  6  7  1  1
  6 19  1  0
  7  8  2  0
  7 18  1  0
  8  9  1  0
  9 10  2  0
 10 11  1  0
 11 12  1  0
 11 18  2  0
 12 13  2  0
 12 17  1  0
 13 14  1  0
 14 15  2  0
 15 16  1  0
 16 17  2  0
 19 20  2  0
  1 21  1  0
  1 22  1  0
  1 23  1  0
  4 24  1  0
  4 25  1  0
  5 26  1  0
  8 27  1  0
  9 28  1  0
 10 29  1  0
 13 30  1  0
 14 31  1  0
 15 32  1  0
 17 33  1  0
 18 34  1  0
 35 36  1  0
 36 37  1  0
 37 38  1  0
 38 39  1  0
 39 35  1  0
 35 40  1  1
 36 41  1  0
 36 42  1  0
 37 43  1  0
 37 44  1  0
 38 45  1  0
 38 46  1  0
 39 47  1  0
  6 35  1  0
M  CHG  1   5   1
M  END
>  <attachment_point>  (380) 
26

>  <score>  (380) 
<NA>

$$$$
CAT-4j
     RDKit          3D

 49 52  0  0  1  0  0  0  0  0999 V2000
   11.7106   -2.3098    1.2658 C   0  0  0  0  0  0  0  0  0  0  0  0
   13.0313   -2.6523    0.7225 N   0  0  0  0  0  0  0  0  0  0  0  0
   14.2010   -2.6281    1.3773 C   0  0  0  0  0  0  0  0  0  0  0  0
   14.3777   -2.3568    2.6732 N   0  0  0  0  0  0  0  0  0  0  0  0
   15.2217   -2.9197    0.5738 N   0  0  0  0  0  0  0  0  0  0  0  0
   14.7965   -3.2519   -0.7875 C   0  0  1  0  0  0  0  0  0  0  0  0
   15.3794   -2.2443   -1.7949 C   0  0  0  0  0  0  0  0  0  0  0  0
   15.9522   -2.6550   -3.0208 C   0  0  0  0  0  0  0  0  0  0  0  0
   16.4340   -1.6937   -3.9273 C   0  0  0  0  0  0  0  0  0  0  0  0
   16.3364   -0.3224   -3.6308 C   0  0  0  0  0  0  0  0  0  0  0  0
   15.7943    0.1250   -2.4073 C   0  0  0  0  0  0  0  0  0  0  0  0
   15.6711    1.5693   -2.0915 C   0  0  0  0  0  0  0  0  0  0  0  0
   15.3832    2.0354   -0.7903 C   0  0  0  0  0  0  0  0  0  0  0  0
   15.3534    3.4188   -0.5357 C   0  0  0  0  0  0  0  0  0  0  0  0
   15.5968    4.3049   -1.5946 C   0  0  0  0  0  0  0  0  0  0  0  0
   15.8275    3.8920   -2.8511 N   0  0  0  0  0  0  0  0  0  0  0  0
   15.8598    2.5642   -3.0762 C   0  0  0  0  0  0  0  0  0  0  0  0
   15.3327   -0.8573   -1.5012 C   0  0  0  0  0  0  0  0  0  0  0  0
   13.2767   -3.0094   -0.6368 C   0  0  0  0  0  0  0  0  0  0  0  0
   12.3981   -3.0674   -1.5055 O   0  0  0  0  0  0  0  0  0  0  0  0
    0.0000    0.0000    0.0000 H   0  0  0  0  0  0  0  0  0  0  0  0
    0.0000    0.0000    0.0000 H   0  0  0  0  0  0  0  0  0  0  0  0
    0.0000    0.0000    0.0000 H   0  0  0  0  0  0  0  0  0  0  0  0
    0.0000    0.0000    0.0000 H   0  0  0  0  0  0  0  0  0  0  0  0
    0.0000    0.0000    0.0000 H   0  0  0  0  0  0  0  0  0  0  0  0
    0.0000    0.0000    0.0000 H   0  0  0  0  0  0  0  0  0  0  0  0
    0.0000    0.0000    0.0000 H   0  0  0  0  0  0  0  0  0  0  0  0
    0.0000    0.0000    0.0000 H   0  0  0  0  0  0  0  0  0  0  0  0
    0.0000    0.0000    0.0000 H   0  0  0  0  0  0  0  0  0  0  0  0
    0.0000    0.0000    0.0000 H   0  0  0  0  0  0  0  0  0  0  0  0
    0.0000    0.0000    0.0000 H   0  0  0  0  0  0  0  0  0  0  0  0
    0.0000    0.0000    0.0000 H   0  0  0  0  0  0  0  0  0  0  0  0
    0.0000    0.0000    0.0000 H   0  0  0  0  0  0  0  0  0  0  0  0
    0.0000    0.0000    0.0000 H   0  0  0  0  0  0  0  0  0  0  0  0
    6.8301   -1.5011   -0.3635 S   0  0  0  0  0  0  0  0  0  0  0  0
    6.8229   -1.2895    1.4377 C   0  0  0  0  0  0  0  0  0  0  0  0
    7.6366   -0.1060    1.8241 C   0  0  0  0  0  0  0  0  0  0  0  0
    7.0209    1.1466    1.9125 C   0  0  0  0  0  0  0  0  0  0  0  0
    7.7608    2.2571    2.2697 C   0  0  0  0  0  0  0  0  0  0  0  0
    9.1088    2.1878    2.5496 C   0  0  0  0  0  0  0  0  0  0  0  0
    9.7103    0.9515    2.4610 C   0  0  0  0  0  0  0  0  0  0  0  0
    8.9854   -0.1828    2.1028 C   0  0  0  0  0  0  0  0  0  0  0  0
    7.2193   -2.2091    1.9027 H   0  0  0  0  0  0  0  0  0  0  0  0
    5.7888   -1.0771    1.7271 H   0  0  0  0  0  0  0  0  0  0  0  0
    5.9615    1.1855    1.6897 H   0  0  0  0  0  0  0  0  0  0  0  0
    7.2489    3.2069    2.3268 H   0  0  0  0  0  0  0  0  0  0  0  0
    9.7168    3.0349    2.8319 H   0  0  0  0  0  0  0  0  0  0  0  0
   10.7647    0.7791    2.6591 H   0  0  0  0  0  0  0  0  0  0  0  0
    9.4438   -1.1611    2.0283 H   0  0  0  0  0  0  0  0  0  0  0  0
  1  2  1  0
  2  3  1  0
  2 19  1  0
  3  4  1  0
  3  5  2  0
  5  6  1  0
  6  7  1  0
  6 19  1  0
  7  8  2  0
  7 18  1  0
  8  9  1  0
  9 10  2  0
 10 11  1  0
 11 12  1  0
 11 18  2  0
 12 13  2  0
 12 17  1  0
 13 14  1  0
 14 15  2  0
 15 16  1  0
 16 17  2  0
 19 20  2  0
  1 21  1  0
  1 22  1  0
  1 23  1  0
  4 24  1  0
  4 25  1  0
  5 26  1  0
  8 27  1  0
  9 28  1  0
 10 29  1  0
 13 30  1  0
 14 31  1  0
 15 32  1  0
 17 33  1  0
 18 34  1  0
 35 36  1  0
 36 37  1  0
 37 38  2  0
 38 39  1  0
 39 40  2  0
 40 41  1  0
 41 42  2  0
 42 37  1  0
 36 43  1  0
 36 44  1  0
 38 45  1  0
 39 46  1  0
 40 47  1  0
 41 48  1  0
 42 49  1  0
  6 35  1  6
M  CHG  1   5   1
M  END
>  <attachment_point>  (381) 
26

>  <score>  (381) 
<NA>

$$$$
CAT-4j
     RDKit          3D

 48 50  0  0  1  0  0  0  0  0999 V2000
   11.7106   -2.3098    1.2658 C   0  0  0  0  0  0  0  0  0  0  0  0
   13.0313   -2.6523    0.7225 N   0  0  0  0  0  0  0  0  0  0  0  0
   14.2010   -2.6281    1.3773 C   0  0  0  0  0  0  0  0  0  0  0  0
   14.3777   -2.3568    2.6732 N   0  0  0  0  0  0  0  0  0  0  0  0
   15.2217   -2.9197    0.5738 N   0  0  0  0  0  0  0  0  0  0  0  0
   14.7965   -3.2519   -0.7875 C   0  0  1  0  0  0  0  0  0  0  0  0
   15.3794   -2.2443   -1.7949 C   0  0  0  0  0  0  0  0  0  0  0  0
   15.9522   -2.6550   -3.0208 C   0  0  0  0  0  0  0  0  0  0  0  0
   16.4340   -1.6937   -3.9273 C   0  0  0  0  0  0  0  0  0  0  0  0
   16.3364   -0.3224   -3.6308 C   0  0  0  0  0  0  0  0  0  0  0  0
   15.7943    0.1250   -2.4073 C   0  0  0  0  0  0  0  0  0  0  0  0
   15.6711    1.5693   -2.0915 C   0  0  0  0  0  0  0  0  0  0  0  0
   15.3832    2.0354   -0.7903 C   0  0  0  0  0  0  0  0  0  0  0  0
   15.3534    3.4188   -0.5357 C   0  0  0  0  0  0  0  0  0  0  0  0
   15.5968    4.3049   -1.5946 C   0  0  0  0  0  0  0  0  0  0  0  0
   15.8275    3.8920   -2.8511 N   0  0  0  0  0  0  0  0  0  0  0  0
   15.8598    2.5642   -3.0762 C   0  0  0  0  0  0  0  0  0  0  0  0
   15.3327   -0.8573   -1.5012 C   0  0  0  0  0  0  0  0  0  0  0  0
   13.2767   -3.0094   -0.6368 C   0  0  0  0  0  0  0  0  0  0  0  0
   12.3981   -3.0674   -1.5055 O   0  0  0  0  0  0  0  0  0  0  0  0
    0.0000    0.0000    0.0000 H   0  0  0  0  0  0  0  0  0  0  0  0
    0.0000    0.0000    0.0000 H   0  0  0  0  0  0  0  0  0  0  0  0
    0.0000    0.0000    0.0000 H   0  0  0  0  0  0  0  0  0  0  0  0
    0.0000    0.0000    0.0000 H   0  0  0  0  0  0  0  0  0  0  0  0
    0.0000    0.0000    0.0000 H   0  0  0  0  0  0  0  0  0  0  0  0
    0.0000    0.0000    0.0000 H   0  0  0  0  0  0  0  0  0  0  0  0
    0.0000    0.0000    0.0000 H   0  0  0  0  0  0  0  0  0  0  0  0
    0.0000    0.0000    0.0000 H   0  0  0  0  0  0  0  0  0  0  0  0
    0.0000    0.0000    0.0000 H   0  0  0  0  0  0  0  0  0  0  0  0
    0.0000    0.0000    0.0000 H   0  0  0  0  0  0  0  0  0  0  0  0
    0.0000    0.0000    0.0000 H   0  0  0  0  0  0  0  0  0  0  0  0
    0.0000    0.0000    0.0000 H   0  0  0  0  0  0  0  0  0  0  0  0
    0.0000    0.0000    0.0000 H   0  0  0  0  0  0  0  0  0  0  0  0
    0.0000    0.0000    0.0000 H   0  0  0  0  0  0  0  0  0  0  0  0
    6.9453   -1.5264   -0.3696 C   0  0  0  0  0  0  0  0  0  0  0  0
    6.8521   -0.3234   -1.2771 C   0  0  0  0  0  0  0  0  0  0  0  0
    7.6781    0.7648   -0.8148 N   0  0  0  0  0  0  0  0  0  0  0  0
    7.7933    2.0017   -1.4501 C   0  0  0  0  0  0  0  0  0  0  0  0
    8.6592    3.0720   -0.9199 C   0  0  0  0  0  0  0  0  0  0  0  0
    7.1320    2.1989   -2.5096 O   0  0  0  0  0  0  0  0  0  0  0  0
    6.7853   -1.3098    0.6833 H   0  0  0  0  0  0  0  0  0  0  0  0
    6.4523   -2.4101   -0.7698 H   0  0  0  0  0  0  0  0  0  0  0  0
    7.2441   -0.6290   -2.2687 H   0  0  0  0  0  0  0  0  0  0  0  0
    5.8029    0.0083   -1.3852 H   0  0  0  0  0  0  0  0  0  0  0  0
    8.2357    0.6074    0.0729 H   0  0  0  0  0  0  0  0  0  0  0  0
    9.2354    3.5880   -1.7372 H   0  0  0  0  0  0  0  0  0  0  0  0
    9.3389    2.6231   -0.1697 H   0  0  0  0  0  0  0  0  0  0  0  0
    8.0037    3.7947   -0.3838 H   0  0  0  0  0  0  0  0  0  0  0  0
  1  2  1  0
  2  3  1  0
  2 19  1  0
  3  4  1  0
  3  5  2  0
  5  6  1  0
  6  7  1  0
  6 19  1  0
  7  8  2  0
  7 18  1  0
  8  9  1  0
  9 10  2  0
 10 11  1  0
 11 12  1  0
 11 18  2  0
 12 13  2  0
 12 17  1  0
 13 14  1  0
 14 15  2  0
 15 16  1  0
 16 17  2  0
 19 20  2  0
  1 21  1  0
  1 22  1  0
  1 23  1  0
  4 24  1  0
  4 25  1  0
  5 26  1  0
  8 27  1  0
  9 28  1  0
 10 29  1  0
 13 30  1  0
 14 31  1  0
 15 32  1  0
 17 33  1  0
 18 34  1  0
 35 36  1  0
 36 37  1  0
 37 38  1  0
 38 39  1  0
 38 40  2  0
 35 41  1  0
 35 42  1  0
 36 43  1  0
 36 44  1  0
 37 45  1  0
 39 46  1  0
 39 47  1  0
 39 48  1  0
  6 35  1  6
M  CHG  1   5   1
M  END
>  <attachment_point>  (382) 
26

>  <score>  (382) 
<NA>

$$$$
CAT-4j
     RDKit          3D

 50 53  0  0  1  0  0  0  0  0999 V2000
   11.7106   -2.3098    1.2658 C   0  0  0  0  0  0  0  0  0  0  0  0
   13.0313   -2.6523    0.7225 N   0  0  0  0  0  0  0  0  0  0  0  0
   14.2010   -2.6281    1.3773 C   0  0  0  0  0  0  0  0  0  0  0  0
   14.3777   -2.3568    2.6732 N   0  0  0  0  0  0  0  0  0  0  0  0
   15.2217   -2.9197    0.5738 N   0  0  0  0  0  0  0  0  0  0  0  0
   14.7965   -3.2519   -0.7875 C   0  0  1  0  0  0  0  0  0  0  0  0
   15.3794   -2.2443   -1.7949 C   0  0  0  0  0  0  0  0  0  0  0  0
   15.9522   -2.6550   -3.0208 C   0  0  0  0  0  0  0  0  0  0  0  0
   16.4340   -1.6937   -3.9273 C   0  0  0  0  0  0  0  0  0  0  0  0
   16.3364   -0.3224   -3.6308 C   0  0  0  0  0  0  0  0  0  0  0  0
   15.7943    0.1250   -2.4073 C   0  0  0  0  0  0  0  0  0  0  0  0
   15.6711    1.5693   -2.0915 C   0  0  0  0  0  0  0  0  0  0  0  0
   15.3832    2.0354   -0.7903 C   0  0  0  0  0  0  0  0  0  0  0  0
   15.3534    3.4188   -0.5357 C   0  0  0  0  0  0  0  0  0  0  0  0
   15.5968    4.3049   -1.5946 C   0  0  0  0  0  0  0  0  0  0  0  0
   15.8275    3.8920   -2.8511 N   0  0  0  0  0  0  0  0  0  0  0  0
   15.8598    2.5642   -3.0762 C   0  0  0  0  0  0  0  0  0  0  0  0
   15.3327   -0.8573   -1.5012 C   0  0  0  0  0  0  0  0  0  0  0  0
   13.2767   -3.0094   -0.6368 C   0  0  0  0  0  0  0  0  0  0  0  0
   12.3981   -3.0674   -1.5055 O   0  0  0  0  0  0  0  0  0  0  0  0
    0.0000    0.0000    0.0000 H   0  0  0  0  0  0  0  0  0  0  0  0
    0.0000    0.0000    0.0000 H   0  0  0  0  0  0  0  0  0  0  0  0
    0.0000    0.0000    0.0000 H   0  0  0  0  0  0  0  0  0  0  0  0
    0.0000    0.0000    0.0000 H   0  0  0  0  0  0  0  0  0  0  0  0
    0.0000    0.0000    0.0000 H   0  0  0  0  0  0  0  0  0  0  0  0
    0.0000    0.0000    0.0000 H   0  0  0  0  0  0  0  0  0  0  0  0
    0.0000    0.0000    0.0000 H   0  0  0  0  0  0  0  0  0  0  0  0
    0.0000    0.0000    0.0000 H   0  0  0  0  0  0  0  0  0  0  0  0
    0.0000    0.0000    0.0000 H   0  0  0  0  0  0  0  0  0  0  0  0
    0.0000    0.0000    0.0000 H   0  0  0  0  0  0  0  0  0  0  0  0
    0.0000    0.0000    0.0000 H   0  0  0  0  0  0  0  0  0  0  0  0
    0.0000    0.0000    0.0000 H   0  0  0  0  0  0  0  0  0  0  0  0
    0.0000    0.0000    0.0000 H   0  0  0  0  0  0  0  0  0  0  0  0
    0.0000    0.0000    0.0000 H   0  0  0  0  0  0  0  0  0  0  0  0
    7.0110   -1.5408   -0.3731 N   0  0  0  0  0  0  0  0  0  0  0  0
    6.1315   -1.7430   -1.4885 C   0  0  0  0  0  0  0  0  0  0  0  0
    6.4833   -1.0211    0.8412 C   0  0  0  0  0  0  0  0  0  0  0  0
    5.1457   -0.7094    0.9641 C   0  0  0  0  0  0  0  0  0  0  0  0
    4.6471   -0.2015    2.1607 C   0  0  0  0  0  0  0  0  0  0  0  0
    5.4598    0.0073    3.2560 C   0  0  0  0  0  0  0  0  0  0  0  0
    6.7936   -0.3096    3.1156 C   0  0  0  0  0  0  0  0  0  0  0  0
    7.3022   -0.8138    1.9356 C   0  0  0  0  0  0  0  0  0  0  0  0
    5.5403   -2.6689   -1.3601 H   0  0  0  0  0  0  0  0  0  0  0  0
    6.7657   -1.9030   -2.4098 H   0  0  0  0  0  0  0  0  0  0  0  0
    5.4887   -0.8447   -1.6635 H   0  0  0  0  0  0  0  0  0  0  0  0
    4.4831   -0.8656    0.1125 H   0  0  0  0  0  0  0  0  0  0  0  0
    3.5974    0.0414    2.2523 H   0  0  0  0  0  0  0  0  0  0  0  0
    5.0902    0.4029    4.1992 H   0  0  0  0  0  0  0  0  0  0  0  0
    7.4340   -0.1425    3.9862 H   0  0  0  0  0  0  0  0  0  0  0  0
    8.3598   -1.0630    1.8305 H   0  0  0  0  0  0  0  0  0  0  0  0
  1  2  1  0
  2  3  1  0
  2 19  1  0
  3  4  1  0
  3  5  2  0
  5  6  1  0
  6  7  1  0
  6 19  1  0
  7  8  2  0
  7 18  1  0
  8  9  1  0
  9 10  2  0
 10 11  1  0
 11 12  1  0
 11 18  2  0
 12 13  2  0
 12 17  1  0
 13 14  1  0
 14 15  2  0
 15 16  1  0
 16 17  2  0
 19 20  2  0
  1 21  1  0
  1 22  1  0
  1 23  1  0
  4 24  1  0
  4 25  1  0
  5 26  1  0
  8 27  1  0
  9 28  1  0
 10 29  1  0
 13 30  1  0
 14 31  1  0
 15 32  1  0
 17 33  1  0
 18 34  1  0
 35 36  1  0
 35 37  1  0
 37 38  2  0
 38 39  1  0
 39 40  2  0
 40 41  1  0
 41 42  2  0
 42 37  1  0
 36 43  1  0
 36 44  1  0
 36 45  1  0
 38 46  1  0
 39 47  1  0
 40 48  1  0
 41 49  1  0
 42 50  1  0
  6 35  1  6
M  CHG  1   5   1
M  END
>  <attachment_point>  (383) 
26

>  <score>  (383) 
<NA>

$$$$
CAT-4j
     RDKit          3D

 39 41  0  0  1  0  0  0  0  0999 V2000
   11.7106   -2.3098    1.2658 C   0  0  0  0  0  0  0  0  0  0  0  0
   13.0313   -2.6523    0.7225 N   0  0  0  0  0  0  0  0  0  0  0  0
   14.2010   -2.6281    1.3773 C   0  0  0  0  0  0  0  0  0  0  0  0
   14.3777   -2.3568    2.6732 N   0  0  0  0  0  0  0  0  0  0  0  0
   15.2217   -2.9197    0.5738 N   0  0  0  0  0  0  0  0  0  0  0  0
   14.7965   -3.2519   -0.7875 C   0  0  1  0  0  0  0  0  0  0  0  0
   15.3794   -2.2443   -1.7949 C   0  0  0  0  0  0  0  0  0  0  0  0
   15.9522   -2.6550   -3.0208 C   0  0  0  0  0  0  0  0  0  0  0  0
   16.4340   -1.6937   -3.9273 C   0  0  0  0  0  0  0  0  0  0  0  0
   16.3364   -0.3224   -3.6308 C   0  0  0  0  0  0  0  0  0  0  0  0
   15.7943    0.1250   -2.4073 C   0  0  0  0  0  0  0  0  0  0  0  0
   15.6711    1.5693   -2.0915 C   0  0  0  0  0  0  0  0  0  0  0  0
   15.3832    2.0354   -0.7903 C   0  0  0  0  0  0  0  0  0  0  0  0
   15.3534    3.4188   -0.5357 C   0  0  0  0  0  0  0  0  0  0  0  0
   15.5968    4.3049   -1.5946 C   0  0  0  0  0  0  0  0  0  0  0  0
   15.8275    3.8920   -2.8511 N   0  0  0  0  0  0  0  0  0  0  0  0
   15.8598    2.5642   -3.0762 C   0  0  0  0  0  0  0  0  0  0  0  0
   15.3327   -0.8573   -1.5012 C   0  0  0  0  0  0  0  0  0  0  0  0
   13.2767   -3.0094   -0.6368 C   0  0  0  0  0  0  0  0  0  0  0  0
   12.3981   -3.0674   -1.5055 O   0  0  0  0  0  0  0  0  0  0  0  0
    0.0000    0.0000    0.0000 H   0  0  0  0  0  0  0  0  0  0  0  0
    0.0000    0.0000    0.0000 H   0  0  0  0  0  0  0  0  0  0  0  0
    0.0000    0.0000    0.0000 H   0  0  0  0  0  0  0  0  0  0  0  0
    0.0000    0.0000    0.0000 H   0  0  0  0  0  0  0  0  0  0  0  0
    0.0000    0.0000    0.0000 H   0  0  0  0  0  0  0  0  0  0  0  0
    0.0000    0.0000    0.0000 H   0  0  0  0  0  0  0  0  0  0  0  0
    0.0000    0.0000    0.0000 H   0  0  0  0  0  0  0  0  0  0  0  0
    0.0000    0.0000    0.0000 H   0  0  0  0  0  0  0  0  0  0  0  0
    0.0000    0.0000    0.0000 H   0  0  0  0  0  0  0  0  0  0  0  0
    0.0000    0.0000    0.0000 H   0  0  0  0  0  0  0  0  0  0  0  0
    0.0000    0.0000    0.0000 H   0  0  0  0  0  0  0  0  0  0  0  0
    0.0000    0.0000    0.0000 H   0  0  0  0  0  0  0  0  0  0  0  0
    0.0000    0.0000    0.0000 H   0  0  0  0  0  0  0  0  0  0  0  0
    0.0000    0.0000    0.0000 H   0  0  0  0  0  0  0  0  0  0  0  0
    7.0743   -1.5547   -0.3765 S   0  0  0  0  0  0  0  0  0  0  0  0
    6.2456   -0.0035    0.0054 C   0  0  0  0  0  0  0  0  0  0  0  0
    6.9559    1.0693   -0.5032 F   0  0  0  0  0  0  0  0  0  0  0  0
    4.9743   -0.0383   -0.5586 F   0  0  0  0  0  0  0  0  0  0  0  0
    6.1403    0.1567    1.3848 F   0  0  0  0  0  0  0  0  0  0  0  0
  1  2  1  0
  2  3  1  0
  2 19  1  0
  3  4  1  0
  3  5  2  0
  5  6  1  0
  6  7  1  0
  6 19  1  0
  7  8  2  0
  7 18  1  0
  8  9  1  0
  9 10  2  0
 10 11  1  0
 11 12  1  0
 11 18  2  0
 12 13  2  0
 12 17  1  0
 13 14  1  0
 14 15  2  0
 15 16  1  0
 16 17  2  0
 19 20  2  0
  1 21  1  0
  1 22  1  0
  1 23  1  0
  4 24  1  0
  4 25  1  0
  5 26  1  0
  8 27  1  0
  9 28  1  0
 10 29  1  0
 13 30  1  0
 14 31  1  0
 15 32  1  0
 17 33  1  0
 18 34  1  0
 35 36  1  0
 36 37  1  0
 36 38  1  0
 36 39  1  0
  6 35  1  6
M  CHG  1   5   1
M  END
>  <attachment_point>  (384) 
26

>  <score>  (384) 
<NA>

$$$$
CAT-4j
     RDKit          3D

 62 66  0  0  1  0  0  0  0  0999 V2000
   11.7106   -2.3098    1.2658 C   0  0  0  0  0  0  0  0  0  0  0  0
   13.0313   -2.6523    0.7225 N   0  0  0  0  0  0  0  0  0  0  0  0
   14.2010   -2.6281    1.3773 C   0  0  0  0  0  0  0  0  0  0  0  0
   14.3777   -2.3568    2.6732 N   0  0  0  0  0  0  0  0  0  0  0  0
   15.2217   -2.9197    0.5738 N   0  0  0  0  0  0  0  0  0  0  0  0
   14.7965   -3.2519   -0.7875 C   0  0  1  0  0  0  0  0  0  0  0  0
   15.3794   -2.2443   -1.7949 C   0  0  0  0  0  0  0  0  0  0  0  0
   15.9522   -2.6550   -3.0208 C   0  0  0  0  0  0  0  0  0  0  0  0
   16.4340   -1.6937   -3.9273 C   0  0  0  0  0  0  0  0  0  0  0  0
   16.3364   -0.3224   -3.6308 C   0  0  0  0  0  0  0  0  0  0  0  0
   15.7943    0.1250   -2.4073 C   0  0  0  0  0  0  0  0  0  0  0  0
   15.6711    1.5693   -2.0915 C   0  0  0  0  0  0  0  0  0  0  0  0
   15.3832    2.0354   -0.7903 C   0  0  0  0  0  0  0  0  0  0  0  0
   15.3534    3.4188   -0.5357 C   0  0  0  0  0  0  0  0  0  0  0  0
   15.5968    4.3049   -1.5946 C   0  0  0  0  0  0  0  0  0  0  0  0
   15.8275    3.8920   -2.8511 N   0  0  0  0  0  0  0  0  0  0  0  0
   15.8598    2.5642   -3.0762 C   0  0  0  0  0  0  0  0  0  0  0  0
   15.3327   -0.8573   -1.5012 C   0  0  0  0  0  0  0  0  0  0  0  0
   13.2767   -3.0094   -0.6368 C   0  0  0  0  0  0  0  0  0  0  0  0
   12.3981   -3.0674   -1.5055 O   0  0  0  0  0  0  0  0  0  0  0  0
    0.0000    0.0000    0.0000 H   0  0  0  0  0  0  0  0  0  0  0  0
    0.0000    0.0000    0.0000 H   0  0  0  0  0  0  0  0  0  0  0  0
    0.0000    0.0000    0.0000 H   0  0  0  0  0  0  0  0  0  0  0  0
    0.0000    0.0000    0.0000 H   0  0  0  0  0  0  0  0  0  0  0  0
    0.0000    0.0000    0.0000 H   0  0  0  0  0  0  0  0  0  0  0  0
    0.0000    0.0000    0.0000 H   0  0  0  0  0  0  0  0  0  0  0  0
    0.0000    0.0000    0.0000 H   0  0  0  0  0  0  0  0  0  0  0  0
    0.0000    0.0000    0.0000 H   0  0  0  0  0  0  0  0  0  0  0  0
    0.0000    0.0000    0.0000 H   0  0  0  0  0  0  0  0  0  0  0  0
    0.0000    0.0000    0.0000 H   0  0  0  0  0  0  0  0  0  0  0  0
    0.0000    0.0000    0.0000 H   0  0  0  0  0  0  0  0  0  0  0  0
    0.0000    0.0000    0.0000 H   0  0  0  0  0  0  0  0  0  0  0  0
    0.0000    0.0000    0.0000 H   0  0  0  0  0  0  0  0  0  0  0  0
    0.0000    0.0000    0.0000 H   0  0  0  0  0  0  0  0  0  0  0  0
    7.0253   -1.5440   -0.3739 N   0  0  0  0  0  0  0  0  0  0  0  0
    6.3947   -2.2739    0.6724 C   0  0  0  0  0  0  0  0  0  0  0  0
    5.0045   -1.6576    0.8177 C   0  0  0  0  0  0  0  0  0  0  0  0
    4.1726   -1.9157   -0.4142 C   0  0  0  0  0  0  0  0  0  0  0  0
    3.3071   -3.0122   -0.3248 N   0  0  0  0  0  0  0  0  0  0  0  0
    3.7472   -4.2934   -0.0984 C   0  0  0  0  0  0  0  0  0  0  0  0
    2.4807   -5.1425   -0.2962 C   0  0  0  0  0  0  0  0  0  0  0  0
    1.8586   -4.3855   -1.4625 C   0  0  0  0  0  0  0  0  0  0  0  0
    2.0694   -2.9501   -0.9909 C   0  0  0  0  0  0  0  0  0  0  0  0
    4.9681   -1.9922   -1.6751 C   0  0  0  0  0  0  0  0  0  0  0  0
    6.3739   -1.5611   -1.6315 C   0  0  0  0  0  0  0  0  0  0  0  0
    6.3432   -3.3588    0.4573 H   0  0  0  0  0  0  0  0  0  0  0  0
    6.9178   -2.0784    1.6174 H   0  0  0  0  0  0  0  0  0  0  0  0
    5.1776   -0.5706    0.9672 H   0  0  0  0  0  0  0  0  0  0  0  0
    4.5109   -2.0201    1.7333 H   0  0  0  0  0  0  0  0  0  0  0  0
    3.5198   -0.9936   -0.4968 H   0  0  0  0  0  0  0  0  0  0  0  0
    4.4415   -4.6300   -0.8999 H   0  0  0  0  0  0  0  0  0  0  0  0
    4.2336   -4.5355    0.8569 H   0  0  0  0  0  0  0  0  0  0  0  0
    1.8692   -4.9871    0.6169 H   0  0  0  0  0  0  0  0  0  0  0  0
    2.7073   -6.1792   -0.5238 H   0  0  0  0  0  0  0  0  0  0  0  0
    2.4520   -4.6053   -2.3687 H   0  0  0  0  0  0  0  0  0  0  0  0
    0.7890   -4.6267   -1.5832 H   0  0  0  0  0  0  0  0  0  0  0  0
    2.1157   -2.2491   -1.8424 H   0  0  0  0  0  0  0  0  0  0  0  0
    1.1964   -2.6706   -0.3577 H   0  0  0  0  0  0  0  0  0  0  0  0
    4.9431   -3.0474   -2.0845 H   0  0  0  0  0  0  0  0  0  0  0  0
    4.4548   -1.4143   -2.5044 H   0  0  0  0  0  0  0  0  0  0  0  0
    6.4935   -0.5193   -2.0613 H   0  0  0  0  0  0  0  0  0  0  0  0
    7.0138   -2.1864   -2.3266 H   0  0  0  0  0  0  0  0  0  0  0  0
  1  2  1  0
  2  3  1  0
  2 19  1  0
  3  4  1  0
  3  5  2  0
  5  6  1  0
  6  7  1  0
  6 19  1  0
  7  8  2  0
  7 18  1  0
  8  9  1  0
  9 10  2  0
 10 11  1  0
 11 12  1  0
 11 18  2  0
 12 13  2  0
 12 17  1  0
 13 14  1  0
 14 15  2  0
 15 16  1  0
 16 17  2  0
 19 20  2  0
  1 21  1  0
  1 22  1  0
  1 23  1  0
  4 24  1  0
  4 25  1  0
  5 26  1  0
  8 27  1  0
  9 28  1  0
 10 29  1  0
 13 30  1  0
 14 31  1  0
 15 32  1  0
 17 33  1  0
 18 34  1  0
 35 36  1  0
 36 37  1  0
 37 38  1  0
 38 39  1  0
 39 40  1  0
 40 41  1  0
 41 42  1  0
 42 43  1  0
 38 44  1  0
 44 45  1  0
 45 35  1  0
 43 39  1  0
 36 46  1  0
 36 47  1  0
 37 48  1  0
 37 49  1  0
 38 50  1  0
 40 51  1  0
 40 52  1  0
 41 53  1  0
 41 54  1  0
 42 55  1  0
 42 56  1  0
 43 57  1  0
 43 58  1  0
 44 59  1  0
 44 60  1  0
 45 61  1  0
 45 62  1  0
  6 35  1  6
M  CHG  1   5   1
M  END
>  <attachment_point>  (385) 
26

>  <score>  (385) 
<NA>

$$$$
CAT-4j
     RDKit          3D

 50 53  0  0  1  0  0  0  0  0999 V2000
   11.7106   -2.3098    1.2658 C   0  0  0  0  0  0  0  0  0  0  0  0
   13.0313   -2.6523    0.7225 N   0  0  0  0  0  0  0  0  0  0  0  0
   14.2010   -2.6281    1.3773 C   0  0  0  0  0  0  0  0  0  0  0  0
   14.3777   -2.3568    2.6732 N   0  0  0  0  0  0  0  0  0  0  0  0
   15.2217   -2.9197    0.5738 N   0  0  0  0  0  0  0  0  0  0  0  0
   14.7965   -3.2519   -0.7875 C   0  0  1  0  0  0  0  0  0  0  0  0
   15.3794   -2.2443   -1.7949 C   0  0  0  0  0  0  0  0  0  0  0  0
   15.9522   -2.6550   -3.0208 C   0  0  0  0  0  0  0  0  0  0  0  0
   16.4340   -1.6937   -3.9273 C   0  0  0  0  0  0  0  0  0  0  0  0
   16.3364   -0.3224   -3.6308 C   0  0  0  0  0  0  0  0  0  0  0  0
   15.7943    0.1250   -2.4073 C   0  0  0  0  0  0  0  0  0  0  0  0
   15.6711    1.5693   -2.0915 C   0  0  0  0  0  0  0  0  0  0  0  0
   15.3832    2.0354   -0.7903 C   0  0  0  0  0  0  0  0  0  0  0  0
   15.3534    3.4188   -0.5357 C   0  0  0  0  0  0  0  0  0  0  0  0
   15.5968    4.3049   -1.5946 C   0  0  0  0  0  0  0  0  0  0  0  0
   15.8275    3.8920   -2.8511 N   0  0  0  0  0  0  0  0  0  0  0  0
   15.8598    2.5642   -3.0762 C   0  0  0  0  0  0  0  0  0  0  0  0
   15.3327   -0.8573   -1.5012 C   0  0  0  0  0  0  0  0  0  0  0  0
   13.2767   -3.0094   -0.6368 C   0  0  0  0  0  0  0  0  0  0  0  0
   12.3981   -3.0674   -1.5055 O   0  0  0  0  0  0  0  0  0  0  0  0
    0.0000    0.0000    0.0000 H   0  0  0  0  0  0  0  0  0  0  0  0
    0.0000    0.0000    0.0000 H   0  0  0  0  0  0  0  0  0  0  0  0
    0.0000    0.0000    0.0000 H   0  0  0  0  0  0  0  0  0  0  0  0
    0.0000    0.0000    0.0000 H   0  0  0  0  0  0  0  0  0  0  0  0
    0.0000    0.0000    0.0000 H   0  0  0  0  0  0  0  0  0  0  0  0
    0.0000    0.0000    0.0000 H   0  0  0  0  0  0  0  0  0  0  0  0
    0.0000    0.0000    0.0000 H   0  0  0  0  0  0  0  0  0  0  0  0
    0.0000    0.0000    0.0000 H   0  0  0  0  0  0  0  0  0  0  0  0
    0.0000    0.0000    0.0000 H   0  0  0  0  0  0  0  0  0  0  0  0
    0.0000    0.0000    0.0000 H   0  0  0  0  0  0  0  0  0  0  0  0
    0.0000    0.0000    0.0000 H   0  0  0  0  0  0  0  0  0  0  0  0
    0.0000    0.0000    0.0000 H   0  0  0  0  0  0  0  0  0  0  0  0
    0.0000    0.0000    0.0000 H   0  0  0  0  0  0  0  0  0  0  0  0
    0.0000    0.0000    0.0000 H   0  0  0  0  0  0  0  0  0  0  0  0
    6.9594   -1.5295   -0.3704 C   0  0  0  0  0  0  0  0  0  0  0  0
    6.5506   -0.2633   -0.0033 C   0  0  0  0  0  0  0  0  0  0  0  0
    5.1872   -0.0351    0.0484 C   0  0  0  0  0  0  0  0  0  0  0  0
    4.2894   -1.0338   -0.2550 C   0  0  0  0  0  0  0  0  0  0  0  0
    4.7072   -2.3016   -0.6225 C   0  0  0  0  0  0  0  0  0  0  0  0
    3.7609   -3.3884   -0.9522 C   0  0  0  0  0  0  0  0  0  0  0  0
    3.3863   -4.1737    0.1871 N   0  0  0  0  0  0  0  0  0  0  0  0
    6.0658   -2.5311   -0.6745 C   0  0  0  0  0  0  0  0  0  0  0  0
    7.2642    0.5261    0.2366 H   0  0  0  0  0  0  0  0  0  0  0  0
    4.8340    0.9582    0.3360 H   0  0  0  0  0  0  0  0  0  0  0  0
    3.2136   -0.8554   -0.2147 H   0  0  0  0  0  0  0  0  0  0  0  0
    4.1014   -4.0594   -1.7424 H   0  0  0  0  0  0  0  0  0  0  0  0
    2.8204   -2.8980   -1.3328 H   0  0  0  0  0  0  0  0  0  0  0  0
    2.3975   -4.5072    0.1275 H   0  0  0  0  0  0  0  0  0  0  0  0
    3.9871   -5.0411    0.3031 H   0  0  0  0  0  0  0  0  0  0  0  0
    6.4107   -3.5282   -0.9634 H   0  0  0  0  0  0  0  0  0  0  0  0
  1  2  1  0
  2  3  1  0
  2 19  1  0
  3  4  1  0
  3  5  2  0
  5  6  1  0
  6  7  1  1
  6 19  1  0
  7  8  2  0
  7 18  1  0
  8  9  1  0
  9 10  2  0
 10 11  1  0
 11 12  1  0
 11 18  2  0
 12 13  2  0
 12 17  1  0
 13 14  1  0
 14 15  2  0
 15 16  1  0
 16 17  2  0
 19 20  2  0
  1 21  1  0
  1 22  1  0
  1 23  1  0
  4 24  1  0
  4 25  1  0
  5 26  1  0
  8 27  1  0
  9 28  1  0
 10 29  1  0
 13 30  1  0
 14 31  1  0
 15 32  1  0
 17 33  1  0
 18 34  1  0
 35 36  2  0
 36 37  1  0
 37 38  2  0
 38 39  1  0
 39 40  1  0
 40 41  1  0
 39 42  2  0
 42 35  1  0
 36 43  1  0
 37 44  1  0
 38 45  1  0
 40 46  1  0
 40 47  1  0
 41 48  1  0
 41 49  1  0
 42 50  1  0
  6 35  1  0
M  CHG  1   5   1
M  END
>  <attachment_point>  (386) 
26

>  <score>  (386) 
<NA>

$$$$
CAT-4j
     RDKit          3D

 46 49  0  0  1  0  0  0  0  0999 V2000
   11.7106   -2.3098    1.2658 C   0  0  0  0  0  0  0  0  0  0  0  0
   13.0313   -2.6523    0.7225 N   0  0  0  0  0  0  0  0  0  0  0  0
   14.2010   -2.6281    1.3773 C   0  0  0  0  0  0  0  0  0  0  0  0
   14.3777   -2.3568    2.6732 N   0  0  0  0  0  0  0  0  0  0  0  0
   15.2217   -2.9197    0.5738 N   0  0  0  0  0  0  0  0  0  0  0  0
   14.7965   -3.2519   -0.7875 C   0  0  1  0  0  0  0  0  0  0  0  0
   15.3794   -2.2443   -1.7949 C   0  0  0  0  0  0  0  0  0  0  0  0
   15.9522   -2.6550   -3.0208 C   0  0  0  0  0  0  0  0  0  0  0  0
   16.4340   -1.6937   -3.9273 C   0  0  0  0  0  0  0  0  0  0  0  0
   16.3364   -0.3224   -3.6308 C   0  0  0  0  0  0  0  0  0  0  0  0
   15.7943    0.1250   -2.4073 C   0  0  0  0  0  0  0  0  0  0  0  0
   15.6711    1.5693   -2.0915 C   0  0  0  0  0  0  0  0  0  0  0  0
   15.3832    2.0354   -0.7903 C   0  0  0  0  0  0  0  0  0  0  0  0
   15.3534    3.4188   -0.5357 C   0  0  0  0  0  0  0  0  0  0  0  0
   15.5968    4.3049   -1.5946 C   0  0  0  0  0  0  0  0  0  0  0  0
   15.8275    3.8920   -2.8511 N   0  0  0  0  0  0  0  0  0  0  0  0
   15.8598    2.5642   -3.0762 C   0  0  0  0  0  0  0  0  0  0  0  0
   15.3327   -0.8573   -1.5012 C   0  0  0  0  0  0  0  0  0  0  0  0
   13.2767   -3.0094   -0.6368 C   0  0  0  0  0  0  0  0  0  0  0  0
   12.3981   -3.0674   -1.5055 O   0  0  0  0  0  0  0  0  0  0  0  0
    0.0000    0.0000    0.0000 H   0  0  0  0  0  0  0  0  0  0  0  0
    0.0000    0.0000    0.0000 H   0  0  0  0  0  0  0  0  0  0  0  0
    0.0000    0.0000    0.0000 H   0  0  0  0  0  0  0  0  0  0  0  0
    0.0000    0.0000    0.0000 H   0  0  0  0  0  0  0  0  0  0  0  0
    0.0000    0.0000    0.0000 H   0  0  0  0  0  0  0  0  0  0  0  0
    0.0000    0.0000    0.0000 H   0  0  0  0  0  0  0  0  0  0  0  0
    0.0000    0.0000    0.0000 H   0  0  0  0  0  0  0  0  0  0  0  0
    0.0000    0.0000    0.0000 H   0  0  0  0  0  0  0  0  0  0  0  0
    0.0000    0.0000    0.0000 H   0  0  0  0  0  0  0  0  0  0  0  0
    0.0000    0.0000    0.0000 H   0  0  0  0  0  0  0  0  0  0  0  0
    0.0000    0.0000    0.0000 H   0  0  0  0  0  0  0  0  0  0  0  0
    0.0000    0.0000    0.0000 H   0  0  0  0  0  0  0  0  0  0  0  0
    0.0000    0.0000    0.0000 H   0  0  0  0  0  0  0  0  0  0  0  0
    0.0000    0.0000    0.0000 H   0  0  0  0  0  0  0  0  0  0  0  0
    6.9589   -1.5294   -0.3704 C   0  0  0  0  0  0  0  0  0  0  0  0
    6.2305   -1.7400   -1.4805 N   0  0  0  0  0  0  0  0  0  0  0  0
    4.9068   -1.4643   -1.4571 C   0  0  0  0  0  0  0  0  0  0  0  0
    4.3351   -0.9718   -0.2897 C   0  0  0  0  0  0  0  0  0  0  0  0
    5.1234   -0.7694    0.8327 C   0  0  0  0  0  0  0  0  0  0  0  0
    4.5005   -0.2423    2.0756 C   0  0  0  0  0  0  0  0  0  0  0  0
    3.3438    0.4600    1.8031 F   0  0  0  0  0  0  0  0  0  0  0  0
    4.1518   -1.2857    2.9262 F   0  0  0  0  0  0  0  0  0  0  0  0
    5.4052    0.5817    2.7313 F   0  0  0  0  0  0  0  0  0  0  0  0
    6.4429   -1.0546    0.7772 N   0  0  0  0  0  0  0  0  0  0  0  0
    4.2655   -1.6122   -2.3181 H   0  0  0  0  0  0  0  0  0  0  0  0
    3.2829   -0.7330   -0.2102 H   0  0  0  0  0  0  0  0  0  0  0  0
  1  2  1  0
  2  3  1  0
  2 19  1  0
  3  4  1  0
  3  5  2  0
  5  6  1  0
  6  7  1  1
  6 19  1  0
  7  8  2  0
  7 18  1  0
  8  9  1  0
  9 10  2  0
 10 11  1  0
 11 12  1  0
 11 18  2  0
 12 13  2  0
 12 17  1  0
 13 14  1  0
 14 15  2  0
 15 16  1  0
 16 17  2  0
 19 20  2  0
  1 21  1  0
  1 22  1  0
  1 23  1  0
  4 24  1  0
  4 25  1  0
  5 26  1  0
  8 27  1  0
  9 28  1  0
 10 29  1  0
 13 30  1  0
 14 31  1  0
 15 32  1  0
 17 33  1  0
 18 34  1  0
 35 36  2  0
 36 37  1  0
 37 38  2  0
 38 39  1  0
 39 40  1  0
 40 41  1  0
 40 42  1  0
 40 43  1  0
 39 44  2  0
 44 35  1  0
 37 45  1  0
 38 46  1  0
  6 35  1  0
M  CHG  1   5   1
M  END
>  <attachment_point>  (387) 
26

>  <score>  (387) 
<NA>

$$$$
CAT-4j
     RDKit          3D

 52 55  0  0  1  0  0  0  0  0999 V2000
   11.7106   -2.3098    1.2658 C   0  0  0  0  0  0  0  0  0  0  0  0
   13.0313   -2.6523    0.7225 N   0  0  0  0  0  0  0  0  0  0  0  0
   14.2010   -2.6281    1.3773 C   0  0  0  0  0  0  0  0  0  0  0  0
   14.3777   -2.3568    2.6732 N   0  0  0  0  0  0  0  0  0  0  0  0
   15.2217   -2.9197    0.5738 N   0  0  0  0  0  0  0  0  0  0  0  0
   14.7965   -3.2519   -0.7875 C   0  0  1  0  0  0  0  0  0  0  0  0
   15.3794   -2.2443   -1.7949 C   0  0  0  0  0  0  0  0  0  0  0  0
   15.9522   -2.6550   -3.0208 C   0  0  0  0  0  0  0  0  0  0  0  0
   16.4340   -1.6937   -3.9273 C   0  0  0  0  0  0  0  0  0  0  0  0
   16.3364   -0.3224   -3.6308 C   0  0  0  0  0  0  0  0  0  0  0  0
   15.7943    0.1250   -2.4073 C   0  0  0  0  0  0  0  0  0  0  0  0
   15.6711    1.5693   -2.0915 C   0  0  0  0  0  0  0  0  0  0  0  0
   15.3832    2.0354   -0.7903 C   0  0  0  0  0  0  0  0  0  0  0  0
   15.3534    3.4188   -0.5357 C   0  0  0  0  0  0  0  0  0  0  0  0
   15.5968    4.3049   -1.5946 C   0  0  0  0  0  0  0  0  0  0  0  0
   15.8275    3.8920   -2.8511 N   0  0  0  0  0  0  0  0  0  0  0  0
   15.8598    2.5642   -3.0762 C   0  0  0  0  0  0  0  0  0  0  0  0
   15.3327   -0.8573   -1.5012 C   0  0  0  0  0  0  0  0  0  0  0  0
   13.2767   -3.0094   -0.6368 C   0  0  0  0  0  0  0  0  0  0  0  0
   12.3981   -3.0674   -1.5055 O   0  0  0  0  0  0  0  0  0  0  0  0
    0.0000    0.0000    0.0000 H   0  0  0  0  0  0  0  0  0  0  0  0
    0.0000    0.0000    0.0000 H   0  0  0  0  0  0  0  0  0  0  0  0
    0.0000    0.0000    0.0000 H   0  0  0  0  0  0  0  0  0  0  0  0
    0.0000    0.0000    0.0000 H   0  0  0  0  0  0  0  0  0  0  0  0
    0.0000    0.0000    0.0000 H   0  0  0  0  0  0  0  0  0  0  0  0
    0.0000    0.0000    0.0000 H   0  0  0  0  0  0  0  0  0  0  0  0
    0.0000    0.0000    0.0000 H   0  0  0  0  0  0  0  0  0  0  0  0
    0.0000    0.0000    0.0000 H   0  0  0  0  0  0  0  0  0  0  0  0
    0.0000    0.0000    0.0000 H   0  0  0  0  0  0  0  0  0  0  0  0
    0.0000    0.0000    0.0000 H   0  0  0  0  0  0  0  0  0  0  0  0
    0.0000    0.0000    0.0000 H   0  0  0  0  0  0  0  0  0  0  0  0
    0.0000    0.0000    0.0000 H   0  0  0  0  0  0  0  0  0  0  0  0
    0.0000    0.0000    0.0000 H   0  0  0  0  0  0  0  0  0  0  0  0
    0.0000    0.0000    0.0000 H   0  0  0  0  0  0  0  0  0  0  0  0
    6.9712   -1.5321   -0.3710 C   0  0  0  0  0  0  0  0  0  0  0  0
    6.1586   -2.6873   -0.8031 C   0  0  0  0  0  0  0  0  0  0  0  0
    5.8070   -2.8266   -2.1303 C   0  0  0  0  0  0  0  0  0  0  0  0
    5.0473   -3.9291   -2.4629 C   0  0  0  0  0  0  0  0  0  0  0  0
    4.6486   -4.8601   -1.5234 C   0  0  0  0  0  0  0  0  0  0  0  0
    4.9991   -4.7226   -0.1964 C   0  0  0  0  0  0  0  0  0  0  0  0
    4.5891   -5.6684    0.7329 O   0  0  0  0  0  0  0  0  0  0  0  0
    4.9840   -5.4651    2.0759 C   0  0  0  0  0  0  0  0  0  0  0  0
    5.7585   -3.6227    0.1436 C   0  0  0  0  0  0  0  0  0  0  0  0
    6.7270   -0.6282   -0.9751 H   0  0  0  0  0  0  0  0  0  0  0  0
    6.7596   -1.2974    0.6988 H   0  0  0  0  0  0  0  0  0  0  0  0
    6.1120   -2.1018   -2.8890 H   0  0  0  0  0  0  0  0  0  0  0  0
    4.7620   -4.0562   -3.4951 H   0  0  0  0  0  0  0  0  0  0  0  0
    4.0443   -5.7363   -1.7907 H   0  0  0  0  0  0  0  0  0  0  0  0
    6.0783   -5.4164    2.1962 H   0  0  0  0  0  0  0  0  0  0  0  0
    4.4920   -6.1889    2.7546 H   0  0  0  0  0  0  0  0  0  0  0  0
    4.6095   -4.4353    2.3498 H   0  0  0  0  0  0  0  0  0  0  0  0
    6.0240   -3.5315    1.1894 H   0  0  0  0  0  0  0  0  0  0  0  0
  1  2  1  0
  2  3  1  0
  2 19  1  0
  3  4  1  0
  3  5  2  0
  5  6  1  0
  6  7  1  0
  6 19  1  0
  7  8  2  0
  7 18  1  0
  8  9  1  0
  9 10  2  0
 10 11  1  0
 11 12  1  0
 11 18  2  0
 12 13  2  0
 12 17  1  0
 13 14  1  0
 14 15  2  0
 15 16  1  0
 16 17  2  0
 19 20  2  0
  1 21  1  0
  1 22  1  0
  1 23  1  0
  4 24  1  0
  4 25  1  0
  5 26  1  0
  8 27  1  0
  9 28  1  0
 10 29  1  0
 13 30  1  0
 14 31  1  0
 15 32  1  0
 17 33  1  0
 18 34  1  0
 35 36  1  0
 36 37  2  0
 37 38  1  0
 38 39  2  0
 39 40  1  0
 40 41  1  0
 41 42  1  0
 40 43  2  0
 43 36  1  0
 35 44  1  0
 35 45  1  0
 37 46  1  0
 38 47  1  0
 39 48  1  0
 42 49  1  0
 42 50  1  0
 42 51  1  0
 43 52  1  0
  6 35  1  6
M  CHG  1   5   1
M  END
>  <attachment_point>  (388) 
26

>  <score>  (388) 
<NA>

$$$$
CAT-4j
     RDKit          3D

 51 53  0  0  1  0  0  0  0  0999 V2000
   11.7106   -2.3098    1.2658 C   0  0  0  0  0  0  0  0  0  0  0  0
   13.0313   -2.6523    0.7225 N   0  0  0  0  0  0  0  0  0  0  0  0
   14.2010   -2.6281    1.3773 C   0  0  0  0  0  0  0  0  0  0  0  0
   14.3777   -2.3568    2.6732 N   0  0  0  0  0  0  0  0  0  0  0  0
   15.2217   -2.9197    0.5738 N   0  0  0  0  0  0  0  0  0  0  0  0
   14.7965   -3.2519   -0.7875 C   0  0  1  0  0  0  0  0  0  0  0  0
   15.3794   -2.2443   -1.7949 C   0  0  0  0  0  0  0  0  0  0  0  0
   15.9522   -2.6550   -3.0208 C   0  0  0  0  0  0  0  0  0  0  0  0
   16.4340   -1.6937   -3.9273 C   0  0  0  0  0  0  0  0  0  0  0  0
   16.3364   -0.3224   -3.6308 C   0  0  0  0  0  0  0  0  0  0  0  0
   15.7943    0.1250   -2.4073 C   0  0  0  0  0  0  0  0  0  0  0  0
   15.6711    1.5693   -2.0915 C   0  0  0  0  0  0  0  0  0  0  0  0
   15.3832    2.0354   -0.7903 C   0  0  0  0  0  0  0  0  0  0  0  0
   15.3534    3.4188   -0.5357 C   0  0  0  0  0  0  0  0  0  0  0  0
   15.5968    4.3049   -1.5946 C   0  0  0  0  0  0  0  0  0  0  0  0
   15.8275    3.8920   -2.8511 N   0  0  0  0  0  0  0  0  0  0  0  0
   15.8598    2.5642   -3.0762 C   0  0  0  0  0  0  0  0  0  0  0  0
   15.3327   -0.8573   -1.5012 C   0  0  0  0  0  0  0  0  0  0  0  0
   13.2767   -3.0094   -0.6368 C   0  0  0  0  0  0  0  0  0  0  0  0
   12.3981   -3.0674   -1.5055 O   0  0  0  0  0  0  0  0  0  0  0  0
    0.0000    0.0000    0.0000 H   0  0  0  0  0  0  0  0  0  0  0  0
    0.0000    0.0000    0.0000 H   0  0  0  0  0  0  0  0  0  0  0  0
    0.0000    0.0000    0.0000 H   0  0  0  0  0  0  0  0  0  0  0  0
    0.0000    0.0000    0.0000 H   0  0  0  0  0  0  0  0  0  0  0  0
    0.0000    0.0000    0.0000 H   0  0  0  0  0  0  0  0  0  0  0  0
    0.0000    0.0000    0.0000 H   0  0  0  0  0  0  0  0  0  0  0  0
    0.0000    0.0000    0.0000 H   0  0  0  0  0  0  0  0  0  0  0  0
    0.0000    0.0000    0.0000 H   0  0  0  0  0  0  0  0  0  0  0  0
    0.0000    0.0000    0.0000 H   0  0  0  0  0  0  0  0  0  0  0  0
    0.0000    0.0000    0.0000 H   0  0  0  0  0  0  0  0  0  0  0  0
    0.0000    0.0000    0.0000 H   0  0  0  0  0  0  0  0  0  0  0  0
    0.0000    0.0000    0.0000 H   0  0  0  0  0  0  0  0  0  0  0  0
    0.0000    0.0000    0.0000 H   0  0  0  0  0  0  0  0  0  0  0  0
    0.0000    0.0000    0.0000 H   0  0  0  0  0  0  0  0  0  0  0  0
    6.9410   -1.5254   -0.3694 C   0  0  0  0  0  0  0  0  0  0  0  0
    6.1692   -2.3241    0.1905 O   0  0  0  0  0  0  0  0  0  0  0  0
    6.4483   -0.3460   -0.9171 N   0  0  0  0  0  0  0  0  0  0  0  0
    5.0683    0.0816   -0.9138 C   0  0  0  0  0  0  0  0  0  0  0  0
    4.2724   -0.9577   -1.6692 C   0  0  0  0  0  0  0  0  0  0  0  0
    2.8032   -0.6057   -1.7309 C   0  0  0  0  0  0  0  0  0  0  0  0
    2.1763   -0.4927   -0.3729 C   0  0  0  0  0  0  0  0  0  0  0  0
    7.1389    0.3071   -1.3822 H   0  0  0  0  0  0  0  0  0  0  0  0
    4.7066    0.1782    0.1332 H   0  0  0  0  0  0  0  0  0  0  0  0
    4.9397    1.0678   -1.4173 H   0  0  0  0  0  0  0  0  0  0  0  0
    4.6436   -0.9164   -2.7306 H   0  0  0  0  0  0  0  0  0  0  0  0
    4.4221   -1.9506   -1.2507 H   0  0  0  0  0  0  0  0  0  0  0  0
    2.2953   -1.4267   -2.2782 H   0  0  0  0  0  0  0  0  0  0  0  0
    2.6892    0.3108   -2.3499 H   0  0  0  0  0  0  0  0  0  0  0  0
    1.3451   -1.2391   -0.2319 H   0  0  0  0  0  0  0  0  0  0  0  0
    2.8772   -0.6627    0.4620 H   0  0  0  0  0  0  0  0  0  0  0  0
    1.6649    0.5109   -0.2996 H   0  0  0  0  0  0  0  0  0  0  0  0
  1  2  1  0
  2  3  1  0
  2 19  1  0
  3  4  1  0
  3  5  2  0
  5  6  1  0
  6  7  1  0
  6 19  1  0
  7  8  2  0
  7 18  1  0
  8  9  1  0
  9 10  2  0
 10 11  1  0
 11 12  1  0
 11 18  2  0
 12 13  2  0
 12 17  1  0
 13 14  1  0
 14 15  2  0
 15 16  1  0
 16 17  2  0
 19 20  2  0
  1 21  1  0
  1 22  1  0
  1 23  1  0
  4 24  1  0
  4 25  1  0
  5 26  1  0
  8 27  1  0
  9 28  1  0
 10 29  1  0
 13 30  1  0
 14 31  1  0
 15 32  1  0
 17 33  1  0
 18 34  1  0
 35 36  2  0
 35 37  1  0
 37 38  1  0
 38 39  1  0
 39 40  1  0
 40 41  1  0
 37 42  1  0
 38 43  1  0
 38 44  1  0
 39 45  1  0
 39 46  1  0
 40 47  1  0
 40 48  1  0
 41 49  1  0
 41 50  1  0
 41 51  1  0
  6 35  1  6
M  CHG  1   5   1
M  END
>  <attachment_point>  (389) 
26

>  <score>  (389) 
<NA>

$$$$
CAT-4j
     RDKit          3D

 51 54  0  0  1  0  0  0  0  0999 V2000
   11.7106   -2.3098    1.2658 C   0  0  0  0  0  0  0  0  0  0  0  0
   13.0313   -2.6523    0.7225 N   0  0  0  0  0  0  0  0  0  0  0  0
   14.2010   -2.6281    1.3773 C   0  0  0  0  0  0  0  0  0  0  0  0
   14.3777   -2.3568    2.6732 N   0  0  0  0  0  0  0  0  0  0  0  0
   15.2217   -2.9197    0.5738 N   0  0  0  0  0  0  0  0  0  0  0  0
   14.7965   -3.2519   -0.7875 C   0  0  1  0  0  0  0  0  0  0  0  0
   15.3794   -2.2443   -1.7949 C   0  0  0  0  0  0  0  0  0  0  0  0
   15.9522   -2.6550   -3.0208 C   0  0  0  0  0  0  0  0  0  0  0  0
   16.4340   -1.6937   -3.9273 C   0  0  0  0  0  0  0  0  0  0  0  0
   16.3364   -0.3224   -3.6308 C   0  0  0  0  0  0  0  0  0  0  0  0
   15.7943    0.1250   -2.4073 C   0  0  0  0  0  0  0  0  0  0  0  0
   15.6711    1.5693   -2.0915 C   0  0  0  0  0  0  0  0  0  0  0  0
   15.3832    2.0354   -0.7903 C   0  0  0  0  0  0  0  0  0  0  0  0
   15.3534    3.4188   -0.5357 C   0  0  0  0  0  0  0  0  0  0  0  0
   15.5968    4.3049   -1.5946 C   0  0  0  0  0  0  0  0  0  0  0  0
   15.8275    3.8920   -2.8511 N   0  0  0  0  0  0  0  0  0  0  0  0
   15.8598    2.5642   -3.0762 C   0  0  0  0  0  0  0  0  0  0  0  0
   15.3327   -0.8573   -1.5012 C   0  0  0  0  0  0  0  0  0  0  0  0
   13.2767   -3.0094   -0.6368 C   0  0  0  0  0  0  0  0  0  0  0  0
   12.3981   -3.0674   -1.5055 O   0  0  0  0  0  0  0  0  0  0  0  0
    0.0000    0.0000    0.0000 H   0  0  0  0  0  0  0  0  0  0  0  0
    0.0000    0.0000    0.0000 H   0  0  0  0  0  0  0  0  0  0  0  0
    0.0000    0.0000    0.0000 H   0  0  0  0  0  0  0  0  0  0  0  0
    0.0000    0.0000    0.0000 H   0  0  0  0  0  0  0  0  0  0  0  0
    0.0000    0.0000    0.0000 H   0  0  0  0  0  0  0  0  0  0  0  0
    0.0000    0.0000    0.0000 H   0  0  0  0  0  0  0  0  0  0  0  0
    0.0000    0.0000    0.0000 H   0  0  0  0  0  0  0  0  0  0  0  0
    0.0000    0.0000    0.0000 H   0  0  0  0  0  0  0  0  0  0  0  0
    0.0000    0.0000    0.0000 H   0  0  0  0  0  0  0  0  0  0  0  0
    0.0000    0.0000    0.0000 H   0  0  0  0  0  0  0  0  0  0  0  0
    0.0000    0.0000    0.0000 H   0  0  0  0  0  0  0  0  0  0  0  0
    0.0000    0.0000    0.0000 H   0  0  0  0  0  0  0  0  0  0  0  0
    0.0000    0.0000    0.0000 H   0  0  0  0  0  0  0  0  0  0  0  0
    0.0000    0.0000    0.0000 H   0  0  0  0  0  0  0  0  0  0  0  0
    6.9732   -1.5325   -0.3711 C   0  0  1  0  0  0  0  0  0  0  0  0
    6.3769   -1.9114   -1.6954 C   0  0  0  0  0  0  0  0  0  0  0  0
    6.3586   -2.2293    0.7741 C   0  0  0  0  0  0  0  0  0  0  0  0
    5.7695   -1.5628    1.8251 C   0  0  0  0  0  0  0  0  0  0  0  0
    5.2048   -2.2885    2.8804 C   0  0  0  0  0  0  0  0  0  0  0  0
    5.2203   -3.6670    2.9004 C   0  0  0  0  0  0  0  0  0  0  0  0
    5.8142   -4.3189    1.8402 C   0  0  0  0  0  0  0  0  0  0  0  0
    6.3749   -3.5988    0.7923 C   0  0  0  0  0  0  0  0  0  0  0  0
    6.8980   -0.4242   -0.2728 H   0  0  0  0  0  0  0  0  0  0  0  0
    7.1199   -1.6316   -2.4797 H   0  0  0  0  0  0  0  0  0  0  0  0
    6.2256   -3.0070   -1.7990 H   0  0  0  0  0  0  0  0  0  0  0  0
    5.4316   -1.3948   -1.9196 H   0  0  0  0  0  0  0  0  0  0  0  0
    5.7591   -0.4875    1.8064 H   0  0  0  0  0  0  0  0  0  0  0  0
    4.7489   -1.7492    3.6928 H   0  0  0  0  0  0  0  0  0  0  0  0
    4.7732   -4.2300    3.7357 H   0  0  0  0  0  0  0  0  0  0  0  0
    5.8264   -5.4079    1.8562 H   0  0  0  0  0  0  0  0  0  0  0  0
    6.8279   -4.1360   -0.0150 H   0  0  0  0  0  0  0  0  0  0  0  0
  1  2  1  0
  2  3  1  0
  2 19  1  0
  3  4  1  0
  3  5  2  0
  5  6  1  0
  6  7  1  1
  6 19  1  0
  7  8  2  0
  7 18  1  0
  8  9  1  0
  9 10  2  0
 10 11  1  0
 11 12  1  0
 11 18  2  0
 12 13  2  0
 12 17  1  0
 13 14  1  0
 14 15  2  0
 15 16  1  0
 16 17  2  0
 19 20  2  0
  1 21  1  0
  1 22  1  0
  1 23  1  0
  4 24  1  0
  4 25  1  0
  5 26  1  0
  8 27  1  0
  9 28  1  0
 10 29  1  0
 13 30  1  0
 14 31  1  0
 15 32  1  0
 17 33  1  0
 18 34  1  0
 35 36  1  0
 35 37  1  0
 37 38  2  0
 38 39  1  0
 39 40  2  0
 40 41  1  0
 41 42  2  0
 42 37  1  0
 35 43  1  6
 36 44  1  0
 36 45  1  0
 36 46  1  0
 38 47  1  0
 39 48  1  0
 40 49  1  0
 41 50  1  0
 42 51  1  0
  6 35  1  0
M  CHG  1   5   1
M  END
>  <attachment_point>  (390) 
26

>  <score>  (390) 
<NA>

$$$$
CAT-4j
     RDKit          3D

 42 44  0  0  1  0  0  0  0  0999 V2000
   11.7106   -2.3098    1.2658 C   0  0  0  0  0  0  0  0  0  0  0  0
   13.0313   -2.6523    0.7225 N   0  0  0  0  0  0  0  0  0  0  0  0
   14.2010   -2.6281    1.3773 C   0  0  0  0  0  0  0  0  0  0  0  0
   14.3777   -2.3568    2.6732 N   0  0  0  0  0  0  0  0  0  0  0  0
   15.2217   -2.9197    0.5738 N   0  0  0  0  0  0  0  0  0  0  0  0
   14.7965   -3.2519   -0.7875 C   0  0  1  0  0  0  0  0  0  0  0  0
   15.3794   -2.2443   -1.7949 C   0  0  0  0  0  0  0  0  0  0  0  0
   15.9522   -2.6550   -3.0208 C   0  0  0  0  0  0  0  0  0  0  0  0
   16.4340   -1.6937   -3.9273 C   0  0  0  0  0  0  0  0  0  0  0  0
   16.3364   -0.3224   -3.6308 C   0  0  0  0  0  0  0  0  0  0  0  0
   15.7943    0.1250   -2.4073 C   0  0  0  0  0  0  0  0  0  0  0  0
   15.6711    1.5693   -2.0915 C   0  0  0  0  0  0  0  0  0  0  0  0
   15.3832    2.0354   -0.7903 C   0  0  0  0  0  0  0  0  0  0  0  0
   15.3534    3.4188   -0.5357 C   0  0  0  0  0  0  0  0  0  0  0  0
   15.5968    4.3049   -1.5946 C   0  0  0  0  0  0  0  0  0  0  0  0
   15.8275    3.8920   -2.8511 N   0  0  0  0  0  0  0  0  0  0  0  0
   15.8598    2.5642   -3.0762 C   0  0  0  0  0  0  0  0  0  0  0  0
   15.3327   -0.8573   -1.5012 C   0  0  0  0  0  0  0  0  0  0  0  0
   13.2767   -3.0094   -0.6368 C   0  0  0  0  0  0  0  0  0  0  0  0
   12.3981   -3.0674   -1.5055 O   0  0  0  0  0  0  0  0  0  0  0  0
    0.0000    0.0000    0.0000 H   0  0  0  0  0  0  0  0  0  0  0  0
    0.0000    0.0000    0.0000 H   0  0  0  0  0  0  0  0  0  0  0  0
    0.0000    0.0000    0.0000 H   0  0  0  0  0  0  0  0  0  0  0  0
    0.0000    0.0000    0.0000 H   0  0  0  0  0  0  0  0  0  0  0  0
    0.0000    0.0000    0.0000 H   0  0  0  0  0  0  0  0  0  0  0  0
    0.0000    0.0000    0.0000 H   0  0  0  0  0  0  0  0  0  0  0  0
    0.0000    0.0000    0.0000 H   0  0  0  0  0  0  0  0  0  0  0  0
    0.0000    0.0000    0.0000 H   0  0  0  0  0  0  0  0  0  0  0  0
    0.0000    0.0000    0.0000 H   0  0  0  0  0  0  0  0  0  0  0  0
    0.0000    0.0000    0.0000 H   0  0  0  0  0  0  0  0  0  0  0  0
    0.0000    0.0000    0.0000 H   0  0  0  0  0  0  0  0  0  0  0  0
    0.0000    0.0000    0.0000 H   0  0  0  0  0  0  0  0  0  0  0  0
    0.0000    0.0000    0.0000 H   0  0  0  0  0  0  0  0  0  0  0  0
    0.0000    0.0000    0.0000 H   0  0  0  0  0  0  0  0  0  0  0  0
    7.1389   -1.5689   -0.3799 O   0  0  0  0  0  0  0  0  0  0  0  0
    6.4628   -0.4610   -0.9156 C   0  0  0  0  0  0  0  0  0  0  0  0
    5.0087   -0.6218   -0.5511 C   0  0  0  0  0  0  0  0  0  0  0  0
    4.7874   -0.6671    0.7881 F   0  0  0  0  0  0  0  0  0  0  0  0
    4.2814    0.4368   -1.0653 F   0  0  0  0  0  0  0  0  0  0  0  0
    4.5726   -1.8010   -1.1282 F   0  0  0  0  0  0  0  0  0  0  0  0
    6.9233    0.4510   -0.5185 H   0  0  0  0  0  0  0  0  0  0  0  0
    6.5168   -0.5324   -2.0324 H   0  0  0  0  0  0  0  0  0  0  0  0
  1  2  1  0
  2  3  1  0
  2 19  1  0
  3  4  1  0
  3  5  2  0
  5  6  1  0
  6  7  1  0
  6 19  1  0
  7  8  2  0
  7 18  1  0
  8  9  1  0
  9 10  2  0
 10 11  1  0
 11 12  1  0
 11 18  2  0
 12 13  2  0
 12 17  1  0
 13 14  1  0
 14 15  2  0
 15 16  1  0
 16 17  2  0
 19 20  2  0
  1 21  1  0
  1 22  1  0
  1 23  1  0
  4 24  1  0
  4 25  1  0
  5 26  1  0
  8 27  1  0
  9 28  1  0
 10 29  1  0
 13 30  1  0
 14 31  1  0
 15 32  1  0
 17 33  1  0
 18 34  1  0
 35 36  1  0
 36 37  1  0
 37 38  1  0
 37 39  1  0
 37 40  1  0
 36 41  1  0
 36 42  1  0
  6 35  1  6
M  CHG  1   5   1
M  END
>  <attachment_point>  (391) 
26

>  <score>  (391) 
<NA>

$$$$
CAT-4j
     RDKit          3D

 44 47  0  0  1  0  0  0  0  0999 V2000
   11.7106   -2.3098    1.2658 C   0  0  0  0  0  0  0  0  0  0  0  0
   13.0313   -2.6523    0.7225 N   0  0  0  0  0  0  0  0  0  0  0  0
   14.2010   -2.6281    1.3773 C   0  0  0  0  0  0  0  0  0  0  0  0
   14.3777   -2.3568    2.6732 N   0  0  0  0  0  0  0  0  0  0  0  0
   15.2217   -2.9197    0.5738 N   0  0  0  0  0  0  0  0  0  0  0  0
   14.7965   -3.2519   -0.7875 C   0  0  1  0  0  0  0  0  0  0  0  0
   15.3794   -2.2443   -1.7949 C   0  0  0  0  0  0  0  0  0  0  0  0
   15.9522   -2.6550   -3.0208 C   0  0  0  0  0  0  0  0  0  0  0  0
   16.4340   -1.6937   -3.9273 C   0  0  0  0  0  0  0  0  0  0  0  0
   16.3364   -0.3224   -3.6308 C   0  0  0  0  0  0  0  0  0  0  0  0
   15.7943    0.1250   -2.4073 C   0  0  0  0  0  0  0  0  0  0  0  0
   15.6711    1.5693   -2.0915 C   0  0  0  0  0  0  0  0  0  0  0  0
   15.3832    2.0354   -0.7903 C   0  0  0  0  0  0  0  0  0  0  0  0
   15.3534    3.4188   -0.5357 C   0  0  0  0  0  0  0  0  0  0  0  0
   15.5968    4.3049   -1.5946 C   0  0  0  0  0  0  0  0  0  0  0  0
   15.8275    3.8920   -2.8511 N   0  0  0  0  0  0  0  0  0  0  0  0
   15.8598    2.5642   -3.0762 C   0  0  0  0  0  0  0  0  0  0  0  0
   15.3327   -0.8573   -1.5012 C   0  0  0  0  0  0  0  0  0  0  0  0
   13.2767   -3.0094   -0.6368 C   0  0  0  0  0  0  0  0  0  0  0  0
   12.3981   -3.0674   -1.5055 O   0  0  0  0  0  0  0  0  0  0  0  0
    0.0000    0.0000    0.0000 H   0  0  0  0  0  0  0  0  0  0  0  0
    0.0000    0.0000    0.0000 H   0  0  0  0  0  0  0  0  0  0  0  0
    0.0000    0.0000    0.0000 H   0  0  0  0  0  0  0  0  0  0  0  0
    0.0000    0.0000    0.0000 H   0  0  0  0  0  0  0  0  0  0  0  0
    0.0000    0.0000    0.0000 H   0  0  0  0  0  0  0  0  0  0  0  0
    0.0000    0.0000    0.0000 H   0  0  0  0  0  0  0  0  0  0  0  0
    0.0000    0.0000    0.0000 H   0  0  0  0  0  0  0  0  0  0  0  0
    0.0000    0.0000    0.0000 H   0  0  0  0  0  0  0  0  0  0  0  0
    0.0000    0.0000    0.0000 H   0  0  0  0  0  0  0  0  0  0  0  0
    0.0000    0.0000    0.0000 H   0  0  0  0  0  0  0  0  0  0  0  0
    0.0000    0.0000    0.0000 H   0  0  0  0  0  0  0  0  0  0  0  0
    0.0000    0.0000    0.0000 H   0  0  0  0  0  0  0  0  0  0  0  0
    0.0000    0.0000    0.0000 H   0  0  0  0  0  0  0  0  0  0  0  0
    0.0000    0.0000    0.0000 H   0  0  0  0  0  0  0  0  0  0  0  0
    6.9878   -1.5357   -0.3719 C   0  0  2  0  0  0  0  0  0  0  0  0
    6.0678   -2.6954   -0.3269 C   0  0  0  0  0  0  0  0  0  0  0  0
    6.1679   -1.7836   -1.5488 C   0  0  1  0  0  0  0  0  0  0  0  0
    4.9327   -1.1022   -1.8279 N   0  0  0  0  0  0  0  0  0  0  0  0
    6.7984   -0.6865    0.3370 H   0  0  0  0  0  0  0  0  0  0  0  0
    5.2118   -2.6013    0.3460 H   0  0  0  0  0  0  0  0  0  0  0  0
    6.4110   -3.7275   -0.5231 H   0  0  0  0  0  0  0  0  0  0  0  0
    6.6683   -2.1822   -2.4574 H   0  0  0  0  0  0  0  0  0  0  0  0
    4.2409   -1.8563   -2.1229 H   0  0  0  0  0  0  0  0  0  0  0  0
    4.9700   -0.4436   -2.6142 H   0  0  0  0  0  0  0  0  0  0  0  0
  1  2  1  0
  2  3  1  0
  2 19  1  0
  3  4  1  0
  3  5  2  0
  5  6  1  0
  6  7  1  1
  6 19  1  0
  7  8  2  0
  7 18  1  0
  8  9  1  0
  9 10  2  0
 10 11  1  0
 11 12  1  0
 11 18  2  0
 12 13  2  0
 12 17  1  0
 13 14  1  0
 14 15  2  0
 15 16  1  0
 16 17  2  0
 19 20  2  0
  1 21  1  0
  1 22  1  0
  1 23  1  0
  4 24  1  0
  4 25  1  0
  5 26  1  0
  8 27  1  0
  9 28  1  0
 10 29  1  0
 13 30  1  0
 14 31  1  0
 15 32  1  0
 17 33  1  0
 18 34  1  0
 35 36  1  0
 36 37  1  0
 37 38  1  0
 37 35  1  0
 35 39  1  6
 36 40  1  0
 36 41  1  0
 37 42  1  6
 38 43  1  0
 38 44  1  0
  6 35  1  0
M  CHG  1   5   1
M  END
>  <attachment_point>  (392) 
26

>  <score>  (392) 
<NA>

$$$$
CAT-4j
     RDKit          3D

 50 53  0  0  1  0  0  0  0  0999 V2000
   11.7106   -2.3098    1.2658 C   0  0  0  0  0  0  0  0  0  0  0  0
   13.0313   -2.6523    0.7225 N   0  0  0  0  0  0  0  0  0  0  0  0
   14.2010   -2.6281    1.3773 C   0  0  0  0  0  0  0  0  0  0  0  0
   14.3777   -2.3568    2.6732 N   0  0  0  0  0  0  0  0  0  0  0  0
   15.2217   -2.9197    0.5738 N   0  0  0  0  0  0  0  0  0  0  0  0
   14.7965   -3.2519   -0.7875 C   0  0  1  0  0  0  0  0  0  0  0  0
   15.3794   -2.2443   -1.7949 C   0  0  0  0  0  0  0  0  0  0  0  0
   15.9522   -2.6550   -3.0208 C   0  0  0  0  0  0  0  0  0  0  0  0
   16.4340   -1.6937   -3.9273 C   0  0  0  0  0  0  0  0  0  0  0  0
   16.3364   -0.3224   -3.6308 C   0  0  0  0  0  0  0  0  0  0  0  0
   15.7943    0.1250   -2.4073 C   0  0  0  0  0  0  0  0  0  0  0  0
   15.6711    1.5693   -2.0915 C   0  0  0  0  0  0  0  0  0  0  0  0
   15.3832    2.0354   -0.7903 C   0  0  0  0  0  0  0  0  0  0  0  0
   15.3534    3.4188   -0.5357 C   0  0  0  0  0  0  0  0  0  0  0  0
   15.5968    4.3049   -1.5946 C   0  0  0  0  0  0  0  0  0  0  0  0
   15.8275    3.8920   -2.8511 N   0  0  0  0  0  0  0  0  0  0  0  0
   15.8598    2.5642   -3.0762 C   0  0  0  0  0  0  0  0  0  0  0  0
   15.3327   -0.8573   -1.5012 C   0  0  0  0  0  0  0  0  0  0  0  0
   13.2767   -3.0094   -0.6368 C   0  0  0  0  0  0  0  0  0  0  0  0
   12.3981   -3.0674   -1.5055 O   0  0  0  0  0  0  0  0  0  0  0  0
    0.0000    0.0000    0.0000 H   0  0  0  0  0  0  0  0  0  0  0  0
    0.0000    0.0000    0.0000 H   0  0  0  0  0  0  0  0  0  0  0  0
    0.0000    0.0000    0.0000 H   0  0  0  0  0  0  0  0  0  0  0  0
    0.0000    0.0000    0.0000 H   0  0  0  0  0  0  0  0  0  0  0  0
    0.0000    0.0000    0.0000 H   0  0  0  0  0  0  0  0  0  0  0  0
    0.0000    0.0000    0.0000 H   0  0  0  0  0  0  0  0  0  0  0  0
    0.0000    0.0000    0.0000 H   0  0  0  0  0  0  0  0  0  0  0  0
    0.0000    0.0000    0.0000 H   0  0  0  0  0  0  0  0  0  0  0  0
    0.0000    0.0000    0.0000 H   0  0  0  0  0  0  0  0  0  0  0  0
    0.0000    0.0000    0.0000 H   0  0  0  0  0  0  0  0  0  0  0  0
    0.0000    0.0000    0.0000 H   0  0  0  0  0  0  0  0  0  0  0  0
    0.0000    0.0000    0.0000 H   0  0  0  0  0  0  0  0  0  0  0  0
    0.0000    0.0000    0.0000 H   0  0  0  0  0  0  0  0  0  0  0  0
    0.0000    0.0000    0.0000 H   0  0  0  0  0  0  0  0  0  0  0  0
    6.9915   -1.5366   -0.3721 N   0  0  0  0  0  0  0  0  0  0  0  0
    6.4210   -0.9291    0.7798 C   0  0  0  0  0  0  0  0  0  0  0  0
    5.0741   -0.6363    0.8440 C   0  0  0  0  0  0  0  0  0  0  0  0
    4.4988   -0.0464    1.9527 C   0  0  0  0  0  0  0  0  0  0  0  0
    5.2520    0.2820    3.0612 C   0  0  0  0  0  0  0  0  0  0  0  0
    4.6453    0.9206    4.2686 C   0  0  0  0  0  0  0  0  0  0  0  0
    6.5979   -0.0114    2.9949 C   0  0  0  0  0  0  0  0  0  0  0  0
    7.1741   -0.6006    1.8885 C   0  0  0  0  0  0  0  0  0  0  0  0
    6.4576   -1.7965   -1.2207 H   0  0  0  0  0  0  0  0  0  0  0  0
    4.4721   -0.8976   -0.0393 H   0  0  0  0  0  0  0  0  0  0  0  0
    3.4446    0.1788    1.9941 H   0  0  0  0  0  0  0  0  0  0  0  0
    3.5716    0.6810    4.2872 H   0  0  0  0  0  0  0  0  0  0  0  0
    5.1893    0.6675    5.1879 H   0  0  0  0  0  0  0  0  0  0  0  0
    4.7062    2.0443    4.1614 H   0  0  0  0  0  0  0  0  0  0  0  0
    7.1831    0.2534    3.8787 H   0  0  0  0  0  0  0  0  0  0  0  0
    8.2476   -0.8199    1.8696 H   0  0  0  0  0  0  0  0  0  0  0  0
  1  2  1  0
  2  3  1  0
  2 19  1  0
  3  4  1  0
  3  5  2  0
  5  6  1  0
  6  7  1  0
  6 19  1  0
  7  8  2  0
  7 18  1  0
  8  9  1  0
  9 10  2  0
 10 11  1  0
 11 12  1  0
 11 18  2  0
 12 13  2  0
 12 17  1  0
 13 14  1  0
 14 15  2  0
 15 16  1  0
 16 17  2  0
 19 20  2  0
  1 21  1  0
  1 22  1  0
  1 23  1  0
  4 24  1  0
  4 25  1  0
  5 26  1  0
  8 27  1  0
  9 28  1  0
 10 29  1  0
 13 30  1  0
 14 31  1  0
 15 32  1  0
 17 33  1  0
 18 34  1  0
 35 36  1  0
 36 37  2  0
 37 38  1  0
 38 39  2  0
 39 40  1  0
 39 41  1  0
 41 42  2  0
 42 36  1  0
 35 43  1  0
 37 44  1  0
 38 45  1  0
 40 46  1  0
 40 47  1  0
 40 48  1  0
 41 49  1  0
 42 50  1  0
  6 35  1  6
M  CHG  1   5   1
M  END
>  <attachment_point>  (393) 
26

>  <score>  (393) 
<NA>

$$$$
CAT-4j
     RDKit          3D

 43 46  0  0  1  0  0  0  0  0999 V2000
   11.7106   -2.3098    1.2658 C   0  0  0  0  0  0  0  0  0  0  0  0
   13.0313   -2.6523    0.7225 N   0  0  0  0  0  0  0  0  0  0  0  0
   14.2010   -2.6281    1.3773 C   0  0  0  0  0  0  0  0  0  0  0  0
   14.3777   -2.3568    2.6732 N   0  0  0  0  0  0  0  0  0  0  0  0
   15.2217   -2.9197    0.5738 N   0  0  0  0  0  0  0  0  0  0  0  0
   14.7965   -3.2519   -0.7875 C   0  0  1  0  0  0  0  0  0  0  0  0
   15.3794   -2.2443   -1.7949 C   0  0  0  0  0  0  0  0  0  0  0  0
   15.9522   -2.6550   -3.0208 C   0  0  0  0  0  0  0  0  0  0  0  0
   16.4340   -1.6937   -3.9273 C   0  0  0  0  0  0  0  0  0  0  0  0
   16.3364   -0.3224   -3.6308 C   0  0  0  0  0  0  0  0  0  0  0  0
   15.7943    0.1250   -2.4073 C   0  0  0  0  0  0  0  0  0  0  0  0
   15.6711    1.5693   -2.0915 C   0  0  0  0  0  0  0  0  0  0  0  0
   15.3832    2.0354   -0.7903 C   0  0  0  0  0  0  0  0  0  0  0  0
   15.3534    3.4188   -0.5357 C   0  0  0  0  0  0  0  0  0  0  0  0
   15.5968    4.3049   -1.5946 C   0  0  0  0  0  0  0  0  0  0  0  0
   15.8275    3.8920   -2.8511 N   0  0  0  0  0  0  0  0  0  0  0  0
   15.8598    2.5642   -3.0762 C   0  0  0  0  0  0  0  0  0  0  0  0
   15.3327   -0.8573   -1.5012 C   0  0  0  0  0  0  0  0  0  0  0  0
   13.2767   -3.0094   -0.6368 C   0  0  0  0  0  0  0  0  0  0  0  0
   12.3981   -3.0674   -1.5055 O   0  0  0  0  0  0  0  0  0  0  0  0
    0.0000    0.0000    0.0000 H   0  0  0  0  0  0  0  0  0  0  0  0
    0.0000    0.0000    0.0000 H   0  0  0  0  0  0  0  0  0  0  0  0
    0.0000    0.0000    0.0000 H   0  0  0  0  0  0  0  0  0  0  0  0
    0.0000    0.0000    0.0000 H   0  0  0  0  0  0  0  0  0  0  0  0
    0.0000    0.0000    0.0000 H   0  0  0  0  0  0  0  0  0  0  0  0
    0.0000    0.0000    0.0000 H   0  0  0  0  0  0  0  0  0  0  0  0
    0.0000    0.0000    0.0000 H   0  0  0  0  0  0  0  0  0  0  0  0
    0.0000    0.0000    0.0000 H   0  0  0  0  0  0  0  0  0  0  0  0
    0.0000    0.0000    0.0000 H   0  0  0  0  0  0  0  0  0  0  0  0
    0.0000    0.0000    0.0000 H   0  0  0  0  0  0  0  0  0  0  0  0
    0.0000    0.0000    0.0000 H   0  0  0  0  0  0  0  0  0  0  0  0
    0.0000    0.0000    0.0000 H   0  0  0  0  0  0  0  0  0  0  0  0
    0.0000    0.0000    0.0000 H   0  0  0  0  0  0  0  0  0  0  0  0
    0.0000    0.0000    0.0000 H   0  0  0  0  0  0  0  0  0  0  0  0
    6.9094   -1.5185   -0.3677 C   0  0  0  0  0  0  0  0  0  0  0  0
    6.0384   -1.6478   -1.3784 C   0  0  0  0  0  0  0  0  0  0  0  0
    4.8057   -1.2362   -0.8499 C   0  0  0  0  0  0  0  0  0  0  0  0
    5.0290   -0.8851    0.4563 C   0  0  0  0  0  0  0  0  0  0  0  0
    6.3528   -1.0778    0.7099 N   0  0  0  0  0  0  0  0  0  0  0  0
    6.1345   -1.9773   -2.3989 H   0  0  0  0  0  0  0  0  0  0  0  0
    3.8873   -1.2118   -1.3856 H   0  0  0  0  0  0  0  0  0  0  0  0
    4.2928   -0.5134    1.1867 H   0  0  0  0  0  0  0  0  0  0  0  0
    6.8110   -0.8859    1.6499 H   0  0  0  0  0  0  0  0  0  0  0  0
  1  2  1  0
  2  3  1  0
  2 19  1  0
  3  4  1  0
  3  5  2  0
  5  6  1  0
  6  7  1  1
  6 19  1  0
  7  8  2  0
  7 18  1  0
  8  9  1  0
  9 10  2  0
 10 11  1  0
 11 12  1  0
 11 18  2  0
 12 13  2  0
 12 17  1  0
 13 14  1  0
 14 15  2  0
 15 16  1  0
 16 17  2  0
 19 20  2  0
  1 21  1  0
  1 22  1  0
  1 23  1  0
  4 24  1  0
  4 25  1  0
  5 26  1  0
  8 27  1  0
  9 28  1  0
 10 29  1  0
 13 30  1  0
 14 31  1  0
 15 32  1  0
 17 33  1  0
 18 34  1  0
 35 36  2  0
 36 37  1  0
 37 38  2  0
 38 39  1  0
 39 35  1  0
 36 40  1  0
 37 41  1  0
 38 42  1  0
 39 43  1  0
  6 35  1  0
M  CHG  1   5   1
M  END
>  <attachment_point>  (394) 
26

>  <score>  (394) 
<NA>

$$$$
CAT-4j
     RDKit          3D

 49 52  0  0  1  0  0  0  0  0999 V2000
   11.7106   -2.3098    1.2658 C   0  0  0  0  0  0  0  0  0  0  0  0
   13.0313   -2.6523    0.7225 N   0  0  0  0  0  0  0  0  0  0  0  0
   14.2010   -2.6281    1.3773 C   0  0  0  0  0  0  0  0  0  0  0  0
   14.3777   -2.3568    2.6732 N   0  0  0  0  0  0  0  0  0  0  0  0
   15.2217   -2.9197    0.5738 N   0  0  0  0  0  0  0  0  0  0  0  0
   14.7965   -3.2519   -0.7875 C   0  0  1  0  0  0  0  0  0  0  0  0
   15.3794   -2.2443   -1.7949 C   0  0  0  0  0  0  0  0  0  0  0  0
   15.9522   -2.6550   -3.0208 C   0  0  0  0  0  0  0  0  0  0  0  0
   16.4340   -1.6937   -3.9273 C   0  0  0  0  0  0  0  0  0  0  0  0
   16.3364   -0.3224   -3.6308 C   0  0  0  0  0  0  0  0  0  0  0  0
   15.7943    0.1250   -2.4073 C   0  0  0  0  0  0  0  0  0  0  0  0
   15.6711    1.5693   -2.0915 C   0  0  0  0  0  0  0  0  0  0  0  0
   15.3832    2.0354   -0.7903 C   0  0  0  0  0  0  0  0  0  0  0  0
   15.3534    3.4188   -0.5357 C   0  0  0  0  0  0  0  0  0  0  0  0
   15.5968    4.3049   -1.5946 C   0  0  0  0  0  0  0  0  0  0  0  0
   15.8275    3.8920   -2.8511 N   0  0  0  0  0  0  0  0  0  0  0  0
   15.8598    2.5642   -3.0762 C   0  0  0  0  0  0  0  0  0  0  0  0
   15.3327   -0.8573   -1.5012 C   0  0  0  0  0  0  0  0  0  0  0  0
   13.2767   -3.0094   -0.6368 C   0  0  0  0  0  0  0  0  0  0  0  0
   12.3981   -3.0674   -1.5055 O   0  0  0  0  0  0  0  0  0  0  0  0
    0.0000    0.0000    0.0000 H   0  0  0  0  0  0  0  0  0  0  0  0
    0.0000    0.0000    0.0000 H   0  0  0  0  0  0  0  0  0  0  0  0
    0.0000    0.0000    0.0000 H   0  0  0  0  0  0  0  0  0  0  0  0
    0.0000    0.0000    0.0000 H   0  0  0  0  0  0  0  0  0  0  0  0
    0.0000    0.0000    0.0000 H   0  0  0  0  0  0  0  0  0  0  0  0
    0.0000    0.0000    0.0000 H   0  0  0  0  0  0  0  0  0  0  0  0
    0.0000    0.0000    0.0000 H   0  0  0  0  0  0  0  0  0  0  0  0
    0.0000    0.0000    0.0000 H   0  0  0  0  0  0  0  0  0  0  0  0
    0.0000    0.0000    0.0000 H   0  0  0  0  0  0  0  0  0  0  0  0
    0.0000    0.0000    0.0000 H   0  0  0  0  0  0  0  0  0  0  0  0
    0.0000    0.0000    0.0000 H   0  0  0  0  0  0  0  0  0  0  0  0
    0.0000    0.0000    0.0000 H   0  0  0  0  0  0  0  0  0  0  0  0
    0.0000    0.0000    0.0000 H   0  0  0  0  0  0  0  0  0  0  0  0
    0.0000    0.0000    0.0000 H   0  0  0  0  0  0  0  0  0  0  0  0
    6.9994   -1.5383   -0.3725 C   0  0  0  0  0  0  0  0  0  0  0  0
    6.0803   -2.1642   -1.1909 C   0  0  0  0  0  0  0  0  0  0  0  0
    4.7396   -1.8517   -1.1010 C   0  0  0  0  0  0  0  0  0  0  0  0
    4.3086   -0.9011   -0.1816 C   0  0  0  0  0  0  0  0  0  0  0  0
    5.2089   -0.2739    0.6348 C   0  0  0  0  0  0  0  0  0  0  0  0
    4.7599    0.6589    1.5325 O   0  0  0  0  0  0  0  0  0  0  0  0
    4.6578    2.0417    1.2022 C   0  0  0  0  0  0  0  0  0  0  0  0
    3.7705    2.1191    0.1256 F   0  0  0  0  0  0  0  0  0  0  0  0
    4.1719    2.7365    2.2912 F   0  0  0  0  0  0  0  0  0  0  0  0
    5.9035    2.5044    0.8511 F   0  0  0  0  0  0  0  0  0  0  0  0
    6.5381   -0.5836    0.5458 C   0  0  0  0  0  0  0  0  0  0  0  0
    6.4573   -2.9109   -1.9063 H   0  0  0  0  0  0  0  0  0  0  0  0
    4.0373   -2.3678   -1.7661 H   0  0  0  0  0  0  0  0  0  0  0  0
    3.2646   -0.6439   -0.0970 H   0  0  0  0  0  0  0  0  0  0  0  0
    7.2327   -0.0771    1.1995 H   0  0  0  0  0  0  0  0  0  0  0  0
  1  2  1  0
  2  3  1  0
  2 19  1  0
  3  4  1  0
  3  5  2  0
  5  6  1  0
  6  7  1  1
  6 19  1  0
  7  8  2  0
  7 18  1  0
  8  9  1  0
  9 10  2  0
 10 11  1  0
 11 12  1  0
 11 18  2  0
 12 13  2  0
 12 17  1  0
 13 14  1  0
 14 15  2  0
 15 16  1  0
 16 17  2  0
 19 20  2  0
  1 21  1  0
  1 22  1  0
  1 23  1  0
  4 24  1  0
  4 25  1  0
  5 26  1  0
  8 27  1  0
  9 28  1  0
 10 29  1  0
 13 30  1  0
 14 31  1  0
 15 32  1  0
 17 33  1  0
 18 34  1  0
 35 36  2  0
 36 37  1  0
 37 38  2  0
 38 39  1  0
 39 40  1  0
 40 41  1  0
 41 42  1  0
 41 43  1  0
 41 44  1  0
 39 45  2  0
 45 35  1  0
 36 46  1  0
 37 47  1  0
 38 48  1  0
 45 49  1  0
  6 35  1  0
M  CHG  1   5   1
M  END
>  <attachment_point>  (395) 
26

>  <score>  (395) 
<NA>

$$$$
CAT-4j
     RDKit          3D

 53 56  0  0  1  0  0  0  0  0999 V2000
   11.7106   -2.3098    1.2658 C   0  0  0  0  0  0  0  0  0  0  0  0
   13.0313   -2.6523    0.7225 N   0  0  0  0  0  0  0  0  0  0  0  0
   14.2010   -2.6281    1.3773 C   0  0  0  0  0  0  0  0  0  0  0  0
   14.3777   -2.3568    2.6732 N   0  0  0  0  0  0  0  0  0  0  0  0
   15.2217   -2.9197    0.5738 N   0  0  0  0  0  0  0  0  0  0  0  0
   14.7965   -3.2519   -0.7875 C   0  0  1  0  0  0  0  0  0  0  0  0
   15.3794   -2.2443   -1.7949 C   0  0  0  0  0  0  0  0  0  0  0  0
   15.9522   -2.6550   -3.0208 C   0  0  0  0  0  0  0  0  0  0  0  0
   16.4340   -1.6937   -3.9273 C   0  0  0  0  0  0  0  0  0  0  0  0
   16.3364   -0.3224   -3.6308 C   0  0  0  0  0  0  0  0  0  0  0  0
   15.7943    0.1250   -2.4073 C   0  0  0  0  0  0  0  0  0  0  0  0
   15.6711    1.5693   -2.0915 C   0  0  0  0  0  0  0  0  0  0  0  0
   15.3832    2.0354   -0.7903 C   0  0  0  0  0  0  0  0  0  0  0  0
   15.3534    3.4188   -0.5357 C   0  0  0  0  0  0  0  0  0  0  0  0
   15.5968    4.3049   -1.5946 C   0  0  0  0  0  0  0  0  0  0  0  0
   15.8275    3.8920   -2.8511 N   0  0  0  0  0  0  0  0  0  0  0  0
   15.8598    2.5642   -3.0762 C   0  0  0  0  0  0  0  0  0  0  0  0
   15.3327   -0.8573   -1.5012 C   0  0  0  0  0  0  0  0  0  0  0  0
   13.2767   -3.0094   -0.6368 C   0  0  0  0  0  0  0  0  0  0  0  0
   12.3981   -3.0674   -1.5055 O   0  0  0  0  0  0  0  0  0  0  0  0
    0.0000    0.0000    0.0000 H   0  0  0  0  0  0  0  0  0  0  0  0
    0.0000    0.0000    0.0000 H   0  0  0  0  0  0  0  0  0  0  0  0
    0.0000    0.0000    0.0000 H   0  0  0  0  0  0  0  0  0  0  0  0
    0.0000    0.0000    0.0000 H   0  0  0  0  0  0  0  0  0  0  0  0
    0.0000    0.0000    0.0000 H   0  0  0  0  0  0  0  0  0  0  0  0
    0.0000    0.0000    0.0000 H   0  0  0  0  0  0  0  0  0  0  0  0
    0.0000    0.0000    0.0000 H   0  0  0  0  0  0  0  0  0  0  0  0
    0.0000    0.0000    0.0000 H   0  0  0  0  0  0  0  0  0  0  0  0
    0.0000    0.0000    0.0000 H   0  0  0  0  0  0  0  0  0  0  0  0
    0.0000    0.0000    0.0000 H   0  0  0  0  0  0  0  0  0  0  0  0
    0.0000    0.0000    0.0000 H   0  0  0  0  0  0  0  0  0  0  0  0
    0.0000    0.0000    0.0000 H   0  0  0  0  0  0  0  0  0  0  0  0
    0.0000    0.0000    0.0000 H   0  0  0  0  0  0  0  0  0  0  0  0
    0.0000    0.0000    0.0000 H   0  0  0  0  0  0  0  0  0  0  0  0
    6.9762   -1.5332   -0.3713 C   0  0  0  0  0  0  0  0  0  0  0  0
    6.5048   -0.4412   -1.0347 C   0  0  0  0  0  0  0  0  0  0  0  0
    5.1606   -0.1527   -0.9584 C   0  0  0  0  0  0  0  0  0  0  0  0
    4.6555    0.9472   -1.6204 O   0  0  0  0  0  0  0  0  0  0  0  0
    5.5041    1.7619   -2.3629 C   0  0  0  0  0  0  0  0  0  0  0  0
    4.3033   -0.9491   -0.2268 C   0  0  0  0  0  0  0  0  0  0  0  0
    4.7612   -2.0594    0.4522 C   0  0  0  0  0  0  0  0  0  0  0  0
    3.8622   -2.8267    1.1722 O   0  0  0  0  0  0  0  0  0  0  0  0
    4.1724   -3.9697    1.9039 C   0  0  0  0  0  0  0  0  0  0  0  0
    6.1073   -2.3412    0.3708 C   0  0  0  0  0  0  0  0  0  0  0  0
    7.2031    0.1681   -1.6033 H   0  0  0  0  0  0  0  0  0  0  0  0
    6.2780    2.2202   -1.6947 H   0  0  0  0  0  0  0  0  0  0  0  0
    5.0108    2.5778   -2.8925 H   0  0  0  0  0  0  0  0  0  0  0  0
    6.0601    1.1266   -3.0962 H   0  0  0  0  0  0  0  0  0  0  0  0
    3.2328   -0.7148   -0.1691 H   0  0  0  0  0  0  0  0  0  0  0  0
    4.3798   -3.6433    2.9626 H   0  0  0  0  0  0  0  0  0  0  0  0
    5.0993   -4.4913    1.5746 H   0  0  0  0  0  0  0  0  0  0  0  0
    3.3128   -4.6841    1.9789 H   0  0  0  0  0  0  0  0  0  0  0  0
    6.5045   -3.1931    0.8825 H   0  0  0  0  0  0  0  0  0  0  0  0
  1  2  1  0
  2  3  1  0
  2 19  1  0
  3  4  1  0
  3  5  2  0
  5  6  1  0
  6  7  1  1
  6 19  1  0
  7  8  2  0
  7 18  1  0
  8  9  1  0
  9 10  2  0
 10 11  1  0
 11 12  1  0
 11 18  2  0
 12 13  2  0
 12 17  1  0
 13 14  1  0
 14 15  2  0
 15 16  1  0
 16 17  2  0
 19 20  2  0
  1 21  1  0
  1 22  1  0
  1 23  1  0
  4 24  1  0
  4 25  1  0
  5 26  1  0
  8 27  1  0
  9 28  1  0
 10 29  1  0
 13 30  1  0
 14 31  1  0
 15 32  1  0
 17 33  1  0
 18 34  1  0
 35 36  2  0
 36 37  1  0
 37 38  1  0
 38 39  1  0
 37 40  2  0
 40 41  1  0
 41 42  1  0
 42 43  1  0
 41 44  2  0
 44 35  1  0
 36 45  1  0
 39 46  1  0
 39 47  1  0
 39 48  1  0
 40 49  1  0
 43 50  1  0
 43 51  1  0
 43 52  1  0
 44 53  1  0
  6 35  1  0
M  CHG  1   5   1
M  END
>  <attachment_point>  (396) 
26

>  <score>  (396) 
<NA>

$$$$
CAT-4j
     RDKit          3D

 56 59  0  0  1  0  0  0  0  0999 V2000
   11.7106   -2.3098    1.2658 C   0  0  0  0  0  0  0  0  0  0  0  0
   13.0313   -2.6523    0.7225 N   0  0  0  0  0  0  0  0  0  0  0  0
   14.2010   -2.6281    1.3773 C   0  0  0  0  0  0  0  0  0  0  0  0
   14.3777   -2.3568    2.6732 N   0  0  0  0  0  0  0  0  0  0  0  0
   15.2217   -2.9197    0.5738 N   0  0  0  0  0  0  0  0  0  0  0  0
   14.7965   -3.2519   -0.7875 C   0  0  1  0  0  0  0  0  0  0  0  0
   15.3794   -2.2443   -1.7949 C   0  0  0  0  0  0  0  0  0  0  0  0
   15.9522   -2.6550   -3.0208 C   0  0  0  0  0  0  0  0  0  0  0  0
   16.4340   -1.6937   -3.9273 C   0  0  0  0  0  0  0  0  0  0  0  0
   16.3364   -0.3224   -3.6308 C   0  0  0  0  0  0  0  0  0  0  0  0
   15.7943    0.1250   -2.4073 C   0  0  0  0  0  0  0  0  0  0  0  0
   15.6711    1.5693   -2.0915 C   0  0  0  0  0  0  0  0  0  0  0  0
   15.3832    2.0354   -0.7903 C   0  0  0  0  0  0  0  0  0  0  0  0
   15.3534    3.4188   -0.5357 C   0  0  0  0  0  0  0  0  0  0  0  0
   15.5968    4.3049   -1.5946 C   0  0  0  0  0  0  0  0  0  0  0  0
   15.8275    3.8920   -2.8511 N   0  0  0  0  0  0  0  0  0  0  0  0
   15.8598    2.5642   -3.0762 C   0  0  0  0  0  0  0  0  0  0  0  0
   15.3327   -0.8573   -1.5012 C   0  0  0  0  0  0  0  0  0  0  0  0
   13.2767   -3.0094   -0.6368 C   0  0  0  0  0  0  0  0  0  0  0  0
   12.3981   -3.0674   -1.5055 O   0  0  0  0  0  0  0  0  0  0  0  0
    0.0000    0.0000    0.0000 H   0  0  0  0  0  0  0  0  0  0  0  0
    0.0000    0.0000    0.0000 H   0  0  0  0  0  0  0  0  0  0  0  0
    0.0000    0.0000    0.0000 H   0  0  0  0  0  0  0  0  0  0  0  0
    0.0000    0.0000    0.0000 H   0  0  0  0  0  0  0  0  0  0  0  0
    0.0000    0.0000    0.0000 H   0  0  0  0  0  0  0  0  0  0  0  0
    0.0000    0.0000    0.0000 H   0  0  0  0  0  0  0  0  0  0  0  0
    0.0000    0.0000    0.0000 H   0  0  0  0  0  0  0  0  0  0  0  0
    0.0000    0.0000    0.0000 H   0  0  0  0  0  0  0  0  0  0  0  0
    0.0000    0.0000    0.0000 H   0  0  0  0  0  0  0  0  0  0  0  0
    0.0000    0.0000    0.0000 H   0  0  0  0  0  0  0  0  0  0  0  0
    0.0000    0.0000    0.0000 H   0  0  0  0  0  0  0  0  0  0  0  0
    0.0000    0.0000    0.0000 H   0  0  0  0  0  0  0  0  0  0  0  0
    0.0000    0.0000    0.0000 H   0  0  0  0  0  0  0  0  0  0  0  0
    0.0000    0.0000    0.0000 H   0  0  0  0  0  0  0  0  0  0  0  0
    6.9842   -1.5349   -0.3717 C   0  0  0  0  0  0  0  0  0  0  0  0
    6.5675   -0.8277    0.8002 N   0  0  0  0  0  0  0  0  0  0  0  0
    7.1856    0.4409    0.9773 C   0  0  0  0  0  0  0  0  0  0  0  0
    6.4287   -1.6173    1.9676 C   0  0  0  0  0  0  0  0  0  0  0  0
    5.4337   -2.7016    1.8117 C   0  0  0  0  0  0  0  0  0  0  0  0
    5.7976   -3.9706    1.3552 C   0  0  0  0  0  0  0  0  0  0  0  0
    4.8694   -4.9550    1.2163 C   0  0  0  0  0  0  0  0  0  0  0  0
    3.5461   -4.7384    1.5185 C   0  0  0  0  0  0  0  0  0  0  0  0
    3.2031   -3.4815    1.9675 C   0  0  0  0  0  0  0  0  0  0  0  0
    4.1081   -2.4526    2.1242 C   0  0  0  0  0  0  0  0  0  0  0  0
    6.4266   -2.4644   -0.5153 H   0  0  0  0  0  0  0  0  0  0  0  0
    6.8066   -0.8872   -1.2803 H   0  0  0  0  0  0  0  0  0  0  0  0
    6.7136    1.2203    0.3588 H   0  0  0  0  0  0  0  0  0  0  0  0
    8.2858    0.4355    0.8386 H   0  0  0  0  0  0  0  0  0  0  0  0
    7.0222    0.7592    2.0438 H   0  0  0  0  0  0  0  0  0  0  0  0
    7.3583   -2.0841    2.3347 H   0  0  0  0  0  0  0  0  0  0  0  0
    6.0542   -0.9493    2.7862 H   0  0  0  0  0  0  0  0  0  0  0  0
    6.8442   -4.1738    1.1075 H   0  0  0  0  0  0  0  0  0  0  0  0
    5.1387   -5.9432    0.8634 H   0  0  0  0  0  0  0  0  0  0  0  0
    2.8043   -5.5344    1.4046 H   0  0  0  0  0  0  0  0  0  0  0  0
    2.1545   -3.2956    2.2114 H   0  0  0  0  0  0  0  0  0  0  0  0
    3.8379   -1.4735    2.4746 H   0  0  0  0  0  0  0  0  0  0  0  0
  1  2  1  0
  2  3  1  0
  2 19  1  0
  3  4  1  0
  3  5  2  0
  5  6  1  0
  6  7  1  0
  6 19  1  0
  7  8  2  0
  7 18  1  0
  8  9  1  0
  9 10  2  0
 10 11  1  0
 11 12  1  0
 11 18  2  0
 12 13  2  0
 12 17  1  0
 13 14  1  0
 14 15  2  0
 15 16  1  0
 16 17  2  0
 19 20  2  0
  1 21  1  0
  1 22  1  0
  1 23  1  0
  4 24  1  0
  4 25  1  0
  5 26  1  0
  8 27  1  0
  9 28  1  0
 10 29  1  0
 13 30  1  0
 14 31  1  0
 15 32  1  0
 17 33  1  0
 18 34  1  0
 35 36  1  0
 36 37  1  0
 36 38  1  0
 38 39  1  0
 39 40  2  0
 40 41  1  0
 41 42  2  0
 42 43  1  0
 43 44  2  0
 44 39  1  0
 35 45  1  0
 35 46  1  0
 37 47  1  0
 37 48  1  0
 37 49  1  0
 38 50  1  0
 38 51  1  0
 40 52  1  0
 41 53  1  0
 42 54  1  0
 43 55  1  0
 44 56  1  0
  6 35  1  6
M  CHG  1   5   1
M  END
>  <attachment_point>  (397) 
26

>  <score>  (397) 
<NA>

$$$$
CAT-4j
     RDKit          3D

 50 53  0  0  1  0  0  0  0  0999 V2000
   11.7106   -2.3098    1.2658 C   0  0  0  0  0  0  0  0  0  0  0  0
   13.0313   -2.6523    0.7225 N   0  0  0  0  0  0  0  0  0  0  0  0
   14.2010   -2.6281    1.3773 C   0  0  0  0  0  0  0  0  0  0  0  0
   14.3777   -2.3568    2.6732 N   0  0  0  0  0  0  0  0  0  0  0  0
   15.2217   -2.9197    0.5738 N   0  0  0  0  0  0  0  0  0  0  0  0
   14.7965   -3.2519   -0.7875 C   0  0  1  0  0  0  0  0  0  0  0  0
   15.3794   -2.2443   -1.7949 C   0  0  0  0  0  0  0  0  0  0  0  0
   15.9522   -2.6550   -3.0208 C   0  0  0  0  0  0  0  0  0  0  0  0
   16.4340   -1.6937   -3.9273 C   0  0  0  0  0  0  0  0  0  0  0  0
   16.3364   -0.3224   -3.6308 C   0  0  0  0  0  0  0  0  0  0  0  0
   15.7943    0.1250   -2.4073 C   0  0  0  0  0  0  0  0  0  0  0  0
   15.6711    1.5693   -2.0915 C   0  0  0  0  0  0  0  0  0  0  0  0
   15.3832    2.0354   -0.7903 C   0  0  0  0  0  0  0  0  0  0  0  0
   15.3534    3.4188   -0.5357 C   0  0  0  0  0  0  0  0  0  0  0  0
   15.5968    4.3049   -1.5946 C   0  0  0  0  0  0  0  0  0  0  0  0
   15.8275    3.8920   -2.8511 N   0  0  0  0  0  0  0  0  0  0  0  0
   15.8598    2.5642   -3.0762 C   0  0  0  0  0  0  0  0  0  0  0  0
   15.3327   -0.8573   -1.5012 C   0  0  0  0  0  0  0  0  0  0  0  0
   13.2767   -3.0094   -0.6368 C   0  0  0  0  0  0  0  0  0  0  0  0
   12.3981   -3.0674   -1.5055 O   0  0  0  0  0  0  0  0  0  0  0  0
    0.0000    0.0000    0.0000 H   0  0  0  0  0  0  0  0  0  0  0  0
    0.0000    0.0000    0.0000 H   0  0  0  0  0  0  0  0  0  0  0  0
    0.0000    0.0000    0.0000 H   0  0  0  0  0  0  0  0  0  0  0  0
    0.0000    0.0000    0.0000 H   0  0  0  0  0  0  0  0  0  0  0  0
    0.0000    0.0000    0.0000 H   0  0  0  0  0  0  0  0  0  0  0  0
    0.0000    0.0000    0.0000 H   0  0  0  0  0  0  0  0  0  0  0  0
    0.0000    0.0000    0.0000 H   0  0  0  0  0  0  0  0  0  0  0  0
    0.0000    0.0000    0.0000 H   0  0  0  0  0  0  0  0  0  0  0  0
    0.0000    0.0000    0.0000 H   0  0  0  0  0  0  0  0  0  0  0  0
    0.0000    0.0000    0.0000 H   0  0  0  0  0  0  0  0  0  0  0  0
    0.0000    0.0000    0.0000 H   0  0  0  0  0  0  0  0  0  0  0  0
    0.0000    0.0000    0.0000 H   0  0  0  0  0  0  0  0  0  0  0  0
    0.0000    0.0000    0.0000 H   0  0  0  0  0  0  0  0  0  0  0  0
    0.0000    0.0000    0.0000 H   0  0  0  0  0  0  0  0  0  0  0  0
    6.9503   -1.5275   -0.3699 C   0  0  0  0  0  0  0  0  0  0  0  0
    6.2768   -2.7387    0.0787 N   0  0  0  0  0  0  0  0  0  0  0  0
    6.3853   -3.9115   -0.7109 C   0  0  0  0  0  0  0  0  0  0  0  0
    7.1054   -3.9261   -1.8772 C   0  0  0  0  0  0  0  0  0  0  0  0
    7.2074   -5.0657   -2.6388 C   0  0  0  0  0  0  0  0  0  0  0  0
    6.5952   -6.2297   -2.2643 C   0  0  0  0  0  0  0  0  0  0  0  0
    5.8722   -6.2105   -1.0909 C   0  0  0  0  0  0  0  0  0  0  0  0
    5.7635   -5.0703   -0.3182 C   0  0  0  0  0  0  0  0  0  0  0  0
    6.6030   -1.2623   -1.3881 H   0  0  0  0  0  0  0  0  0  0  0  0
    6.8434   -0.7118    0.3610 H   0  0  0  0  0  0  0  0  0  0  0  0
    5.7387   -2.6903    0.9698 H   0  0  0  0  0  0  0  0  0  0  0  0
    7.6203   -3.0210   -2.2309 H   0  0  0  0  0  0  0  0  0  0  0  0
    7.7899   -5.0379   -3.5615 H   0  0  0  0  0  0  0  0  0  0  0  0
    6.6736   -7.1419   -2.8687 H   0  0  0  0  0  0  0  0  0  0  0  0
    5.3775   -7.1440   -0.7845 H   0  0  0  0  0  0  0  0  0  0  0  0
    5.1726   -5.1084    0.6126 H   0  0  0  0  0  0  0  0  0  0  0  0
  1  2  1  0
  2  3  1  0
  2 19  1  0
  3  4  1  0
  3  5  2  0
  5  6  1  0
  6  7  1  0
  6 19  1  0
  7  8  2  0
  7 18  1  0
  8  9  1  0
  9 10  2  0
 10 11  1  0
 11 12  1  0
 11 18  2  0
 12 13  2  0
 12 17  1  0
 13 14  1  0
 14 15  2  0
 15 16  1  0
 16 17  2  0
 19 20  2  0
  1 21  1  0
  1 22  1  0
  1 23  1  0
  4 24  1  0
  4 25  1  0
  5 26  1  0
  8 27  1  0
  9 28  1  0
 10 29  1  0
 13 30  1  0
 14 31  1  0
 15 32  1  0
 17 33  1  0
 18 34  1  0
 35 36  1  0
 36 37  1  0
 37 38  2  0
 38 39  1  0
 39 40  2  0
 40 41  1  0
 41 42  2  0
 42 37  1  0
 35 43  1  0
 35 44  1  0
 36 45  1  0
 38 46  1  0
 39 47  1  0
 40 48  1  0
 41 49  1  0
 42 50  1  0
  6 35  1  6
M  CHG  1   5   1
M  END
>  <attachment_point>  (398) 
26

>  <score>  (398) 
<NA>

$$$$
CAT-4j
     RDKit          3D

 54 58  0  0  1  0  0  0  0  0999 V2000
   11.7106   -2.3098    1.2658 C   0  0  0  0  0  0  0  0  0  0  0  0
   13.0313   -2.6523    0.7225 N   0  0  0  0  0  0  0  0  0  0  0  0
   14.2010   -2.6281    1.3773 C   0  0  0  0  0  0  0  0  0  0  0  0
   14.3777   -2.3568    2.6732 N   0  0  0  0  0  0  0  0  0  0  0  0
   15.2217   -2.9197    0.5738 N   0  0  0  0  0  0  0  0  0  0  0  0
   14.7965   -3.2519   -0.7875 C   0  0  1  0  0  0  0  0  0  0  0  0
   15.3794   -2.2443   -1.7949 C   0  0  0  0  0  0  0  0  0  0  0  0
   15.9522   -2.6550   -3.0208 C   0  0  0  0  0  0  0  0  0  0  0  0
   16.4340   -1.6937   -3.9273 C   0  0  0  0  0  0  0  0  0  0  0  0
   16.3364   -0.3224   -3.6308 C   0  0  0  0  0  0  0  0  0  0  0  0
   15.7943    0.1250   -2.4073 C   0  0  0  0  0  0  0  0  0  0  0  0
   15.6711    1.5693   -2.0915 C   0  0  0  0  0  0  0  0  0  0  0  0
   15.3832    2.0354   -0.7903 C   0  0  0  0  0  0  0  0  0  0  0  0
   15.3534    3.4188   -0.5357 C   0  0  0  0  0  0  0  0  0  0  0  0
   15.5968    4.3049   -1.5946 C   0  0  0  0  0  0  0  0  0  0  0  0
   15.8275    3.8920   -2.8511 N   0  0  0  0  0  0  0  0  0  0  0  0
   15.8598    2.5642   -3.0762 C   0  0  0  0  0  0  0  0  0  0  0  0
   15.3327   -0.8573   -1.5012 C   0  0  0  0  0  0  0  0  0  0  0  0
   13.2767   -3.0094   -0.6368 C   0  0  0  0  0  0  0  0  0  0  0  0
   12.3981   -3.0674   -1.5055 O   0  0  0  0  0  0  0  0  0  0  0  0
    0.0000    0.0000    0.0000 H   0  0  0  0  0  0  0  0  0  0  0  0
    0.0000    0.0000    0.0000 H   0  0  0  0  0  0  0  0  0  0  0  0
    0.0000    0.0000    0.0000 H   0  0  0  0  0  0  0  0  0  0  0  0
    0.0000    0.0000    0.0000 H   0  0  0  0  0  0  0  0  0  0  0  0
    0.0000    0.0000    0.0000 H   0  0  0  0  0  0  0  0  0  0  0  0
    0.0000    0.0000    0.0000 H   0  0  0  0  0  0  0  0  0  0  0  0
    0.0000    0.0000    0.0000 H   0  0  0  0  0  0  0  0  0  0  0  0
    0.0000    0.0000    0.0000 H   0  0  0  0  0  0  0  0  0  0  0  0
    0.0000    0.0000    0.0000 H   0  0  0  0  0  0  0  0  0  0  0  0
    0.0000    0.0000    0.0000 H   0  0  0  0  0  0  0  0  0  0  0  0
    0.0000    0.0000    0.0000 H   0  0  0  0  0  0  0  0  0  0  0  0
    0.0000    0.0000    0.0000 H   0  0  0  0  0  0  0  0  0  0  0  0
    0.0000    0.0000    0.0000 H   0  0  0  0  0  0  0  0  0  0  0  0
    0.0000    0.0000    0.0000 H   0  0  0  0  0  0  0  0  0  0  0  0
    6.9991   -1.5382   -0.3725 C   0  0  0  0  0  0  0  0  0  0  0  0
    6.8013   -0.0808   -0.5951 C   0  0  0  0  0  0  0  0  0  0  0  0
    6.8134    0.7941    0.4715 C   0  0  0  0  0  0  0  0  0  0  0  0
    6.6336    2.1566    0.3114 C   0  0  0  0  0  0  0  0  0  0  0  0
    6.4324    2.6957   -0.9438 C   0  0  0  0  0  0  0  0  0  0  0  0
    6.2487    4.0546   -1.1444 C   0  0  0  0  0  0  0  0  0  0  0  0
    6.0475    4.5853   -2.4078 C   0  0  0  0  0  0  0  0  0  0  0  0
    6.0336    3.7227   -3.4774 C   0  0  0  0  0  0  0  0  0  0  0  0
    6.2164    2.3776   -3.2703 C   0  0  0  0  0  0  0  0  0  0  0  0
    6.4196    1.8235   -2.0130 C   0  0  0  0  0  0  0  0  0  0  0  0
    6.6003    0.4578   -1.8486 C   0  0  0  0  0  0  0  0  0  0  0  0
    6.6452   -1.7786    0.6613 H   0  0  0  0  0  0  0  0  0  0  0  0
    6.3744   -2.1216   -1.0803 H   0  0  0  0  0  0  0  0  0  0  0  0
    6.9744    0.3463    1.4575 H   0  0  0  0  0  0  0  0  0  0  0  0
    6.6510    2.8059    1.1785 H   0  0  0  0  0  0  0  0  0  0  0  0
    6.2623    4.7330   -0.2795 H   0  0  0  0  0  0  0  0  0  0  0  0
    5.9128    5.6520   -2.4772 H   0  0  0  0  0  0  0  0  0  0  0  0
    5.8773    4.1259   -4.4691 H   0  0  0  0  0  0  0  0  0  0  0  0
    6.2102    1.6738   -4.0948 H   0  0  0  0  0  0  0  0  0  0  0  0
    6.5818   -0.1871   -2.7217 H   0  0  0  0  0  0  0  0  0  0  0  0
  1  2  1  0
  2  3  1  0
  2 19  1  0
  3  4  1  0
  3  5  2  0
  5  6  1  0
  6  7  1  0
  6 19  1  0
  7  8  2  0
  7 18  1  0
  8  9  1  0
  9 10  2  0
 10 11  1  0
 11 12  1  0
 11 18  2  0
 12 13  2  0
 12 17  1  0
 13 14  1  0
 14 15  2  0
 15 16  1  0
 16 17  2  0
 19 20  2  0
  1 21  1  0
  1 22  1  0
  1 23  1  0
  4 24  1  0
  4 25  1  0
  5 26  1  0
  8 27  1  0
  9 28  1  0
 10 29  1  0
 13 30  1  0
 14 31  1  0
 15 32  1  0
 17 33  1  0
 18 34  1  0
 35 36  1  0
 36 37  2  0
 37 38  1  0
 38 39  2  0
 39 40  1  0
 40 41  2  0
 41 42  1  0
 42 43  2  0
 43 44  1  0
 44 45  2  0
 45 36  1  0
 44 39  1  0
 35 46  1  0
 35 47  1  0
 37 48  1  0
 38 49  1  0
 40 50  1  0
 41 51  1  0
 42 52  1  0
 43 53  1  0
 45 54  1  0
  6 35  1  6
M  CHG  1   5   1
M  END
>  <attachment_point>  (399) 
26

>  <score>  (399) 
<NA>

$$$$
CAT-4j
     RDKit          3D

 49 53  0  0  1  0  0  0  0  0999 V2000
   11.7106   -2.3098    1.2658 C   0  0  0  0  0  0  0  0  0  0  0  0
   13.0313   -2.6523    0.7225 N   0  0  0  0  0  0  0  0  0  0  0  0
   14.2010   -2.6281    1.3773 C   0  0  0  0  0  0  0  0  0  0  0  0
   14.3777   -2.3568    2.6732 N   0  0  0  0  0  0  0  0  0  0  0  0
   15.2217   -2.9197    0.5738 N   0  0  0  0  0  0  0  0  0  0  0  0
   14.7965   -3.2519   -0.7875 C   0  0  1  0  0  0  0  0  0  0  0  0
   15.3794   -2.2443   -1.7949 C   0  0  0  0  0  0  0  0  0  0  0  0
   15.9522   -2.6550   -3.0208 C   0  0  0  0  0  0  0  0  0  0  0  0
   16.4340   -1.6937   -3.9273 C   0  0  0  0  0  0  0  0  0  0  0  0
   16.3364   -0.3224   -3.6308 C   0  0  0  0  0  0  0  0  0  0  0  0
   15.7943    0.1250   -2.4073 C   0  0  0  0  0  0  0  0  0  0  0  0
   15.6711    1.5693   -2.0915 C   0  0  0  0  0  0  0  0  0  0  0  0
   15.3832    2.0354   -0.7903 C   0  0  0  0  0  0  0  0  0  0  0  0
   15.3534    3.4188   -0.5357 C   0  0  0  0  0  0  0  0  0  0  0  0
   15.5968    4.3049   -1.5946 C   0  0  0  0  0  0  0  0  0  0  0  0
   15.8275    3.8920   -2.8511 N   0  0  0  0  0  0  0  0  0  0  0  0
   15.8598    2.5642   -3.0762 C   0  0  0  0  0  0  0  0  0  0  0  0
   15.3327   -0.8573   -1.5012 C   0  0  0  0  0  0  0  0  0  0  0  0
   13.2767   -3.0094   -0.6368 C   0  0  0  0  0  0  0  0  0  0  0  0
   12.3981   -3.0674   -1.5055 O   0  0  0  0  0  0  0  0  0  0  0  0
    0.0000    0.0000    0.0000 H   0  0  0  0  0  0  0  0  0  0  0  0
    0.0000    0.0000    0.0000 H   0  0  0  0  0  0  0  0  0  0  0  0
    0.0000    0.0000    0.0000 H   0  0  0  0  0  0  0  0  0  0  0  0
    0.0000    0.0000    0.0000 H   0  0  0  0  0  0  0  0  0  0  0  0
    0.0000    0.0000    0.0000 H   0  0  0  0  0  0  0  0  0  0  0  0
    0.0000    0.0000    0.0000 H   0  0  0  0  0  0  0  0  0  0  0  0
    0.0000    0.0000    0.0000 H   0  0  0  0  0  0  0  0  0  0  0  0
    0.0000    0.0000    0.0000 H   0  0  0  0  0  0  0  0  0  0  0  0
    0.0000    0.0000    0.0000 H   0  0  0  0  0  0  0  0  0  0  0  0
    0.0000    0.0000    0.0000 H   0  0  0  0  0  0  0  0  0  0  0  0
    0.0000    0.0000    0.0000 H   0  0  0  0  0  0  0  0  0  0  0  0
    0.0000    0.0000    0.0000 H   0  0  0  0  0  0  0  0  0  0  0  0
    0.0000    0.0000    0.0000 H   0  0  0  0  0  0  0  0  0  0  0  0
    0.0000    0.0000    0.0000 H   0  0  0  0  0  0  0  0  0  0  0  0
    6.9204   -1.5209   -0.3683 C   0  0  0  0  0  0  0  0  0  0  0  0
    6.0349   -2.5046   -0.6874 C   0  0  0  0  0  0  0  0  0  0  0  0
    4.6778   -2.1863   -0.6091 C   0  0  0  0  0  0  0  0  0  0  0  0
    4.2545   -0.9334   -0.2261 C   0  0  0  0  0  0  0  0  0  0  0  0
    3.0105   -0.3601   -0.0667 C   0  0  0  0  0  0  0  0  0  0  0  0
    3.1817    0.9462    0.3418 C   0  0  0  0  0  0  0  0  0  0  0  0
    4.5100    1.1364    0.4210 N   0  0  0  0  0  0  0  0  0  0  0  0
    5.1806    0.0265    0.0862 C   0  0  0  0  0  0  0  0  0  0  0  0
    6.5525   -0.2763    0.0129 C   0  0  0  0  0  0  0  0  0  0  0  0
    6.3557   -3.4903   -0.9889 H   0  0  0  0  0  0  0  0  0  0  0  0
    3.9243   -2.9201   -0.8485 H   0  0  0  0  0  0  0  0  0  0  0  0
    2.0555   -0.8695   -0.2395 H   0  0  0  0  0  0  0  0  0  0  0  0
    2.4205    1.6910    0.5618 H   0  0  0  0  0  0  0  0  0  0  0  0
    4.9666    2.0422    0.7094 H   0  0  0  0  0  0  0  0  0  0  0  0
    7.2608    0.4907    0.2620 H   0  0  0  0  0  0  0  0  0  0  0  0
  1  2  1  0
  2  3  1  0
  2 19  1  0
  3  4  1  0
  3  5  2  0
  5  6  1  0
  6  7  1  1
  6 19  1  0
  7  8  2  0
  7 18  1  0
  8  9  1  0
  9 10  2  0
 10 11  1  0
 11 12  1  0
 11 18  2  0
 12 13  2  0
 12 17  1  0
 13 14  1  0
 14 15  2  0
 15 16  1  0
 16 17  2  0
 19 20  2  0
  1 21  1  0
  1 22  1  0
  1 23  1  0
  4 24  1  0
  4 25  1  0
  5 26  1  0
  8 27  1  0
  9 28  1  0
 10 29  1  0
 13 30  1  0
 14 31  1  0
 15 32  1  0
 17 33  1  0
 18 34  1  0
 35 36  2  0
 36 37  1  0
 37 38  2  0
 38 39  1  0
 39 40  2  0
 40 41  1  0
 41 42  1  0
 42 43  2  0
 43 35  1  0
 42 38  1  0
 36 44  1  0
 37 45  1  0
 39 46  1  0
 40 47  1  0
 41 48  1  0
 43 49  1  0
  6 35  1  0
M  CHG  1   5   1
M  END
>  <attachment_point>  (400) 
26

>  <score>  (400) 
<NA>

$$$$
CAT-4j
     RDKit          3D

 42 44  0  0  1  0  0  0  0  0999 V2000
   11.7106   -2.3098    1.2658 C   0  0  0  0  0  0  0  0  0  0  0  0
   13.0313   -2.6523    0.7225 N   0  0  0  0  0  0  0  0  0  0  0  0
   14.2010   -2.6281    1.3773 C   0  0  0  0  0  0  0  0  0  0  0  0
   14.3777   -2.3568    2.6732 N   0  0  0  0  0  0  0  0  0  0  0  0
   15.2217   -2.9197    0.5738 N   0  0  0  0  0  0  0  0  0  0  0  0
   14.7965   -3.2519   -0.7875 C   0  0  1  0  0  0  0  0  0  0  0  0
   15.3794   -2.2443   -1.7949 C   0  0  0  0  0  0  0  0  0  0  0  0
   15.9522   -2.6550   -3.0208 C   0  0  0  0  0  0  0  0  0  0  0  0
   16.4340   -1.6937   -3.9273 C   0  0  0  0  0  0  0  0  0  0  0  0
   16.3364   -0.3224   -3.6308 C   0  0  0  0  0  0  0  0  0  0  0  0
   15.7943    0.1250   -2.4073 C   0  0  0  0  0  0  0  0  0  0  0  0
   15.6711    1.5693   -2.0915 C   0  0  0  0  0  0  0  0  0  0  0  0
   15.3832    2.0354   -0.7903 C   0  0  0  0  0  0  0  0  0  0  0  0
   15.3534    3.4188   -0.5357 C   0  0  0  0  0  0  0  0  0  0  0  0
   15.5968    4.3049   -1.5946 C   0  0  0  0  0  0  0  0  0  0  0  0
   15.8275    3.8920   -2.8511 N   0  0  0  0  0  0  0  0  0  0  0  0
   15.8598    2.5642   -3.0762 C   0  0  0  0  0  0  0  0  0  0  0  0
   15.3327   -0.8573   -1.5012 C   0  0  0  0  0  0  0  0  0  0  0  0
   13.2767   -3.0094   -0.6368 C   0  0  0  0  0  0  0  0  0  0  0  0
   12.3981   -3.0674   -1.5055 O   0  0  0  0  0  0  0  0  0  0  0  0
    0.0000    0.0000    0.0000 H   0  0  0  0  0  0  0  0  0  0  0  0
    0.0000    0.0000    0.0000 H   0  0  0  0  0  0  0  0  0  0  0  0
    0.0000    0.0000    0.0000 H   0  0  0  0  0  0  0  0  0  0  0  0
    0.0000    0.0000    0.0000 H   0  0  0  0  0  0  0  0  0  0  0  0
    0.0000    0.0000    0.0000 H   0  0  0  0  0  0  0  0  0  0  0  0
    0.0000    0.0000    0.0000 H   0  0  0  0  0  0  0  0  0  0  0  0
    0.0000    0.0000    0.0000 H   0  0  0  0  0  0  0  0  0  0  0  0
    0.0000    0.0000    0.0000 H   0  0  0  0  0  0  0  0  0  0  0  0
    0.0000    0.0000    0.0000 H   0  0  0  0  0  0  0  0  0  0  0  0
    0.0000    0.0000    0.0000 H   0  0  0  0  0  0  0  0  0  0  0  0
    0.0000    0.0000    0.0000 H   0  0  0  0  0  0  0  0  0  0  0  0
    0.0000    0.0000    0.0000 H   0  0  0  0  0  0  0  0  0  0  0  0
    0.0000    0.0000    0.0000 H   0  0  0  0  0  0  0  0  0  0  0  0
    0.0000    0.0000    0.0000 H   0  0  0  0  0  0  0  0  0  0  0  0
    6.9711   -1.5321   -0.3710 C   0  0  0  0  0  0  0  0  0  0  0  0
    6.0575   -2.4077   -0.7485 C   0  0  0  0  0  0  0  0  0  0  0  0
    4.6445   -2.0693   -0.6624 C   0  0  0  0  0  0  0  0  0  0  0  0
    4.3073   -0.9552   -0.2328 O   0  0  0  0  0  0  0  0  0  0  0  0
    3.6472   -2.9565   -1.0472 O   0  0  0  0  0  0  0  0  0  0  0  0
    6.6542   -0.5775   -0.0040 H   0  0  0  0  0  0  0  0  0  0  0  0
    6.4111   -3.3675   -1.1164 H   0  0  0  0  0  0  0  0  0  0  0  0
    2.8092   -3.0549   -0.4523 H   0  0  0  0  0  0  0  0  0  0  0  0
  1  2  1  0
  2  3  1  0
  2 19  1  0
  3  4  1  0
  3  5  2  0
  5  6  1  0
  6  7  1  1
  6 19  1  0
  7  8  2  0
  7 18  1  0
  8  9  1  0
  9 10  2  0
 10 11  1  0
 11 12  1  0
 11 18  2  0
 12 13  2  0
 12 17  1  0
 13 14  1  0
 14 15  2  0
 15 16  1  0
 16 17  2  0
 19 20  2  0
  1 21  1  0
  1 22  1  0
  1 23  1  0
  4 24  1  0
  4 25  1  0
  5 26  1  0
  8 27  1  0
  9 28  1  0
 10 29  1  0
 13 30  1  0
 14 31  1  0
 15 32  1  0
 17 33  1  0
 18 34  1  0
 35 36  2  3
 36 37  1  0
 37 38  2  0
 37 39  1  0
 35 40  1  0
 36 41  1  0
 39 42  1  0
  6 35  1  0
M  CHG  1   5   1
M  END
>  <attachment_point>  (401) 
26

>  <score>  (401) 
<NA>

$$$$
CAT-4j
     RDKit          3D

 46 49  0  0  1  0  0  0  0  0999 V2000
   11.7106   -2.3098    1.2658 C   0  0  0  0  0  0  0  0  0  0  0  0
   13.0313   -2.6523    0.7225 N   0  0  0  0  0  0  0  0  0  0  0  0
   14.2010   -2.6281    1.3773 C   0  0  0  0  0  0  0  0  0  0  0  0
   14.3777   -2.3568    2.6732 N   0  0  0  0  0  0  0  0  0  0  0  0
   15.2217   -2.9197    0.5738 N   0  0  0  0  0  0  0  0  0  0  0  0
   14.7965   -3.2519   -0.7875 C   0  0  1  0  0  0  0  0  0  0  0  0
   15.3794   -2.2443   -1.7949 C   0  0  0  0  0  0  0  0  0  0  0  0
   15.9522   -2.6550   -3.0208 C   0  0  0  0  0  0  0  0  0  0  0  0
   16.4340   -1.6937   -3.9273 C   0  0  0  0  0  0  0  0  0  0  0  0
   16.3364   -0.3224   -3.6308 C   0  0  0  0  0  0  0  0  0  0  0  0
   15.7943    0.1250   -2.4073 C   0  0  0  0  0  0  0  0  0  0  0  0
   15.6711    1.5693   -2.0915 C   0  0  0  0  0  0  0  0  0  0  0  0
   15.3832    2.0354   -0.7903 C   0  0  0  0  0  0  0  0  0  0  0  0
   15.3534    3.4188   -0.5357 C   0  0  0  0  0  0  0  0  0  0  0  0
   15.5968    4.3049   -1.5946 C   0  0  0  0  0  0  0  0  0  0  0  0
   15.8275    3.8920   -2.8511 N   0  0  0  0  0  0  0  0  0  0  0  0
   15.8598    2.5642   -3.0762 C   0  0  0  0  0  0  0  0  0  0  0  0
   15.3327   -0.8573   -1.5012 C   0  0  0  0  0  0  0  0  0  0  0  0
   13.2767   -3.0094   -0.6368 C   0  0  0  0  0  0  0  0  0  0  0  0
   12.3981   -3.0674   -1.5055 O   0  0  0  0  0  0  0  0  0  0  0  0
    0.0000    0.0000    0.0000 H   0  0  0  0  0  0  0  0  0  0  0  0
    0.0000    0.0000    0.0000 H   0  0  0  0  0  0  0  0  0  0  0  0
    0.0000    0.0000    0.0000 H   0  0  0  0  0  0  0  0  0  0  0  0
    0.0000    0.0000    0.0000 H   0  0  0  0  0  0  0  0  0  0  0  0
    0.0000    0.0000    0.0000 H   0  0  0  0  0  0  0  0  0  0  0  0
    0.0000    0.0000    0.0000 H   0  0  0  0  0  0  0  0  0  0  0  0
    0.0000    0.0000    0.0000 H   0  0  0  0  0  0  0  0  0  0  0  0
    0.0000    0.0000    0.0000 H   0  0  0  0  0  0  0  0  0  0  0  0
    0.0000    0.0000    0.0000 H   0  0  0  0  0  0  0  0  0  0  0  0
    0.0000    0.0000    0.0000 H   0  0  0  0  0  0  0  0  0  0  0  0
    0.0000    0.0000    0.0000 H   0  0  0  0  0  0  0  0  0  0  0  0
    0.0000    0.0000    0.0000 H   0  0  0  0  0  0  0  0  0  0  0  0
    0.0000    0.0000    0.0000 H   0  0  0  0  0  0  0  0  0  0  0  0
    0.0000    0.0000    0.0000 H   0  0  0  0  0  0  0  0  0  0  0  0
    6.9976   -1.5379   -0.3724 C   0  0  1  0  0  0  0  0  0  0  0  0
    6.3075   -2.8349    0.0747 C   0  0  0  0  0  0  0  0  0  0  0  0
    6.9734   -2.9497    1.4552 C   0  0  0  0  0  0  0  0  0  0  0  0
    6.9711   -1.4940    1.8649 C   0  0  0  0  0  0  0  0  0  0  0  0
    6.7825   -0.7365    0.7424 O   0  0  0  0  0  0  0  0  0  0  0  0
    6.5412   -1.1202   -1.2686 H   0  0  0  0  0  0  0  0  0  0  0  0
    6.5398   -3.6757   -0.5704 H   0  0  0  0  0  0  0  0  0  0  0  0
    5.2348   -2.6494    0.2492 H   0  0  0  0  0  0  0  0  0  0  0  0
    8.0329   -3.2621    1.3065 H   0  0  0  0  0  0  0  0  0  0  0  0
    6.4098   -3.5997    2.1296 H   0  0  0  0  0  0  0  0  0  0  0  0
    7.8717   -1.2146    2.4540 H   0  0  0  0  0  0  0  0  0  0  0  0
    6.1141   -1.3896    2.5942 H   0  0  0  0  0  0  0  0  0  0  0  0
  1  2  1  0
  2  3  1  0
  2 19  1  0
  3  4  1  0
  3  5  2  0
  5  6  1  0
  6  7  1  1
  6 19  1  0
  7  8  2  0
  7 18  1  0
  8  9  1  0
  9 10  2  0
 10 11  1  0
 11 12  1  0
 11 18  2  0
 12 13  2  0
 12 17  1  0
 13 14  1  0
 14 15  2  0
 15 16  1  0
 16 17  2  0
 19 20  2  0
  1 21  1  0
  1 22  1  0
  1 23  1  0
  4 24  1  0
  4 25  1  0
  5 26  1  0
  8 27  1  0
  9 28  1  0
 10 29  1  0
 13 30  1  0
 14 31  1  0
 15 32  1  0
 17 33  1  0
 18 34  1  0
 35 36  1  0
 36 37  1  0
 37 38  1  0
 38 39  1  0
 39 35  1  0
 35 40  1  1
 36 41  1  0
 36 42  1  0
 37 43  1  0
 37 44  1  0
 38 45  1  0
 38 46  1  0
  6 35  1  0
M  CHG  1   5   1
M  END
>  <attachment_point>  (402) 
26

>  <score>  (402) 
<NA>

$$$$
CAT-4j
     RDKit          3D

 47 49  0  0  1  0  0  0  0  0999 V2000
   11.7106   -2.3098    1.2658 C   0  0  0  0  0  0  0  0  0  0  0  0
   13.0313   -2.6523    0.7225 N   0  0  0  0  0  0  0  0  0  0  0  0
   14.2010   -2.6281    1.3773 C   0  0  0  0  0  0  0  0  0  0  0  0
   14.3777   -2.3568    2.6732 N   0  0  0  0  0  0  0  0  0  0  0  0
   15.2217   -2.9197    0.5738 N   0  0  0  0  0  0  0  0  0  0  0  0
   14.7965   -3.2519   -0.7875 C   0  0  1  0  0  0  0  0  0  0  0  0
   15.3794   -2.2443   -1.7949 C   0  0  0  0  0  0  0  0  0  0  0  0
   15.9522   -2.6550   -3.0208 C   0  0  0  0  0  0  0  0  0  0  0  0
   16.4340   -1.6937   -3.9273 C   0  0  0  0  0  0  0  0  0  0  0  0
   16.3364   -0.3224   -3.6308 C   0  0  0  0  0  0  0  0  0  0  0  0
   15.7943    0.1250   -2.4073 C   0  0  0  0  0  0  0  0  0  0  0  0
   15.6711    1.5693   -2.0915 C   0  0  0  0  0  0  0  0  0  0  0  0
   15.3832    2.0354   -0.7903 C   0  0  0  0  0  0  0  0  0  0  0  0
   15.3534    3.4188   -0.5357 C   0  0  0  0  0  0  0  0  0  0  0  0
   15.5968    4.3049   -1.5946 C   0  0  0  0  0  0  0  0  0  0  0  0
   15.8275    3.8920   -2.8511 N   0  0  0  0  0  0  0  0  0  0  0  0
   15.8598    2.5642   -3.0762 C   0  0  0  0  0  0  0  0  0  0  0  0
   15.3327   -0.8573   -1.5012 C   0  0  0  0  0  0  0  0  0  0  0  0
   13.2767   -3.0094   -0.6368 C   0  0  0  0  0  0  0  0  0  0  0  0
   12.3981   -3.0674   -1.5055 O   0  0  0  0  0  0  0  0  0  0  0  0
    0.0000    0.0000    0.0000 H   0  0  0  0  0  0  0  0  0  0  0  0
    0.0000    0.0000    0.0000 H   0  0  0  0  0  0  0  0  0  0  0  0
    0.0000    0.0000    0.0000 H   0  0  0  0  0  0  0  0  0  0  0  0
    0.0000    0.0000    0.0000 H   0  0  0  0  0  0  0  0  0  0  0  0
    0.0000    0.0000    0.0000 H   0  0  0  0  0  0  0  0  0  0  0  0
    0.0000    0.0000    0.0000 H   0  0  0  0  0  0  0  0  0  0  0  0
    0.0000    0.0000    0.0000 H   0  0  0  0  0  0  0  0  0  0  0  0
    0.0000    0.0000    0.0000 H   0  0  0  0  0  0  0  0  0  0  0  0
    0.0000    0.0000    0.0000 H   0  0  0  0  0  0  0  0  0  0  0  0
    0.0000    0.0000    0.0000 H   0  0  0  0  0  0  0  0  0  0  0  0
    0.0000    0.0000    0.0000 H   0  0  0  0  0  0  0  0  0  0  0  0
    0.0000    0.0000    0.0000 H   0  0  0  0  0  0  0  0  0  0  0  0
    0.0000    0.0000    0.0000 H   0  0  0  0  0  0  0  0  0  0  0  0
    0.0000    0.0000    0.0000 H   0  0  0  0  0  0  0  0  0  0  0  0
    6.7814   -1.4904   -0.3609 C   0  0  0  0  0  0  0  0  0  0  0  0
    6.5389   -2.8769   -0.4541 N   0  0  0  0  0  0  0  0  0  0  0  0
    7.1504   -3.5399    0.6811 C   0  0  0  0  0  0  0  0  0  0  0  0
    6.9347   -5.0344    0.6549 C   0  0  0  0  0  0  0  0  0  0  0  0
    7.4987   -5.5621   -0.5171 O   0  0  0  0  0  0  0  0  0  0  0  0
    7.0410   -1.0781    0.5929 H   0  0  0  0  0  0  0  0  0  0  0  0
    6.9705   -0.9360   -1.2533 H   0  0  0  0  0  0  0  0  0  0  0  0
    5.5266   -3.0832   -0.5584 H   0  0  0  0  0  0  0  0  0  0  0  0
    8.2466   -3.3735    0.5923 H   0  0  0  0  0  0  0  0  0  0  0  0
    6.7268   -3.1419    1.6250 H   0  0  0  0  0  0  0  0  0  0  0  0
    5.8421   -5.2766    0.6815 H   0  0  0  0  0  0  0  0  0  0  0  0
    7.4739   -5.4508    1.5288 H   0  0  0  0  0  0  0  0  0  0  0  0
    8.2240   -6.2026   -0.2917 H   0  0  0  0  0  0  0  0  0  0  0  0
  1  2  1  0
  2  3  1  0
  2 19  1  0
  3  4  1  0
  3  5  2  0
  5  6  1  0
  6  7  1  0
  6 19  1  0
  7  8  2  0
  7 18  1  0
  8  9  1  0
  9 10  2  0
 10 11  1  0
 11 12  1  0
 11 18  2  0
 12 13  2  0
 12 17  1  0
 13 14  1  0
 14 15  2  0
 15 16  1  0
 16 17  2  0
 19 20  2  0
  1 21  1  0
  1 22  1  0
  1 23  1  0
  4 24  1  0
  4 25  1  0
  5 26  1  0
  8 27  1  0
  9 28  1  0
 10 29  1  0
 13 30  1  0
 14 31  1  0
 15 32  1  0
 17 33  1  0
 18 34  1  0
 35 36  1  0
 36 37  1  0
 37 38  1  0
 38 39  1  0
 35 40  1  0
 35 41  1  0
 36 42  1  0
 37 43  1  0
 37 44  1  0
 38 45  1  0
 38 46  1  0
 39 47  1  0
  6 35  1  6
M  CHG  1   5   1
M  END
>  <attachment_point>  (403) 
26

>  <score>  (403) 
<NA>

$$$$
CAT-4j
     RDKit          3D

 51 54  0  0  1  0  0  0  0  0999 V2000
   11.7106   -2.3098    1.2658 C   0  0  0  0  0  0  0  0  0  0  0  0
   13.0313   -2.6523    0.7225 N   0  0  0  0  0  0  0  0  0  0  0  0
   14.2010   -2.6281    1.3773 C   0  0  0  0  0  0  0  0  0  0  0  0
   14.3777   -2.3568    2.6732 N   0  0  0  0  0  0  0  0  0  0  0  0
   15.2217   -2.9197    0.5738 N   0  0  0  0  0  0  0  0  0  0  0  0
   14.7965   -3.2519   -0.7875 C   0  0  1  0  0  0  0  0  0  0  0  0
   15.3794   -2.2443   -1.7949 C   0  0  0  0  0  0  0  0  0  0  0  0
   15.9522   -2.6550   -3.0208 C   0  0  0  0  0  0  0  0  0  0  0  0
   16.4340   -1.6937   -3.9273 C   0  0  0  0  0  0  0  0  0  0  0  0
   16.3364   -0.3224   -3.6308 C   0  0  0  0  0  0  0  0  0  0  0  0
   15.7943    0.1250   -2.4073 C   0  0  0  0  0  0  0  0  0  0  0  0
   15.6711    1.5693   -2.0915 C   0  0  0  0  0  0  0  0  0  0  0  0
   15.3832    2.0354   -0.7903 C   0  0  0  0  0  0  0  0  0  0  0  0
   15.3534    3.4188   -0.5357 C   0  0  0  0  0  0  0  0  0  0  0  0
   15.5968    4.3049   -1.5946 C   0  0  0  0  0  0  0  0  0  0  0  0
   15.8275    3.8920   -2.8511 N   0  0  0  0  0  0  0  0  0  0  0  0
   15.8598    2.5642   -3.0762 C   0  0  0  0  0  0  0  0  0  0  0  0
   15.3327   -0.8573   -1.5012 C   0  0  0  0  0  0  0  0  0  0  0  0
   13.2767   -3.0094   -0.6368 C   0  0  0  0  0  0  0  0  0  0  0  0
   12.3981   -3.0674   -1.5055 O   0  0  0  0  0  0  0  0  0  0  0  0
    0.0000    0.0000    0.0000 H   0  0  0  0  0  0  0  0  0  0  0  0
    0.0000    0.0000    0.0000 H   0  0  0  0  0  0  0  0  0  0  0  0
    0.0000    0.0000    0.0000 H   0  0  0  0  0  0  0  0  0  0  0  0
    0.0000    0.0000    0.0000 H   0  0  0  0  0  0  0  0  0  0  0  0
    0.0000    0.0000    0.0000 H   0  0  0  0  0  0  0  0  0  0  0  0
    0.0000    0.0000    0.0000 H   0  0  0  0  0  0  0  0  0  0  0  0
    0.0000    0.0000    0.0000 H   0  0  0  0  0  0  0  0  0  0  0  0
    0.0000    0.0000    0.0000 H   0  0  0  0  0  0  0  0  0  0  0  0
    0.0000    0.0000    0.0000 H   0  0  0  0  0  0  0  0  0  0  0  0
    0.0000    0.0000    0.0000 H   0  0  0  0  0  0  0  0  0  0  0  0
    0.0000    0.0000    0.0000 H   0  0  0  0  0  0  0  0  0  0  0  0
    0.0000    0.0000    0.0000 H   0  0  0  0  0  0  0  0  0  0  0  0
    0.0000    0.0000    0.0000 H   0  0  0  0  0  0  0  0  0  0  0  0
    0.0000    0.0000    0.0000 H   0  0  0  0  0  0  0  0  0  0  0  0
    6.8065   -1.4959   -0.3623 C   0  0  0  0  0  0  0  0  0  0  0  0
    7.0226   -0.0684   -0.3467 C   0  0  0  0  0  0  0  0  0  0  0  0
    7.4660    0.6512    0.7515 C   0  0  0  0  0  0  0  0  0  0  0  0
    7.7902    0.0749    2.1012 C   0  0  0  0  0  0  0  0  0  0  0  0
    7.5483    1.9441    0.3925 N   0  0  0  0  0  0  0  0  0  0  0  0
    7.1752    2.0308   -0.8681 N   0  0  0  0  0  0  0  0  0  0  0  0
    6.8462    0.8158   -1.3520 C   0  0  0  0  0  0  0  0  0  0  0  0
    6.3915    0.5850   -2.7133 C   0  0  0  0  0  0  0  0  0  0  0  0
    6.2716    1.5194   -3.5470 O   0  0  0  0  0  0  0  0  0  0  0  0
    6.0647   -0.6896   -3.1646 O   0  0  0  0  0  0  0  0  0  0  0  0
    6.6368   -1.9862   -1.2908 H   0  0  0  0  0  0  0  0  0  0  0  0
    6.7287   -2.0175    0.5633 H   0  0  0  0  0  0  0  0  0  0  0  0
    7.3609    0.7639    2.8373 H   0  0  0  0  0  0  0  0  0  0  0  0
    7.2621   -0.9138    2.2129 H   0  0  0  0  0  0  0  0  0  0  0  0
    8.8645   -0.1120    2.2077 H   0  0  0  0  0  0  0  0  0  0  0  0
    7.1589    2.9583   -1.3693 H   0  0  0  0  0  0  0  0  0  0  0  0
    6.0898   -0.9785   -4.1272 H   0  0  0  0  0  0  0  0  0  0  0  0
  1  2  1  0
  2  3  1  0
  2 19  1  0
  3  4  1  0
  3  5  2  0
  5  6  1  0
  6  7  1  0
  6 19  1  0
  7  8  2  0
  7 18  1  0
  8  9  1  0
  9 10  2  0
 10 11  1  0
 11 12  1  0
 11 18  2  0
 12 13  2  0
 12 17  1  0
 13 14  1  0
 14 15  2  0
 15 16  1  0
 16 17  2  0
 19 20  2  0
  1 21  1  0
  1 22  1  0
  1 23  1  0
  4 24  1  0
  4 25  1  0
  5 26  1  0
  8 27  1  0
  9 28  1  0
 10 29  1  0
 13 30  1  0
 14 31  1  0
 15 32  1  0
 17 33  1  0
 18 34  1  0
 35 36  1  0
 36 37  1  0
 37 38  1  0
 37 39  2  0
 39 40  1  0
 40 41  1  0
 41 42  1  0
 42 43  2  0
 42 44  1  0
 41 36  2  0
 35 45  1  0
 35 46  1  0
 38 47  1  0
 38 48  1  0
 38 49  1  0
 40 50  1  0
 44 51  1  0
  6 35  1  6
M  CHG  1   5   1
M  END
>  <attachment_point>  (404) 
26

>  <score>  (404) 
<NA>

$$$$
CAT-4j
     RDKit          3D

 50 53  0  0  1  0  0  0  0  0999 V2000
   11.7106   -2.3098    1.2658 C   0  0  0  0  0  0  0  0  0  0  0  0
   13.0313   -2.6523    0.7225 N   0  0  0  0  0  0  0  0  0  0  0  0
   14.2010   -2.6281    1.3773 C   0  0  0  0  0  0  0  0  0  0  0  0
   14.3777   -2.3568    2.6732 N   0  0  0  0  0  0  0  0  0  0  0  0
   15.2217   -2.9197    0.5738 N   0  0  0  0  0  0  0  0  0  0  0  0
   14.7965   -3.2519   -0.7875 C   0  0  1  0  0  0  0  0  0  0  0  0
   15.3794   -2.2443   -1.7949 C   0  0  0  0  0  0  0  0  0  0  0  0
   15.9522   -2.6550   -3.0208 C   0  0  0  0  0  0  0  0  0  0  0  0
   16.4340   -1.6937   -3.9273 C   0  0  0  0  0  0  0  0  0  0  0  0
   16.3364   -0.3224   -3.6308 C   0  0  0  0  0  0  0  0  0  0  0  0
   15.7943    0.1250   -2.4073 C   0  0  0  0  0  0  0  0  0  0  0  0
   15.6711    1.5693   -2.0915 C   0  0  0  0  0  0  0  0  0  0  0  0
   15.3832    2.0354   -0.7903 C   0  0  0  0  0  0  0  0  0  0  0  0
   15.3534    3.4188   -0.5357 C   0  0  0  0  0  0  0  0  0  0  0  0
   15.5968    4.3049   -1.5946 C   0  0  0  0  0  0  0  0  0  0  0  0
   15.8275    3.8920   -2.8511 N   0  0  0  0  0  0  0  0  0  0  0  0
   15.8598    2.5642   -3.0762 C   0  0  0  0  0  0  0  0  0  0  0  0
   15.3327   -0.8573   -1.5012 C   0  0  0  0  0  0  0  0  0  0  0  0
   13.2767   -3.0094   -0.6368 C   0  0  0  0  0  0  0  0  0  0  0  0
   12.3981   -3.0674   -1.5055 O   0  0  0  0  0  0  0  0  0  0  0  0
    0.0000    0.0000    0.0000 H   0  0  0  0  0  0  0  0  0  0  0  0
    0.0000    0.0000    0.0000 H   0  0  0  0  0  0  0  0  0  0  0  0
    0.0000    0.0000    0.0000 H   0  0  0  0  0  0  0  0  0  0  0  0
    0.0000    0.0000    0.0000 H   0  0  0  0  0  0  0  0  0  0  0  0
    0.0000    0.0000    0.0000 H   0  0  0  0  0  0  0  0  0  0  0  0
    0.0000    0.0000    0.0000 H   0  0  0  0  0  0  0  0  0  0  0  0
    0.0000    0.0000    0.0000 H   0  0  0  0  0  0  0  0  0  0  0  0
    0.0000    0.0000    0.0000 H   0  0  0  0  0  0  0  0  0  0  0  0
    0.0000    0.0000    0.0000 H   0  0  0  0  0  0  0  0  0  0  0  0
    0.0000    0.0000    0.0000 H   0  0  0  0  0  0  0  0  0  0  0  0
    0.0000    0.0000    0.0000 H   0  0  0  0  0  0  0  0  0  0  0  0
    0.0000    0.0000    0.0000 H   0  0  0  0  0  0  0  0  0  0  0  0
    0.0000    0.0000    0.0000 H   0  0  0  0  0  0  0  0  0  0  0  0
    0.0000    0.0000    0.0000 H   0  0  0  0  0  0  0  0  0  0  0  0
    6.9384   -1.5249   -0.3693 C   0  0  0  0  0  0  0  0  0  0  0  0
    6.4993   -0.5242   -0.9369 O   0  0  0  0  0  0  0  0  0  0  0  0
    6.1364   -2.4722    0.4079 C   0  0  0  0  0  0  0  0  0  0  0  0
    4.7790   -2.3060    0.5665 C   0  0  0  0  0  0  0  0  0  0  0  0
    4.0435   -3.2103    1.3025 C   0  0  0  0  0  0  0  0  0  0  0  0
    4.6277   -4.3185    1.9117 C   0  0  0  0  0  0  0  0  0  0  0  0
    3.8219   -5.2898    2.7052 C   0  0  0  0  0  0  0  0  0  0  0  0
    5.9811   -4.4852    1.7542 C   0  0  0  0  0  0  0  0  0  0  0  0
    6.7016   -3.5736    1.0165 C   0  0  0  0  0  0  0  0  0  0  0  0
    4.3105   -1.4589    0.1051 H   0  0  0  0  0  0  0  0  0  0  0  0
    2.9752   -3.0904    1.4344 H   0  0  0  0  0  0  0  0  0  0  0  0
    4.3622   -6.2467    2.7400 H   0  0  0  0  0  0  0  0  0  0  0  0
    3.7616   -4.9270    3.7620 H   0  0  0  0  0  0  0  0  0  0  0  0
    2.8116   -5.3630    2.2786 H   0  0  0  0  0  0  0  0  0  0  0  0
    6.4542   -5.3467    2.2241 H   0  0  0  0  0  0  0  0  0  0  0  0
    7.7659   -3.7205    0.9029 H   0  0  0  0  0  0  0  0  0  0  0  0
  1  2  1  0
  2  3  1  0
  2 19  1  0
  3  4  1  0
  3  5  2  0
  5  6  1  0
  6  7  1  0
  6 19  1  0
  7  8  2  0
  7 18  1  0
  8  9  1  0
  9 10  2  0
 10 11  1  0
 11 12  1  0
 11 18  2  0
 12 13  2  0
 12 17  1  0
 13 14  1  0
 14 15  2  0
 15 16  1  0
 16 17  2  0
 19 20  2  0
  1 21  1  0
  1 22  1  0
  1 23  1  0
  4 24  1  0
  4 25  1  0
  5 26  1  0
  8 27  1  0
  9 28  1  0
 10 29  1  0
 13 30  1  0
 14 31  1  0
 15 32  1  0
 17 33  1  0
 18 34  1  0
 35 36  2  0
 35 37  1  0
 37 38  2  0
 38 39  1  0
 39 40  2  0
 40 41  1  0
 40 42  1  0
 42 43  2  0
 43 37  1  0
 38 44  1  0
 39 45  1  0
 41 46  1  0
 41 47  1  0
 41 48  1  0
 42 49  1  0
 43 50  1  0
  6 35  1  6
M  CHG  1   5   1
M  END
>  <attachment_point>  (405) 
26

>  <score>  (405) 
<NA>

$$$$
CAT-4j
     RDKit          3D

 46 48  0  0  1  0  0  0  0  0999 V2000
   11.7106   -2.3098    1.2658 C   0  0  0  0  0  0  0  0  0  0  0  0
   13.0313   -2.6523    0.7225 N   0  0  0  0  0  0  0  0  0  0  0  0
   14.2010   -2.6281    1.3773 C   0  0  0  0  0  0  0  0  0  0  0  0
   14.3777   -2.3568    2.6732 N   0  0  0  0  0  0  0  0  0  0  0  0
   15.2217   -2.9197    0.5738 N   0  0  0  0  0  0  0  0  0  0  0  0
   14.7965   -3.2519   -0.7875 C   0  0  1  0  0  0  0  0  0  0  0  0
   15.3794   -2.2443   -1.7949 C   0  0  0  0  0  0  0  0  0  0  0  0
   15.9522   -2.6550   -3.0208 C   0  0  0  0  0  0  0  0  0  0  0  0
   16.4340   -1.6937   -3.9273 C   0  0  0  0  0  0  0  0  0  0  0  0
   16.3364   -0.3224   -3.6308 C   0  0  0  0  0  0  0  0  0  0  0  0
   15.7943    0.1250   -2.4073 C   0  0  0  0  0  0  0  0  0  0  0  0
   15.6711    1.5693   -2.0915 C   0  0  0  0  0  0  0  0  0  0  0  0
   15.3832    2.0354   -0.7903 C   0  0  0  0  0  0  0  0  0  0  0  0
   15.3534    3.4188   -0.5357 C   0  0  0  0  0  0  0  0  0  0  0  0
   15.5968    4.3049   -1.5946 C   0  0  0  0  0  0  0  0  0  0  0  0
   15.8275    3.8920   -2.8511 N   0  0  0  0  0  0  0  0  0  0  0  0
   15.8598    2.5642   -3.0762 C   0  0  0  0  0  0  0  0  0  0  0  0
   15.3327   -0.8573   -1.5012 C   0  0  0  0  0  0  0  0  0  0  0  0
   13.2767   -3.0094   -0.6368 C   0  0  0  0  0  0  0  0  0  0  0  0
   12.3981   -3.0674   -1.5055 O   0  0  0  0  0  0  0  0  0  0  0  0
    0.0000    0.0000    0.0000 H   0  0  0  0  0  0  0  0  0  0  0  0
    0.0000    0.0000    0.0000 H   0  0  0  0  0  0  0  0  0  0  0  0
    0.0000    0.0000    0.0000 H   0  0  0  0  0  0  0  0  0  0  0  0
    0.0000    0.0000    0.0000 H   0  0  0  0  0  0  0  0  0  0  0  0
    0.0000    0.0000    0.0000 H   0  0  0  0  0  0  0  0  0  0  0  0
    0.0000    0.0000    0.0000 H   0  0  0  0  0  0  0  0  0  0  0  0
    0.0000    0.0000    0.0000 H   0  0  0  0  0  0  0  0  0  0  0  0
    0.0000    0.0000    0.0000 H   0  0  0  0  0  0  0  0  0  0  0  0
    0.0000    0.0000    0.0000 H   0  0  0  0  0  0  0  0  0  0  0  0
    0.0000    0.0000    0.0000 H   0  0  0  0  0  0  0  0  0  0  0  0
    0.0000    0.0000    0.0000 H   0  0  0  0  0  0  0  0  0  0  0  0
    0.0000    0.0000    0.0000 H   0  0  0  0  0  0  0  0  0  0  0  0
    0.0000    0.0000    0.0000 H   0  0  0  0  0  0  0  0  0  0  0  0
    0.0000    0.0000    0.0000 H   0  0  0  0  0  0  0  0  0  0  0  0
    6.9270   -1.5224   -0.3687 C   0  0  0  0  0  0  0  0  0  0  0  0
    6.8799   -0.1484   -0.7463 N   0  0  0  0  0  0  0  0  0  0  0  0
    5.5898    0.4369   -0.7610 C   0  0  0  0  0  0  0  0  0  0  0  0
    5.7428    1.8970   -1.1843 C   0  0  0  0  0  0  0  0  0  0  0  0
    6.5494   -2.2290   -1.0978 H   0  0  0  0  0  0  0  0  0  0  0  0
    6.7428   -1.7372    0.6779 H   0  0  0  0  0  0  0  0  0  0  0  0
    7.6131    0.4554   -0.3785 H   0  0  0  0  0  0  0  0  0  0  0  0
    5.2070    0.4563    0.2972 H   0  0  0  0  0  0  0  0  0  0  0  0
    4.8411   -0.0722   -1.3642 H   0  0  0  0  0  0  0  0  0  0  0  0
    6.6885    2.0052   -1.7661 H   0  0  0  0  0  0  0  0  0  0  0  0
    4.8885    2.2158   -1.8121 H   0  0  0  0  0  0  0  0  0  0  0  0
    5.8456    2.5365   -0.2905 H   0  0  0  0  0  0  0  0  0  0  0  0
  1  2  1  0
  2  3  1  0
  2 19  1  0
  3  4  1  0
  3  5  2  0
  5  6  1  0
  6  7  1  0
  6 19  1  0
  7  8  2  0
  7 18  1  0
  8  9  1  0
  9 10  2  0
 10 11  1  0
 11 12  1  0
 11 18  2  0
 12 13  2  0
 12 17  1  0
 13 14  1  0
 14 15  2  0
 15 16  1  0
 16 17  2  0
 19 20  2  0
  1 21  1  0
  1 22  1  0
  1 23  1  0
  4 24  1  0
  4 25  1  0
  5 26  1  0
  8 27  1  0
  9 28  1  0
 10 29  1  0
 13 30  1  0
 14 31  1  0
 15 32  1  0
 17 33  1  0
 18 34  1  0
 35 36  1  0
 36 37  1  0
 37 38  1  0
 35 39  1  0
 35 40  1  0
 36 41  1  0
 37 42  1  0
 37 43  1  0
 38 44  1  0
 38 45  1  0
 38 46  1  0
  6 35  1  6
M  CHG  1   5   1
M  END
>  <attachment_point>  (406) 
26

>  <score>  (406) 
<NA>

$$$$
CAT-4j
     RDKit          3D

 46 49  0  0  1  0  0  0  0  0999 V2000
   11.7106   -2.3098    1.2658 C   0  0  0  0  0  0  0  0  0  0  0  0
   13.0313   -2.6523    0.7225 N   0  0  0  0  0  0  0  0  0  0  0  0
   14.2010   -2.6281    1.3773 C   0  0  0  0  0  0  0  0  0  0  0  0
   14.3777   -2.3568    2.6732 N   0  0  0  0  0  0  0  0  0  0  0  0
   15.2217   -2.9197    0.5738 N   0  0  0  0  0  0  0  0  0  0  0  0
   14.7965   -3.2519   -0.7875 C   0  0  1  0  0  0  0  0  0  0  0  0
   15.3794   -2.2443   -1.7949 C   0  0  0  0  0  0  0  0  0  0  0  0
   15.9522   -2.6550   -3.0208 C   0  0  0  0  0  0  0  0  0  0  0  0
   16.4340   -1.6937   -3.9273 C   0  0  0  0  0  0  0  0  0  0  0  0
   16.3364   -0.3224   -3.6308 C   0  0  0  0  0  0  0  0  0  0  0  0
   15.7943    0.1250   -2.4073 C   0  0  0  0  0  0  0  0  0  0  0  0
   15.6711    1.5693   -2.0915 C   0  0  0  0  0  0  0  0  0  0  0  0
   15.3832    2.0354   -0.7903 C   0  0  0  0  0  0  0  0  0  0  0  0
   15.3534    3.4188   -0.5357 C   0  0  0  0  0  0  0  0  0  0  0  0
   15.5968    4.3049   -1.5946 C   0  0  0  0  0  0  0  0  0  0  0  0
   15.8275    3.8920   -2.8511 N   0  0  0  0  0  0  0  0  0  0  0  0
   15.8598    2.5642   -3.0762 C   0  0  0  0  0  0  0  0  0  0  0  0
   15.3327   -0.8573   -1.5012 C   0  0  0  0  0  0  0  0  0  0  0  0
   13.2767   -3.0094   -0.6368 C   0  0  0  0  0  0  0  0  0  0  0  0
   12.3981   -3.0674   -1.5055 O   0  0  0  0  0  0  0  0  0  0  0  0
    0.0000    0.0000    0.0000 H   0  0  0  0  0  0  0  0  0  0  0  0
    0.0000    0.0000    0.0000 H   0  0  0  0  0  0  0  0  0  0  0  0
    0.0000    0.0000    0.0000 H   0  0  0  0  0  0  0  0  0  0  0  0
    0.0000    0.0000    0.0000 H   0  0  0  0  0  0  0  0  0  0  0  0
    0.0000    0.0000    0.0000 H   0  0  0  0  0  0  0  0  0  0  0  0
    0.0000    0.0000    0.0000 H   0  0  0  0  0  0  0  0  0  0  0  0
    0.0000    0.0000    0.0000 H   0  0  0  0  0  0  0  0  0  0  0  0
    0.0000    0.0000    0.0000 H   0  0  0  0  0  0  0  0  0  0  0  0
    0.0000    0.0000    0.0000 H   0  0  0  0  0  0  0  0  0  0  0  0
    0.0000    0.0000    0.0000 H   0  0  0  0  0  0  0  0  0  0  0  0
    0.0000    0.0000    0.0000 H   0  0  0  0  0  0  0  0  0  0  0  0
    0.0000    0.0000    0.0000 H   0  0  0  0  0  0  0  0  0  0  0  0
    0.0000    0.0000    0.0000 H   0  0  0  0  0  0  0  0  0  0  0  0
    0.0000    0.0000    0.0000 H   0  0  0  0  0  0  0  0  0  0  0  0
    6.9701   -1.5319   -0.3710 C   0  0  0  0  0  0  0  0  0  0  0  0
    6.5766   -0.4495    0.4124 C   0  0  0  0  0  0  0  0  0  0  0  0
    5.2413   -0.0934    0.5314 C   0  0  0  0  0  0  0  0  0  0  0  0
    4.3031   -0.8414   -0.1492 C   0  0  0  0  0  0  0  0  0  0  0  0
    4.7197   -1.9132   -0.9218 C   0  0  0  0  0  0  0  0  0  0  0  0
    6.0285   -2.2777   -1.0502 C   0  0  0  0  0  0  0  0  0  0  0  0
    6.4572   -3.4047   -1.8637 C   0  0  0  0  0  0  0  0  0  0  0  0
    6.7875   -4.2937   -2.5262 N   0  0  0  0  0  0  0  0  0  0  0  0
    7.2984    0.1390    0.9459 H   0  0  0  0  0  0  0  0  0  0  0  0
    4.9315    0.7474    1.1393 H   0  0  0  0  0  0  0  0  0  0  0  0
    3.2463   -0.6048   -0.0897 H   0  0  0  0  0  0  0  0  0  0  0  0
    3.9828   -2.5196   -1.4708 H   0  0  0  0  0  0  0  0  0  0  0  0
  1  2  1  0
  2  3  1  0
  2 19  1  0
  3  4  1  0
  3  5  2  0
  5  6  1  0
  6  7  1  1
  6 19  1  0
  7  8  2  0
  7 18  1  0
  8  9  1  0
  9 10  2  0
 10 11  1  0
 11 12  1  0
 11 18  2  0
 12 13  2  0
 12 17  1  0
 13 14  1  0
 14 15  2  0
 15 16  1  0
 16 17  2  0
 19 20  2  0
  1 21  1  0
  1 22  1  0
  1 23  1  0
  4 24  1  0
  4 25  1  0
  5 26  1  0
  8 27  1  0
  9 28  1  0
 10 29  1  0
 13 30  1  0
 14 31  1  0
 15 32  1  0
 17 33  1  0
 18 34  1  0
 35 36  2  0
 36 37  1  0
 37 38  2  0
 38 39  1  0
 39 40  2  0
 40 41  1  0
 41 42  3  0
 40 35  1  0
 36 43  1  0
 37 44  1  0
 38 45  1  0
 39 46  1  0
  6 35  1  0
M  CHG  1   5   1
M  END
>  <attachment_point>  (407) 
26

>  <score>  (407) 
<NA>

$$$$
CAT-4j
     RDKit          3D

 45 48  0  0  1  0  0  0  0  0999 V2000
   11.7106   -2.3098    1.2658 C   0  0  0  0  0  0  0  0  0  0  0  0
   13.0313   -2.6523    0.7225 N   0  0  0  0  0  0  0  0  0  0  0  0
   14.2010   -2.6281    1.3773 C   0  0  0  0  0  0  0  0  0  0  0  0
   14.3777   -2.3568    2.6732 N   0  0  0  0  0  0  0  0  0  0  0  0
   15.2217   -2.9197    0.5738 N   0  0  0  0  0  0  0  0  0  0  0  0
   14.7965   -3.2519   -0.7875 C   0  0  1  0  0  0  0  0  0  0  0  0
   15.3794   -2.2443   -1.7949 C   0  0  0  0  0  0  0  0  0  0  0  0
   15.9522   -2.6550   -3.0208 C   0  0  0  0  0  0  0  0  0  0  0  0
   16.4340   -1.6937   -3.9273 C   0  0  0  0  0  0  0  0  0  0  0  0
   16.3364   -0.3224   -3.6308 C   0  0  0  0  0  0  0  0  0  0  0  0
   15.7943    0.1250   -2.4073 C   0  0  0  0  0  0  0  0  0  0  0  0
   15.6711    1.5693   -2.0915 C   0  0  0  0  0  0  0  0  0  0  0  0
   15.3832    2.0354   -0.7903 C   0  0  0  0  0  0  0  0  0  0  0  0
   15.3534    3.4188   -0.5357 C   0  0  0  0  0  0  0  0  0  0  0  0
   15.5968    4.3049   -1.5946 C   0  0  0  0  0  0  0  0  0  0  0  0
   15.8275    3.8920   -2.8511 N   0  0  0  0  0  0  0  0  0  0  0  0
   15.8598    2.5642   -3.0762 C   0  0  0  0  0  0  0  0  0  0  0  0
   15.3327   -0.8573   -1.5012 C   0  0  0  0  0  0  0  0  0  0  0  0
   13.2767   -3.0094   -0.6368 C   0  0  0  0  0  0  0  0  0  0  0  0
   12.3981   -3.0674   -1.5055 O   0  0  0  0  0  0  0  0  0  0  0  0
    0.0000    0.0000    0.0000 H   0  0  0  0  0  0  0  0  0  0  0  0
    0.0000    0.0000    0.0000 H   0  0  0  0  0  0  0  0  0  0  0  0
    0.0000    0.0000    0.0000 H   0  0  0  0  0  0  0  0  0  0  0  0
    0.0000    0.0000    0.0000 H   0  0  0  0  0  0  0  0  0  0  0  0
    0.0000    0.0000    0.0000 H   0  0  0  0  0  0  0  0  0  0  0  0
    0.0000    0.0000    0.0000 H   0  0  0  0  0  0  0  0  0  0  0  0
    0.0000    0.0000    0.0000 H   0  0  0  0  0  0  0  0  0  0  0  0
    0.0000    0.0000    0.0000 H   0  0  0  0  0  0  0  0  0  0  0  0
    0.0000    0.0000    0.0000 H   0  0  0  0  0  0  0  0  0  0  0  0
    0.0000    0.0000    0.0000 H   0  0  0  0  0  0  0  0  0  0  0  0
    0.0000    0.0000    0.0000 H   0  0  0  0  0  0  0  0  0  0  0  0
    0.0000    0.0000    0.0000 H   0  0  0  0  0  0  0  0  0  0  0  0
    0.0000    0.0000    0.0000 H   0  0  0  0  0  0  0  0  0  0  0  0
    0.0000    0.0000    0.0000 H   0  0  0  0  0  0  0  0  0  0  0  0
    6.9794   -1.5339   -0.3715 C   0  0  0  0  0  0  0  0  0  0  0  0
    6.4470   -0.4311   -1.0205 C   0  0  0  0  0  0  0  0  0  0  0  0
    5.0955   -0.1741   -0.9210 C   0  0  0  0  0  0  0  0  0  0  0  0
    4.4554    1.2188   -1.7476 Cl  0  0  0  0  0  0  0  0  0  0  0  0
    4.3033   -1.0077   -0.1863 C   0  0  0  0  0  0  0  0  0  0  0  0
    4.8007   -2.1118    0.4708 C   0  0  0  0  0  0  0  0  0  0  0  0
    3.7536   -3.1786    1.4178 Cl  0  0  0  0  0  0  0  0  0  0  0  0
    6.1587   -2.3795    0.3773 C   0  0  0  0  0  0  0  0  0  0  0  0
    7.0787    0.2224   -1.5988 H   0  0  0  0  0  0  0  0  0  0  0  0
    3.2329   -0.8168   -0.0989 H   0  0  0  0  0  0  0  0  0  0  0  0
    6.5825   -3.2557    0.8930 H   0  0  0  0  0  0  0  0  0  0  0  0
  1  2  1  0
  2  3  1  0
  2 19  1  0
  3  4  1  0
  3  5  2  0
  5  6  1  0
  6  7  1  1
  6 19  1  0
  7  8  2  0
  7 18  1  0
  8  9  1  0
  9 10  2  0
 10 11  1  0
 11 12  1  0
 11 18  2  0
 12 13  2  0
 12 17  1  0
 13 14  1  0
 14 15  2  0
 15 16  1  0
 16 17  2  0
 19 20  2  0
  1 21  1  0
  1 22  1  0
  1 23  1  0
  4 24  1  0
  4 25  1  0
  5 26  1  0
  8 27  1  0
  9 28  1  0
 10 29  1  0
 13 30  1  0
 14 31  1  0
 15 32  1  0
 17 33  1  0
 18 34  1  0
 35 36  2  0
 36 37  1  0
 37 38  1  0
 37 39  2  0
 39 40  1  0
 40 41  1  0
 40 42  2  0
 42 35  1  0
 36 43  1  0
 39 44  1  0
 42 45  1  0
  6 35  1  0
M  CHG  1   5   1
M  END
>  <attachment_point>  (408) 
26

>  <score>  (408) 
<NA>

$$$$
CAT-4j
     RDKit          3D

 45 48  0  0  1  0  0  0  0  0999 V2000
   11.7106   -2.3098    1.2658 C   0  0  0  0  0  0  0  0  0  0  0  0
   13.0313   -2.6523    0.7225 N   0  0  0  0  0  0  0  0  0  0  0  0
   14.2010   -2.6281    1.3773 C   0  0  0  0  0  0  0  0  0  0  0  0
   14.3777   -2.3568    2.6732 N   0  0  0  0  0  0  0  0  0  0  0  0
   15.2217   -2.9197    0.5738 N   0  0  0  0  0  0  0  0  0  0  0  0
   14.7965   -3.2519   -0.7875 C   0  0  1  0  0  0  0  0  0  0  0  0
   15.3794   -2.2443   -1.7949 C   0  0  0  0  0  0  0  0  0  0  0  0
   15.9522   -2.6550   -3.0208 C   0  0  0  0  0  0  0  0  0  0  0  0
   16.4340   -1.6937   -3.9273 C   0  0  0  0  0  0  0  0  0  0  0  0
   16.3364   -0.3224   -3.6308 C   0  0  0  0  0  0  0  0  0  0  0  0
   15.7943    0.1250   -2.4073 C   0  0  0  0  0  0  0  0  0  0  0  0
   15.6711    1.5693   -2.0915 C   0  0  0  0  0  0  0  0  0  0  0  0
   15.3832    2.0354   -0.7903 C   0  0  0  0  0  0  0  0  0  0  0  0
   15.3534    3.4188   -0.5357 C   0  0  0  0  0  0  0  0  0  0  0  0
   15.5968    4.3049   -1.5946 C   0  0  0  0  0  0  0  0  0  0  0  0
   15.8275    3.8920   -2.8511 N   0  0  0  0  0  0  0  0  0  0  0  0
   15.8598    2.5642   -3.0762 C   0  0  0  0  0  0  0  0  0  0  0  0
   15.3327   -0.8573   -1.5012 C   0  0  0  0  0  0  0  0  0  0  0  0
   13.2767   -3.0094   -0.6368 C   0  0  0  0  0  0  0  0  0  0  0  0
   12.3981   -3.0674   -1.5055 O   0  0  0  0  0  0  0  0  0  0  0  0
    0.0000    0.0000    0.0000 H   0  0  0  0  0  0  0  0  0  0  0  0
    0.0000    0.0000    0.0000 H   0  0  0  0  0  0  0  0  0  0  0  0
    0.0000    0.0000    0.0000 H   0  0  0  0  0  0  0  0  0  0  0  0
    0.0000    0.0000    0.0000 H   0  0  0  0  0  0  0  0  0  0  0  0
    0.0000    0.0000    0.0000 H   0  0  0  0  0  0  0  0  0  0  0  0
    0.0000    0.0000    0.0000 H   0  0  0  0  0  0  0  0  0  0  0  0
    0.0000    0.0000    0.0000 H   0  0  0  0  0  0  0  0  0  0  0  0
    0.0000    0.0000    0.0000 H   0  0  0  0  0  0  0  0  0  0  0  0
    0.0000    0.0000    0.0000 H   0  0  0  0  0  0  0  0  0  0  0  0
    0.0000    0.0000    0.0000 H   0  0  0  0  0  0  0  0  0  0  0  0
    0.0000    0.0000    0.0000 H   0  0  0  0  0  0  0  0  0  0  0  0
    0.0000    0.0000    0.0000 H   0  0  0  0  0  0  0  0  0  0  0  0
    0.0000    0.0000    0.0000 H   0  0  0  0  0  0  0  0  0  0  0  0
    0.0000    0.0000    0.0000 H   0  0  0  0  0  0  0  0  0  0  0  0
    6.9245   -1.5218   -0.3685 C   0  0  0  0  0  0  0  0  0  0  0  0
    6.0215   -2.5376   -0.4469 C   0  0  0  0  0  0  0  0  0  0  0  0
    4.6902   -2.2027   -0.3717 N   0  0  0  0  0  0  0  0  0  0  0  0
    4.2811   -0.9344   -0.2270 C   0  0  0  0  0  0  0  0  0  0  0  0
    2.8767   -0.6074   -0.1504 N   0  0  0  0  0  0  0  0  0  0  0  0
    5.2052    0.0344   -0.1541 N   0  0  0  0  0  0  0  0  0  0  0  0
    6.5528   -0.2194   -0.2216 C   0  0  0  0  0  0  0  0  0  0  0  0
    6.3123   -3.5663   -0.5630 H   0  0  0  0  0  0  0  0  0  0  0  0
    2.3565   -0.7244    0.7518 H   0  0  0  0  0  0  0  0  0  0  0  0
    2.3488   -0.2510   -0.9786 H   0  0  0  0  0  0  0  0  0  0  0  0
    7.2739    0.5869   -0.1594 H   0  0  0  0  0  0  0  0  0  0  0  0
  1  2  1  0
  2  3  1  0
  2 19  1  0
  3  4  1  0
  3  5  2  0
  5  6  1  0
  6  7  1  1
  6 19  1  0
  7  8  2  0
  7 18  1  0
  8  9  1  0
  9 10  2  0
 10 11  1  0
 11 12  1  0
 11 18  2  0
 12 13  2  0
 12 17  1  0
 13 14  1  0
 14 15  2  0
 15 16  1  0
 16 17  2  0
 19 20  2  0
  1 21  1  0
  1 22  1  0
  1 23  1  0
  4 24  1  0
  4 25  1  0
  5 26  1  0
  8 27  1  0
  9 28  1  0
 10 29  1  0
 13 30  1  0
 14 31  1  0
 15 32  1  0
 17 33  1  0
 18 34  1  0
 35 36  2  0
 36 37  1  0
 37 38  2  0
 38 39  1  0
 38 40  1  0
 40 41  2  0
 41 35  1  0
 36 42  1  0
 39 43  1  0
 39 44  1  0
 41 45  1  0
  6 35  1  0
M  CHG  1   5   1
M  END
>  <attachment_point>  (409) 
26

>  <score>  (409) 
<NA>

$$$$
CAT-4j
     RDKit          3D

 38 40  0  0  1  0  0  0  0  0999 V2000
   11.7106   -2.3098    1.2658 C   0  0  0  0  0  0  0  0  0  0  0  0
   13.0313   -2.6523    0.7225 N   0  0  0  0  0  0  0  0  0  0  0  0
   14.2010   -2.6281    1.3773 C   0  0  0  0  0  0  0  0  0  0  0  0
   14.3777   -2.3568    2.6732 N   0  0  0  0  0  0  0  0  0  0  0  0
   15.2217   -2.9197    0.5738 N   0  0  0  0  0  0  0  0  0  0  0  0
   14.7965   -3.2519   -0.7875 C   0  0  1  0  0  0  0  0  0  0  0  0
   15.3794   -2.2443   -1.7949 C   0  0  0  0  0  0  0  0  0  0  0  0
   15.9522   -2.6550   -3.0208 C   0  0  0  0  0  0  0  0  0  0  0  0
   16.4340   -1.6937   -3.9273 C   0  0  0  0  0  0  0  0  0  0  0  0
   16.3364   -0.3224   -3.6308 C   0  0  0  0  0  0  0  0  0  0  0  0
   15.7943    0.1250   -2.4073 C   0  0  0  0  0  0  0  0  0  0  0  0
   15.6711    1.5693   -2.0915 C   0  0  0  0  0  0  0  0  0  0  0  0
   15.3832    2.0354   -0.7903 C   0  0  0  0  0  0  0  0  0  0  0  0
   15.3534    3.4188   -0.5357 C   0  0  0  0  0  0  0  0  0  0  0  0
   15.5968    4.3049   -1.5946 C   0  0  0  0  0  0  0  0  0  0  0  0
   15.8275    3.8920   -2.8511 N   0  0  0  0  0  0  0  0  0  0  0  0
   15.8598    2.5642   -3.0762 C   0  0  0  0  0  0  0  0  0  0  0  0
   15.3327   -0.8573   -1.5012 C   0  0  0  0  0  0  0  0  0  0  0  0
   13.2767   -3.0094   -0.6368 C   0  0  0  0  0  0  0  0  0  0  0  0
   12.3981   -3.0674   -1.5055 O   0  0  0  0  0  0  0  0  0  0  0  0
    0.0000    0.0000    0.0000 H   0  0  0  0  0  0  0  0  0  0  0  0
    0.0000    0.0000    0.0000 H   0  0  0  0  0  0  0  0  0  0  0  0
    0.0000    0.0000    0.0000 H   0  0  0  0  0  0  0  0  0  0  0  0
    0.0000    0.0000    0.0000 H   0  0  0  0  0  0  0  0  0  0  0  0
    0.0000    0.0000    0.0000 H   0  0  0  0  0  0  0  0  0  0  0  0
    0.0000    0.0000    0.0000 H   0  0  0  0  0  0  0  0  0  0  0  0
    0.0000    0.0000    0.0000 H   0  0  0  0  0  0  0  0  0  0  0  0
    0.0000    0.0000    0.0000 H   0  0  0  0  0  0  0  0  0  0  0  0
    0.0000    0.0000    0.0000 H   0  0  0  0  0  0  0  0  0  0  0  0
    0.0000    0.0000    0.0000 H   0  0  0  0  0  0  0  0  0  0  0  0
    0.0000    0.0000    0.0000 H   0  0  0  0  0  0  0  0  0  0  0  0
    0.0000    0.0000    0.0000 H   0  0  0  0  0  0  0  0  0  0  0  0
    0.0000    0.0000    0.0000 H   0  0  0  0  0  0  0  0  0  0  0  0
    0.0000    0.0000    0.0000 H   0  0  0  0  0  0  0  0  0  0  0  0
    6.9225   -1.5214   -0.3684 C   0  0  0  0  0  0  0  0  0  0  0  0
    6.1103   -2.7856   -1.2583 Cl  0  0  0  0  0  0  0  0  0  0  0  0
    6.7627   -1.5539    0.7181 H   0  0  0  0  0  0  0  0  0  0  0  0
    6.8698   -0.5260   -0.8148 H   0  0  0  0  0  0  0  0  0  0  0  0
  1  2  1  0
  2  3  1  0
  2 19  1  0
  3  4  1  0
  3  5  2  0
  5  6  1  0
  6  7  1  0
  6 19  1  0
  7  8  2  0
  7 18  1  0
  8  9  1  0
  9 10  2  0
 10 11  1  0
 11 12  1  0
 11 18  2  0
 12 13  2  0
 12 17  1  0
 13 14  1  0
 14 15  2  0
 15 16  1  0
 16 17  2  0
 19 20  2  0
  1 21  1  0
  1 22  1  0
  1 23  1  0
  4 24  1  0
  4 25  1  0
  5 26  1  0
  8 27  1  0
  9 28  1  0
 10 29  1  0
 13 30  1  0
 14 31  1  0
 15 32  1  0
 17 33  1  0
 18 34  1  0
 35 36  1  0
 35 37  1  0
 35 38  1  0
  6 35  1  6
M  CHG  1   5   1
M  END
>  <attachment_point>  (410) 
26

>  <score>  (410) 
<NA>

$$$$
CAT-4j
     RDKit          3D

 48 50  0  0  1  0  0  0  0  0999 V2000
   11.7106   -2.3098    1.2658 C   0  0  0  0  0  0  0  0  0  0  0  0
   13.0313   -2.6523    0.7225 N   0  0  0  0  0  0  0  0  0  0  0  0
   14.2010   -2.6281    1.3773 C   0  0  0  0  0  0  0  0  0  0  0  0
   14.3777   -2.3568    2.6732 N   0  0  0  0  0  0  0  0  0  0  0  0
   15.2217   -2.9197    0.5738 N   0  0  0  0  0  0  0  0  0  0  0  0
   14.7965   -3.2519   -0.7875 C   0  0  1  0  0  0  0  0  0  0  0  0
   15.3794   -2.2443   -1.7949 C   0  0  0  0  0  0  0  0  0  0  0  0
   15.9522   -2.6550   -3.0208 C   0  0  0  0  0  0  0  0  0  0  0  0
   16.4340   -1.6937   -3.9273 C   0  0  0  0  0  0  0  0  0  0  0  0
   16.3364   -0.3224   -3.6308 C   0  0  0  0  0  0  0  0  0  0  0  0
   15.7943    0.1250   -2.4073 C   0  0  0  0  0  0  0  0  0  0  0  0
   15.6711    1.5693   -2.0915 C   0  0  0  0  0  0  0  0  0  0  0  0
   15.3832    2.0354   -0.7903 C   0  0  0  0  0  0  0  0  0  0  0  0
   15.3534    3.4188   -0.5357 C   0  0  0  0  0  0  0  0  0  0  0  0
   15.5968    4.3049   -1.5946 C   0  0  0  0  0  0  0  0  0  0  0  0
   15.8275    3.8920   -2.8511 N   0  0  0  0  0  0  0  0  0  0  0  0
   15.8598    2.5642   -3.0762 C   0  0  0  0  0  0  0  0  0  0  0  0
   15.3327   -0.8573   -1.5012 C   0  0  0  0  0  0  0  0  0  0  0  0
   13.2767   -3.0094   -0.6368 C   0  0  0  0  0  0  0  0  0  0  0  0
   12.3981   -3.0674   -1.5055 O   0  0  0  0  0  0  0  0  0  0  0  0
    0.0000    0.0000    0.0000 H   0  0  0  0  0  0  0  0  0  0  0  0
    0.0000    0.0000    0.0000 H   0  0  0  0  0  0  0  0  0  0  0  0
    0.0000    0.0000    0.0000 H   0  0  0  0  0  0  0  0  0  0  0  0
    0.0000    0.0000    0.0000 H   0  0  0  0  0  0  0  0  0  0  0  0
    0.0000    0.0000    0.0000 H   0  0  0  0  0  0  0  0  0  0  0  0
    0.0000    0.0000    0.0000 H   0  0  0  0  0  0  0  0  0  0  0  0
    0.0000    0.0000    0.0000 H   0  0  0  0  0  0  0  0  0  0  0  0
    0.0000    0.0000    0.0000 H   0  0  0  0  0  0  0  0  0  0  0  0
    0.0000    0.0000    0.0000 H   0  0  0  0  0  0  0  0  0  0  0  0
    0.0000    0.0000    0.0000 H   0  0  0  0  0  0  0  0  0  0  0  0
    0.0000    0.0000    0.0000 H   0  0  0  0  0  0  0  0  0  0  0  0
    0.0000    0.0000    0.0000 H   0  0  0  0  0  0  0  0  0  0  0  0
    0.0000    0.0000    0.0000 H   0  0  0  0  0  0  0  0  0  0  0  0
    0.0000    0.0000    0.0000 H   0  0  0  0  0  0  0  0  0  0  0  0
    6.9112   -1.5189   -0.3678 N   0  0  0  0  0  0  0  0  0  0  0  0
    6.5915   -0.3225    0.2121 C   0  0  0  0  0  0  0  0  0  0  0  0
    7.4678    0.4586    0.6522 O   0  0  0  0  0  0  0  0  0  0  0  0
    5.1687    0.0729    0.3292 C   0  0  0  0  0  0  0  0  0  0  0  0
    5.0100    1.4180    0.9926 C   0  0  0  0  0  0  0  0  0  0  0  0
    3.5280    1.7217    1.0606 C   0  0  0  0  0  0  0  0  0  0  0  0
    6.3232   -2.2178   -0.7504 H   0  0  0  0  0  0  0  0  0  0  0  0
    4.6375   -0.7361    0.8851 H   0  0  0  0  0  0  0  0  0  0  0  0
    4.7670    0.1285   -0.7028 H   0  0  0  0  0  0  0  0  0  0  0  0
    5.5173    1.4818    1.9580 H   0  0  0  0  0  0  0  0  0  0  0  0
    5.4872    2.1632    0.3081 H   0  0  0  0  0  0  0  0  0  0  0  0
    3.3326    2.8155    1.0499 H   0  0  0  0  0  0  0  0  0  0  0  0
    3.1605    1.2622    2.0114 H   0  0  0  0  0  0  0  0  0  0  0  0
    2.9920    1.2184    0.2216 H   0  0  0  0  0  0  0  0  0  0  0  0
  1  2  1  0
  2  3  1  0
  2 19  1  0
  3  4  1  0
  3  5  2  0
  5  6  1  0
  6  7  1  0
  6 19  1  0
  7  8  2  0
  7 18  1  0
  8  9  1  0
  9 10  2  0
 10 11  1  0
 11 12  1  0
 11 18  2  0
 12 13  2  0
 12 17  1  0
 13 14  1  0
 14 15  2  0
 15 16  1  0
 16 17  2  0
 19 20  2  0
  1 21  1  0
  1 22  1  0
  1 23  1  0
  4 24  1  0
  4 25  1  0
  5 26  1  0
  8 27  1  0
  9 28  1  0
 10 29  1  0
 13 30  1  0
 14 31  1  0
 15 32  1  0
 17 33  1  0
 18 34  1  0
 35 36  1  0
 36 37  2  0
 36 38  1  0
 38 39  1  0
 39 40  1  0
 35 41  1  0
 38 42  1  0
 38 43  1  0
 39 44  1  0
 39 45  1  0
 40 46  1  0
 40 47  1  0
 40 48  1  0
  6 35  1  6
M  CHG  1   5   1
M  END
>  <attachment_point>  (411) 
26

>  <score>  (411) 
<NA>

$$$$
CAT-4j
     RDKit          3D

 48 51  0  0  1  0  0  0  0  0999 V2000
   11.7106   -2.3098    1.2658 C   0  0  0  0  0  0  0  0  0  0  0  0
   13.0313   -2.6523    0.7225 N   0  0  0  0  0  0  0  0  0  0  0  0
   14.2010   -2.6281    1.3773 C   0  0  0  0  0  0  0  0  0  0  0  0
   14.3777   -2.3568    2.6732 N   0  0  0  0  0  0  0  0  0  0  0  0
   15.2217   -2.9197    0.5738 N   0  0  0  0  0  0  0  0  0  0  0  0
   14.7965   -3.2519   -0.7875 C   0  0  1  0  0  0  0  0  0  0  0  0
   15.3794   -2.2443   -1.7949 C   0  0  0  0  0  0  0  0  0  0  0  0
   15.9522   -2.6550   -3.0208 C   0  0  0  0  0  0  0  0  0  0  0  0
   16.4340   -1.6937   -3.9273 C   0  0  0  0  0  0  0  0  0  0  0  0
   16.3364   -0.3224   -3.6308 C   0  0  0  0  0  0  0  0  0  0  0  0
   15.7943    0.1250   -2.4073 C   0  0  0  0  0  0  0  0  0  0  0  0
   15.6711    1.5693   -2.0915 C   0  0  0  0  0  0  0  0  0  0  0  0
   15.3832    2.0354   -0.7903 C   0  0  0  0  0  0  0  0  0  0  0  0
   15.3534    3.4188   -0.5357 C   0  0  0  0  0  0  0  0  0  0  0  0
   15.5968    4.3049   -1.5946 C   0  0  0  0  0  0  0  0  0  0  0  0
   15.8275    3.8920   -2.8511 N   0  0  0  0  0  0  0  0  0  0  0  0
   15.8598    2.5642   -3.0762 C   0  0  0  0  0  0  0  0  0  0  0  0
   15.3327   -0.8573   -1.5012 C   0  0  0  0  0  0  0  0  0  0  0  0
   13.2767   -3.0094   -0.6368 C   0  0  0  0  0  0  0  0  0  0  0  0
   12.3981   -3.0674   -1.5055 O   0  0  0  0  0  0  0  0  0  0  0  0
    0.0000    0.0000    0.0000 H   0  0  0  0  0  0  0  0  0  0  0  0
    0.0000    0.0000    0.0000 H   0  0  0  0  0  0  0  0  0  0  0  0
    0.0000    0.0000    0.0000 H   0  0  0  0  0  0  0  0  0  0  0  0
    0.0000    0.0000    0.0000 H   0  0  0  0  0  0  0  0  0  0  0  0
    0.0000    0.0000    0.0000 H   0  0  0  0  0  0  0  0  0  0  0  0
    0.0000    0.0000    0.0000 H   0  0  0  0  0  0  0  0  0  0  0  0
    0.0000    0.0000    0.0000 H   0  0  0  0  0  0  0  0  0  0  0  0
    0.0000    0.0000    0.0000 H   0  0  0  0  0  0  0  0  0  0  0  0
    0.0000    0.0000    0.0000 H   0  0  0  0  0  0  0  0  0  0  0  0
    0.0000    0.0000    0.0000 H   0  0  0  0  0  0  0  0  0  0  0  0
    0.0000    0.0000    0.0000 H   0  0  0  0  0  0  0  0  0  0  0  0
    0.0000    0.0000    0.0000 H   0  0  0  0  0  0  0  0  0  0  0  0
    0.0000    0.0000    0.0000 H   0  0  0  0  0  0  0  0  0  0  0  0
    0.0000    0.0000    0.0000 H   0  0  0  0  0  0  0  0  0  0  0  0
    6.9552   -1.5286   -0.3702 S   0  0  0  0  0  6  0  0  0  0  0  0
    6.4048   -1.4781   -1.7607 O   0  0  0  0  0  0  0  0  0  0  0  0
    6.2239   -2.6173    0.3531 O   0  0  0  0  0  0  0  0  0  0  0  0
    6.7164   -0.0117    0.4832 C   0  0  0  0  0  0  0  0  0  0  0  0
    6.5437    0.0341    1.8500 C   0  0  0  0  0  0  0  0  0  0  0  0
    6.3539    1.2276    2.5372 C   0  0  0  0  0  0  0  0  0  0  0  0
    6.3319    2.4302    1.8590 C   0  0  0  0  0  0  0  0  0  0  0  0
    6.0914    3.9267    2.7405 Cl  0  0  0  0  0  0  0  0  0  0  0  0
    6.5040    2.3964    0.4880 C   0  0  0  0  0  0  0  0  0  0  0  0
    6.6922    1.1966   -0.1816 C   0  0  0  0  0  0  0  0  0  0  0  0
    6.5632   -0.9149    2.3686 H   0  0  0  0  0  0  0  0  0  0  0  0
    6.2197    1.2316    3.6230 H   0  0  0  0  0  0  0  0  0  0  0  0
    6.4846    3.3472   -0.0324 H   0  0  0  0  0  0  0  0  0  0  0  0
    6.8265    1.1877   -1.2637 H   0  0  0  0  0  0  0  0  0  0  0  0
  1  2  1  0
  2  3  1  0
  2 19  1  0
  3  4  1  0
  3  5  2  0
  5  6  1  0
  6  7  1  1
  6 19  1  0
  7  8  2  0
  7 18  1  0
  8  9  1  0
  9 10  2  0
 10 11  1  0
 11 12  1  0
 11 18  2  0
 12 13  2  0
 12 17  1  0
 13 14  1  0
 14 15  2  0
 15 16  1  0
 16 17  2  0
 19 20  2  0
  1 21  1  0
  1 22  1  0
  1 23  1  0
  4 24  1  0
  4 25  1  0
  5 26  1  0
  8 27  1  0
  9 28  1  0
 10 29  1  0
 13 30  1  0
 14 31  1  0
 15 32  1  0
 17 33  1  0
 18 34  1  0
 35 36  2  0
 35 37  2  0
 35 38  1  0
 38 39  2  0
 39 40  1  0
 40 41  2  0
 41 42  1  0
 41 43  1  0
 43 44  2  0
 44 38  1  0
 39 45  1  0
 40 46  1  0
 43 47  1  0
 44 48  1  0
  6 35  1  0
M  CHG  1   5   1
M  END
>  <attachment_point>  (412) 
26

>  <score>  (412) 
<NA>

$$$$
CAT-4j
     RDKit          3D

 38 40  0  0  1  0  0  0  0  0999 V2000
   11.7106   -2.3098    1.2658 C   0  0  0  0  0  0  0  0  0  0  0  0
   13.0313   -2.6523    0.7225 N   0  0  0  0  0  0  0  0  0  0  0  0
   14.2010   -2.6281    1.3773 C   0  0  0  0  0  0  0  0  0  0  0  0
   14.3777   -2.3568    2.6732 N   0  0  0  0  0  0  0  0  0  0  0  0
   15.2217   -2.9197    0.5738 N   0  0  0  0  0  0  0  0  0  0  0  0
   14.7965   -3.2519   -0.7875 C   0  0  1  0  0  0  0  0  0  0  0  0
   15.3794   -2.2443   -1.7949 C   0  0  0  0  0  0  0  0  0  0  0  0
   15.9522   -2.6550   -3.0208 C   0  0  0  0  0  0  0  0  0  0  0  0
   16.4340   -1.6937   -3.9273 C   0  0  0  0  0  0  0  0  0  0  0  0
   16.3364   -0.3224   -3.6308 C   0  0  0  0  0  0  0  0  0  0  0  0
   15.7943    0.1250   -2.4073 C   0  0  0  0  0  0  0  0  0  0  0  0
   15.6711    1.5693   -2.0915 C   0  0  0  0  0  0  0  0  0  0  0  0
   15.3832    2.0354   -0.7903 C   0  0  0  0  0  0  0  0  0  0  0  0
   15.3534    3.4188   -0.5357 C   0  0  0  0  0  0  0  0  0  0  0  0
   15.5968    4.3049   -1.5946 C   0  0  0  0  0  0  0  0  0  0  0  0
   15.8275    3.8920   -2.8511 N   0  0  0  0  0  0  0  0  0  0  0  0
   15.8598    2.5642   -3.0762 C   0  0  0  0  0  0  0  0  0  0  0  0
   15.3327   -0.8573   -1.5012 C   0  0  0  0  0  0  0  0  0  0  0  0
   13.2767   -3.0094   -0.6368 C   0  0  0  0  0  0  0  0  0  0  0  0
   12.3981   -3.0674   -1.5055 O   0  0  0  0  0  0  0  0  0  0  0  0
    0.0000    0.0000    0.0000 H   0  0  0  0  0  0  0  0  0  0  0  0
    0.0000    0.0000    0.0000 H   0  0  0  0  0  0  0  0  0  0  0  0
    0.0000    0.0000    0.0000 H   0  0  0  0  0  0  0  0  0  0  0  0
    0.0000    0.0000    0.0000 H   0  0  0  0  0  0  0  0  0  0  0  0
    0.0000    0.0000    0.0000 H   0  0  0  0  0  0  0  0  0  0  0  0
    0.0000    0.0000    0.0000 H   0  0  0  0  0  0  0  0  0  0  0  0
    0.0000    0.0000    0.0000 H   0  0  0  0  0  0  0  0  0  0  0  0
    0.0000    0.0000    0.0000 H   0  0  0  0  0  0  0  0  0  0  0  0
    0.0000    0.0000    0.0000 H   0  0  0  0  0  0  0  0  0  0  0  0
    0.0000    0.0000    0.0000 H   0  0  0  0  0  0  0  0  0  0  0  0
    0.0000    0.0000    0.0000 H   0  0  0  0  0  0  0  0  0  0  0  0
    0.0000    0.0000    0.0000 H   0  0  0  0  0  0  0  0  0  0  0  0
    0.0000    0.0000    0.0000 H   0  0  0  0  0  0  0  0  0  0  0  0
    0.0000    0.0000    0.0000 H   0  0  0  0  0  0  0  0  0  0  0  0
    6.9395   -1.5251   -0.3693 C   0  0  0  0  0  0  0  0  0  0  0  0
    6.3560   -2.2757   -1.3469 F   0  0  0  0  0  0  0  0  0  0  0  0
    6.7890   -0.1804   -0.5320 F   0  0  0  0  0  0  0  0  0  0  0  0
    6.6586   -1.8663    0.6375 H   0  0  0  0  0  0  0  0  0  0  0  0
  1  2  1  0
  2  3  1  0
  2 19  1  0
  3  4  1  0
  3  5  2  0
  5  6  1  0
  6  7  1  0
  6 19  1  0
  7  8  2  0
  7 18  1  0
  8  9  1  0
  9 10  2  0
 10 11  1  0
 11 12  1  0
 11 18  2  0
 12 13  2  0
 12 17  1  0
 13 14  1  0
 14 15  2  0
 15 16  1  0
 16 17  2  0
 19 20  2  0
  1 21  1  0
  1 22  1  0
  1 23  1  0
  4 24  1  0
  4 25  1  0
  5 26  1  0
  8 27  1  0
  9 28  1  0
 10 29  1  0
 13 30  1  0
 14 31  1  0
 15 32  1  0
 17 33  1  0
 18 34  1  0
 35 36  1  0
 35 37  1  0
 35 38  1  0
  6 35  1  6
M  CHG  1   5   1
M  END
>  <attachment_point>  (413) 
26

>  <score>  (413) 
<NA>

$$$$
CAT-4j
     RDKit          3D

 57 60  0  0  1  0  0  0  0  0999 V2000
   11.7106   -2.3098    1.2658 C   0  0  0  0  0  0  0  0  0  0  0  0
   13.0313   -2.6523    0.7225 N   0  0  0  0  0  0  0  0  0  0  0  0
   14.2010   -2.6281    1.3773 C   0  0  0  0  0  0  0  0  0  0  0  0
   14.3777   -2.3568    2.6732 N   0  0  0  0  0  0  0  0  0  0  0  0
   15.2217   -2.9197    0.5738 N   0  0  0  0  0  0  0  0  0  0  0  0
   14.7965   -3.2519   -0.7875 C   0  0  1  0  0  0  0  0  0  0  0  0
   15.3794   -2.2443   -1.7949 C   0  0  0  0  0  0  0  0  0  0  0  0
   15.9522   -2.6550   -3.0208 C   0  0  0  0  0  0  0  0  0  0  0  0
   16.4340   -1.6937   -3.9273 C   0  0  0  0  0  0  0  0  0  0  0  0
   16.3364   -0.3224   -3.6308 C   0  0  0  0  0  0  0  0  0  0  0  0
   15.7943    0.1250   -2.4073 C   0  0  0  0  0  0  0  0  0  0  0  0
   15.6711    1.5693   -2.0915 C   0  0  0  0  0  0  0  0  0  0  0  0
   15.3832    2.0354   -0.7903 C   0  0  0  0  0  0  0  0  0  0  0  0
   15.3534    3.4188   -0.5357 C   0  0  0  0  0  0  0  0  0  0  0  0
   15.5968    4.3049   -1.5946 C   0  0  0  0  0  0  0  0  0  0  0  0
   15.8275    3.8920   -2.8511 N   0  0  0  0  0  0  0  0  0  0  0  0
   15.8598    2.5642   -3.0762 C   0  0  0  0  0  0  0  0  0  0  0  0
   15.3327   -0.8573   -1.5012 C   0  0  0  0  0  0  0  0  0  0  0  0
   13.2767   -3.0094   -0.6368 C   0  0  0  0  0  0  0  0  0  0  0  0
   12.3981   -3.0674   -1.5055 O   0  0  0  0  0  0  0  0  0  0  0  0
    0.0000    0.0000    0.0000 H   0  0  0  0  0  0  0  0  0  0  0  0
    0.0000    0.0000    0.0000 H   0  0  0  0  0  0  0  0  0  0  0  0
    0.0000    0.0000    0.0000 H   0  0  0  0  0  0  0  0  0  0  0  0
    0.0000    0.0000    0.0000 H   0  0  0  0  0  0  0  0  0  0  0  0
    0.0000    0.0000    0.0000 H   0  0  0  0  0  0  0  0  0  0  0  0
    0.0000    0.0000    0.0000 H   0  0  0  0  0  0  0  0  0  0  0  0
    0.0000    0.0000    0.0000 H   0  0  0  0  0  0  0  0  0  0  0  0
    0.0000    0.0000    0.0000 H   0  0  0  0  0  0  0  0  0  0  0  0
    0.0000    0.0000    0.0000 H   0  0  0  0  0  0  0  0  0  0  0  0
    0.0000    0.0000    0.0000 H   0  0  0  0  0  0  0  0  0  0  0  0
    0.0000    0.0000    0.0000 H   0  0  0  0  0  0  0  0  0  0  0  0
    0.0000    0.0000    0.0000 H   0  0  0  0  0  0  0  0  0  0  0  0
    0.0000    0.0000    0.0000 H   0  0  0  0  0  0  0  0  0  0  0  0
    0.0000    0.0000    0.0000 H   0  0  0  0  0  0  0  0  0  0  0  0
    7.0607   -1.5518   -0.3758 O   0  0  0  0  0  0  0  0  0  0  0  0
    6.7802   -0.3373   -1.0472 C   0  0  0  0  0  0  0  0  0  0  0  0
    5.3071   -0.1186   -0.9037 C   0  0  0  0  0  0  0  0  0  0  0  0
    4.8134    1.1456   -1.5564 C   0  0  0  0  0  0  0  0  0  0  0  0
    5.3927    2.3327   -1.0661 N   0  0  0  0  0  0  0  0  0  0  0  0
    4.8509    3.4828   -1.7000 C   0  0  0  0  0  0  0  0  0  0  0  0
    4.6019    4.5239   -0.6360 C   0  0  0  0  0  0  0  0  0  0  0  0
    4.9352    3.8690    0.6751 C   0  0  0  0  0  0  0  0  0  0  0  0
    5.5207    2.5197    0.3191 C   0  0  0  0  0  0  0  0  0  0  0  0
    7.3954    0.4520   -0.5592 H   0  0  0  0  0  0  0  0  0  0  0  0
    7.0926   -0.5102   -2.1011 H   0  0  0  0  0  0  0  0  0  0  0  0
    4.8162   -0.9652   -1.4707 H   0  0  0  0  0  0  0  0  0  0  0  0
    4.9882   -0.2340    0.1313 H   0  0  0  0  0  0  0  0  0  0  0  0
    3.7056    1.1025   -1.5323 H   0  0  0  0  0  0  0  0  0  0  0  0
    5.0710    1.0465   -2.6500 H   0  0  0  0  0  0  0  0  0  0  0  0
    5.5882    3.8540   -2.4423 H   0  0  0  0  0  0  0  0  0  0  0  0
    3.8862    3.2550   -2.2042 H   0  0  0  0  0  0  0  0  0  0  0  0
    3.5369    4.8345   -0.6363 H   0  0  0  0  0  0  0  0  0  0  0  0
    5.1840    5.4560   -0.8040 H   0  0  0  0  0  0  0  0  0  0  0  0
    4.0258    3.6922    1.2919 H   0  0  0  0  0  0  0  0  0  0  0  0
    5.6280    4.4823    1.2497 H   0  0  0  0  0  0  0  0  0  0  0  0
    5.1148    1.7411    0.9694 H   0  0  0  0  0  0  0  0  0  0  0  0
    6.6233    2.5891    0.5549 H   0  0  0  0  0  0  0  0  0  0  0  0
  1  2  1  0
  2  3  1  0
  2 19  1  0
  3  4  1  0
  3  5  2  0
  5  6  1  0
  6  7  1  0
  6 19  1  0
  7  8  2  0
  7 18  1  0
  8  9  1  0
  9 10  2  0
 10 11  1  0
 11 12  1  0
 11 18  2  0
 12 13  2  0
 12 17  1  0
 13 14  1  0
 14 15  2  0
 15 16  1  0
 16 17  2  0
 19 20  2  0
  1 21  1  0
  1 22  1  0
  1 23  1  0
  4 24  1  0
  4 25  1  0
  5 26  1  0
  8 27  1  0
  9 28  1  0
 10 29  1  0
 13 30  1  0
 14 31  1  0
 15 32  1  0
 17 33  1  0
 18 34  1  0
 35 36  1  0
 36 37  1  0
 37 38  1  0
 38 39  1  0
 39 40  1  0
 40 41  1  0
 41 42  1  0
 42 43  1  0
 43 39  1  0
 36 44  1  0
 36 45  1  0
 37 46  1  0
 37 47  1  0
 38 48  1  0
 38 49  1  0
 40 50  1  0
 40 51  1  0
 41 52  1  0
 41 53  1  0
 42 54  1  0
 42 55  1  0
 43 56  1  0
 43 57  1  0
  6 35  1  6
M  CHG  1   5   1
M  END
>  <attachment_point>  (414) 
26

>  <score>  (414) 
<NA>

$$$$
CAT-4j
     RDKit          3D

 41 44  0  0  1  0  0  0  0  0999 V2000
   11.7106   -2.3098    1.2658 C   0  0  0  0  0  0  0  0  0  0  0  0
   13.0313   -2.6523    0.7225 N   0  0  0  0  0  0  0  0  0  0  0  0
   14.2010   -2.6281    1.3773 C   0  0  0  0  0  0  0  0  0  0  0  0
   14.3777   -2.3568    2.6732 N   0  0  0  0  0  0  0  0  0  0  0  0
   15.2217   -2.9197    0.5738 N   0  0  0  0  0  0  0  0  0  0  0  0
   14.7965   -3.2519   -0.7875 C   0  0  1  0  0  0  0  0  0  0  0  0
   15.3794   -2.2443   -1.7949 C   0  0  0  0  0  0  0  0  0  0  0  0
   15.9522   -2.6550   -3.0208 C   0  0  0  0  0  0  0  0  0  0  0  0
   16.4340   -1.6937   -3.9273 C   0  0  0  0  0  0  0  0  0  0  0  0
   16.3364   -0.3224   -3.6308 C   0  0  0  0  0  0  0  0  0  0  0  0
   15.7943    0.1250   -2.4073 C   0  0  0  0  0  0  0  0  0  0  0  0
   15.6711    1.5693   -2.0915 C   0  0  0  0  0  0  0  0  0  0  0  0
   15.3832    2.0354   -0.7903 C   0  0  0  0  0  0  0  0  0  0  0  0
   15.3534    3.4188   -0.5357 C   0  0  0  0  0  0  0  0  0  0  0  0
   15.5968    4.3049   -1.5946 C   0  0  0  0  0  0  0  0  0  0  0  0
   15.8275    3.8920   -2.8511 N   0  0  0  0  0  0  0  0  0  0  0  0
   15.8598    2.5642   -3.0762 C   0  0  0  0  0  0  0  0  0  0  0  0
   15.3327   -0.8573   -1.5012 C   0  0  0  0  0  0  0  0  0  0  0  0
   13.2767   -3.0094   -0.6368 C   0  0  0  0  0  0  0  0  0  0  0  0
   12.3981   -3.0674   -1.5055 O   0  0  0  0  0  0  0  0  0  0  0  0
    0.0000    0.0000    0.0000 H   0  0  0  0  0  0  0  0  0  0  0  0
    0.0000    0.0000    0.0000 H   0  0  0  0  0  0  0  0  0  0  0  0
    0.0000    0.0000    0.0000 H   0  0  0  0  0  0  0  0  0  0  0  0
    0.0000    0.0000    0.0000 H   0  0  0  0  0  0  0  0  0  0  0  0
    0.0000    0.0000    0.0000 H   0  0  0  0  0  0  0  0  0  0  0  0
    0.0000    0.0000    0.0000 H   0  0  0  0  0  0  0  0  0  0  0  0
    0.0000    0.0000    0.0000 H   0  0  0  0  0  0  0  0  0  0  0  0
    0.0000    0.0000    0.0000 H   0  0  0  0  0  0  0  0  0  0  0  0
    0.0000    0.0000    0.0000 H   0  0  0  0  0  0  0  0  0  0  0  0
    0.0000    0.0000    0.0000 H   0  0  0  0  0  0  0  0  0  0  0  0
    0.0000    0.0000    0.0000 H   0  0  0  0  0  0  0  0  0  0  0  0
    0.0000    0.0000    0.0000 H   0  0  0  0  0  0  0  0  0  0  0  0
    0.0000    0.0000    0.0000 H   0  0  0  0  0  0  0  0  0  0  0  0
    0.0000    0.0000    0.0000 H   0  0  0  0  0  0  0  0  0  0  0  0
    6.9212   -1.5211   -0.3684 C   0  0  0  0  0  0  0  0  0  0  0  0
    6.3465   -0.3451   -0.6355 C   0  0  0  0  0  0  0  0  0  0  0  0
    5.0466   -0.2816   -0.5033 N   0  0  0  0  0  0  0  0  0  0  0  0
    4.3734   -1.3457   -0.1237 C   0  0  0  0  0  0  0  0  0  0  0  0
    5.6330   -2.5209    0.0640 S   0  0  0  0  0  0  0  0  0  0  0  0
    6.9345    0.5337   -0.9527 H   0  0  0  0  0  0  0  0  0  0  0  0
    3.2998   -1.4294    0.0241 H   0  0  0  0  0  0  0  0  0  0  0  0
  1  2  1  0
  2  3  1  0
  2 19  1  0
  3  4  1  0
  3  5  2  0
  5  6  1  0
  6  7  1  1
  6 19  1  0
  7  8  2  0
  7 18  1  0
  8  9  1  0
  9 10  2  0
 10 11  1  0
 11 12  1  0
 11 18  2  0
 12 13  2  0
 12 17  1  0
 13 14  1  0
 14 15  2  0
 15 16  1  0
 16 17  2  0
 19 20  2  0
  1 21  1  0
  1 22  1  0
  1 23  1  0
  4 24  1  0
  4 25  1  0
  5 26  1  0
  8 27  1  0
  9 28  1  0
 10 29  1  0
 13 30  1  0
 14 31  1  0
 15 32  1  0
 17 33  1  0
 18 34  1  0
 35 36  2  0
 36 37  1  0
 37 38  2  0
 38 39  1  0
 39 35  1  0
 36 40  1  0
 38 41  1  0
  6 35  1  0
M  CHG  1   5   1
M  END
>  <attachment_point>  (415) 
26

>  <score>  (415) 
<NA>

$$$$
CAT-4j
     RDKit          3D

 52 56  0  0  1  0  0  0  0  0999 V2000
   11.7106   -2.3098    1.2658 C   0  0  0  0  0  0  0  0  0  0  0  0
   13.0313   -2.6523    0.7225 N   0  0  0  0  0  0  0  0  0  0  0  0
   14.2010   -2.6281    1.3773 C   0  0  0  0  0  0  0  0  0  0  0  0
   14.3777   -2.3568    2.6732 N   0  0  0  0  0  0  0  0  0  0  0  0
   15.2217   -2.9197    0.5738 N   0  0  0  0  0  0  0  0  0  0  0  0
   14.7965   -3.2519   -0.7875 C   0  0  1  0  0  0  0  0  0  0  0  0
   15.3794   -2.2443   -1.7949 C   0  0  0  0  0  0  0  0  0  0  0  0
   15.9522   -2.6550   -3.0208 C   0  0  0  0  0  0  0  0  0  0  0  0
   16.4340   -1.6937   -3.9273 C   0  0  0  0  0  0  0  0  0  0  0  0
   16.3364   -0.3224   -3.6308 C   0  0  0  0  0  0  0  0  0  0  0  0
   15.7943    0.1250   -2.4073 C   0  0  0  0  0  0  0  0  0  0  0  0
   15.6711    1.5693   -2.0915 C   0  0  0  0  0  0  0  0  0  0  0  0
   15.3832    2.0354   -0.7903 C   0  0  0  0  0  0  0  0  0  0  0  0
   15.3534    3.4188   -0.5357 C   0  0  0  0  0  0  0  0  0  0  0  0
   15.5968    4.3049   -1.5946 C   0  0  0  0  0  0  0  0  0  0  0  0
   15.8275    3.8920   -2.8511 N   0  0  0  0  0  0  0  0  0  0  0  0
   15.8598    2.5642   -3.0762 C   0  0  0  0  0  0  0  0  0  0  0  0
   15.3327   -0.8573   -1.5012 C   0  0  0  0  0  0  0  0  0  0  0  0
   13.2767   -3.0094   -0.6368 C   0  0  0  0  0  0  0  0  0  0  0  0
   12.3981   -3.0674   -1.5055 O   0  0  0  0  0  0  0  0  0  0  0  0
    0.0000    0.0000    0.0000 H   0  0  0  0  0  0  0  0  0  0  0  0
    0.0000    0.0000    0.0000 H   0  0  0  0  0  0  0  0  0  0  0  0
    0.0000    0.0000    0.0000 H   0  0  0  0  0  0  0  0  0  0  0  0
    0.0000    0.0000    0.0000 H   0  0  0  0  0  0  0  0  0  0  0  0
    0.0000    0.0000    0.0000 H   0  0  0  0  0  0  0  0  0  0  0  0
    0.0000    0.0000    0.0000 H   0  0  0  0  0  0  0  0  0  0  0  0
    0.0000    0.0000    0.0000 H   0  0  0  0  0  0  0  0  0  0  0  0
    0.0000    0.0000    0.0000 H   0  0  0  0  0  0  0  0  0  0  0  0
    0.0000    0.0000    0.0000 H   0  0  0  0  0  0  0  0  0  0  0  0
    0.0000    0.0000    0.0000 H   0  0  0  0  0  0  0  0  0  0  0  0
    0.0000    0.0000    0.0000 H   0  0  0  0  0  0  0  0  0  0  0  0
    0.0000    0.0000    0.0000 H   0  0  0  0  0  0  0  0  0  0  0  0
    0.0000    0.0000    0.0000 H   0  0  0  0  0  0  0  0  0  0  0  0
    0.0000    0.0000    0.0000 H   0  0  0  0  0  0  0  0  0  0  0  0
    6.9921   -1.5367   -0.3721 C   0  0  2  0  0  0  0  0  0  0  0  0
    6.2037   -1.9221    0.8244 C   0  0  0  0  0  0  0  0  0  0  0  0
    5.9752   -2.6983   -0.3985 C   0  0  2  0  0  0  0  0  0  0  0  0
    6.6135   -4.0171   -0.6281 C   0  0  0  0  0  0  0  0  0  0  0  0
    6.1107   -4.9796   -1.4643 C   0  0  0  0  0  0  0  0  0  0  0  0
    6.7767   -6.1823   -1.6156 C   0  0  0  0  0  0  0  0  0  0  0  0
    7.9350   -6.4140   -0.9337 C   0  0  0  0  0  0  0  0  0  0  0  0
    8.4635   -5.4601   -0.0841 C   0  0  0  0  0  0  0  0  0  0  0  0
    7.7869   -4.2832    0.0468 C   0  0  0  0  0  0  0  0  0  0  0  0
    6.7081   -0.6269   -0.9308 H   0  0  0  0  0  0  0  0  0  0  0  0
    6.6768   -2.4153    1.7029 H   0  0  0  0  0  0  0  0  0  0  0  0
    5.3651   -1.2474    1.1400 H   0  0  0  0  0  0  0  0  0  0  0  0
    5.0318   -2.5291   -0.9641 H   0  0  0  0  0  0  0  0  0  0  0  0
    5.1954   -4.7567   -1.9830 H   0  0  0  0  0  0  0  0  0  0  0  0
    6.3962   -6.9542   -2.2708 H   0  0  0  0  0  0  0  0  0  0  0  0
    8.4731   -7.3633   -1.0445 H   0  0  0  0  0  0  0  0  0  0  0  0
    9.3856   -5.6107    0.4760 H   0  0  0  0  0  0  0  0  0  0  0  0
    8.2154   -3.5293    0.7258 H   0  0  0  0  0  0  0  0  0  0  0  0
  1  2  1  0
  2  3  1  0
  2 19  1  0
  3  4  1  0
  3  5  2  0
  5  6  1  0
  6  7  1  1
  6 19  1  0
  7  8  2  0
  7 18  1  0
  8  9  1  0
  9 10  2  0
 10 11  1  0
 11 12  1  0
 11 18  2  0
 12 13  2  0
 12 17  1  0
 13 14  1  0
 14 15  2  0
 15 16  1  0
 16 17  2  0
 19 20  2  0
  1 21  1  0
  1 22  1  0
  1 23  1  0
  4 24  1  0
  4 25  1  0
  5 26  1  0
  8 27  1  0
  9 28  1  0
 10 29  1  0
 13 30  1  0
 14 31  1  0
 15 32  1  0
 17 33  1  0
 18 34  1  0
 35 36  1  0
 36 37  1  0
 37 38  1  0
 38 39  2  0
 39 40  1  0
 40 41  2  0
 41 42  1  0
 42 43  2  0
 37 35  1  0
 43 38  1  0
 35 44  1  1
 36 45  1  0
 36 46  1  0
 37 47  1  6
 39 48  1  0
 40 49  1  0
 41 50  1  0
 42 51  1  0
 43 52  1  0
  6 35  1  0
M  CHG  1   5   1
M  END
>  <attachment_point>  (416) 
26

>  <score>  (416) 
<NA>

$$$$
CAT-4j
     RDKit          3D

 54 57  0  0  1  0  0  0  0  0999 V2000
   11.7106   -2.3098    1.2658 C   0  0  0  0  0  0  0  0  0  0  0  0
   13.0313   -2.6523    0.7225 N   0  0  0  0  0  0  0  0  0  0  0  0
   14.2010   -2.6281    1.3773 C   0  0  0  0  0  0  0  0  0  0  0  0
   14.3777   -2.3568    2.6732 N   0  0  0  0  0  0  0  0  0  0  0  0
   15.2217   -2.9197    0.5738 N   0  0  0  0  0  0  0  0  0  0  0  0
   14.7965   -3.2519   -0.7875 C   0  0  1  0  0  0  0  0  0  0  0  0
   15.3794   -2.2443   -1.7949 C   0  0  0  0  0  0  0  0  0  0  0  0
   15.9522   -2.6550   -3.0208 C   0  0  0  0  0  0  0  0  0  0  0  0
   16.4340   -1.6937   -3.9273 C   0  0  0  0  0  0  0  0  0  0  0  0
   16.3364   -0.3224   -3.6308 C   0  0  0  0  0  0  0  0  0  0  0  0
   15.7943    0.1250   -2.4073 C   0  0  0  0  0  0  0  0  0  0  0  0
   15.6711    1.5693   -2.0915 C   0  0  0  0  0  0  0  0  0  0  0  0
   15.3832    2.0354   -0.7903 C   0  0  0  0  0  0  0  0  0  0  0  0
   15.3534    3.4188   -0.5357 C   0  0  0  0  0  0  0  0  0  0  0  0
   15.5968    4.3049   -1.5946 C   0  0  0  0  0  0  0  0  0  0  0  0
   15.8275    3.8920   -2.8511 N   0  0  0  0  0  0  0  0  0  0  0  0
   15.8598    2.5642   -3.0762 C   0  0  0  0  0  0  0  0  0  0  0  0
   15.3327   -0.8573   -1.5012 C   0  0  0  0  0  0  0  0  0  0  0  0
   13.2767   -3.0094   -0.6368 C   0  0  0  0  0  0  0  0  0  0  0  0
   12.3981   -3.0674   -1.5055 O   0  0  0  0  0  0  0  0  0  0  0  0
    0.0000    0.0000    0.0000 H   0  0  0  0  0  0  0  0  0  0  0  0
    0.0000    0.0000    0.0000 H   0  0  0  0  0  0  0  0  0  0  0  0
    0.0000    0.0000    0.0000 H   0  0  0  0  0  0  0  0  0  0  0  0
    0.0000    0.0000    0.0000 H   0  0  0  0  0  0  0  0  0  0  0  0
    0.0000    0.0000    0.0000 H   0  0  0  0  0  0  0  0  0  0  0  0
    0.0000    0.0000    0.0000 H   0  0  0  0  0  0  0  0  0  0  0  0
    0.0000    0.0000    0.0000 H   0  0  0  0  0  0  0  0  0  0  0  0
    0.0000    0.0000    0.0000 H   0  0  0  0  0  0  0  0  0  0  0  0
    0.0000    0.0000    0.0000 H   0  0  0  0  0  0  0  0  0  0  0  0
    0.0000    0.0000    0.0000 H   0  0  0  0  0  0  0  0  0  0  0  0
    0.0000    0.0000    0.0000 H   0  0  0  0  0  0  0  0  0  0  0  0
    0.0000    0.0000    0.0000 H   0  0  0  0  0  0  0  0  0  0  0  0
    0.0000    0.0000    0.0000 H   0  0  0  0  0  0  0  0  0  0  0  0
    0.0000    0.0000    0.0000 H   0  0  0  0  0  0  0  0  0  0  0  0
    6.9791   -1.5338   -0.3714 C   0  0  0  0  0  0  0  0  0  0  0  0
    6.2776   -0.9592   -1.4138 C   0  0  0  0  0  0  0  0  0  0  0  0
    4.9261   -0.6951   -1.2573 C   0  0  0  0  0  0  0  0  0  0  0  0
    4.2532   -0.9879   -0.0898 C   0  0  0  0  0  0  0  0  0  0  0  0
    2.7840   -0.6915    0.0563 C   0  0  0  0  0  0  0  0  0  0  0  0
    2.5319    0.7996   -0.0544 C   0  0  0  0  0  0  0  0  0  0  0  0
    1.9774   -1.4448   -0.9665 C   0  0  0  0  0  0  0  0  0  0  0  0
    4.9867   -1.5604    0.9271 C   0  0  0  0  0  0  0  0  0  0  0  0
    6.3329   -1.8404    0.8148 C   0  0  0  0  0  0  0  0  0  0  0  0
    6.8186   -0.7380   -2.3160 H   0  0  0  0  0  0  0  0  0  0  0  0
    4.4035   -0.2422   -2.0973 H   0  0  0  0  0  0  0  0  0  0  0  0
    2.4359   -0.9993    1.0621 H   0  0  0  0  0  0  0  0  0  0  0  0
    2.4612    1.1269   -1.1165 H   0  0  0  0  0  0  0  0  0  0  0  0
    3.3682    1.3529    0.4543 H   0  0  0  0  0  0  0  0  0  0  0  0
    1.5752    0.9996    0.4721 H   0  0  0  0  0  0  0  0  0  0  0  0
    0.9156   -1.4286   -0.6421 H   0  0  0  0  0  0  0  0  0  0  0  0
    2.2936   -2.5185   -0.9210 H   0  0  0  0  0  0  0  0  0  0  0  0
    2.0676   -1.0232   -1.9765 H   0  0  0  0  0  0  0  0  0  0  0  0
    4.4629   -1.7933    1.8488 H   0  0  0  0  0  0  0  0  0  0  0  0
    6.9008   -2.2946    1.6306 H   0  0  0  0  0  0  0  0  0  0  0  0
  1  2  1  0
  2  3  1  0
  2 19  1  0
  3  4  1  0
  3  5  2  0
  5  6  1  0
  6  7  1  1
  6 19  1  0
  7  8  2  0
  7 18  1  0
  8  9  1  0
  9 10  2  0
 10 11  1  0
 11 12  1  0
 11 18  2  0
 12 13  2  0
 12 17  1  0
 13 14  1  0
 14 15  2  0
 15 16  1  0
 16 17  2  0
 19 20  2  0
  1 21  1  0
  1 22  1  0
  1 23  1  0
  4 24  1  0
  4 25  1  0
  5 26  1  0
  8 27  1  0
  9 28  1  0
 10 29  1  0
 13 30  1  0
 14 31  1  0
 15 32  1  0
 17 33  1  0
 18 34  1  0
 35 36  2  0
 36 37  1  0
 37 38  2  0
 38 39  1  0
 39 40  1  0
 39 41  1  0
 38 42  1  0
 42 43  2  0
 43 35  1  0
 36 44  1  0
 37 45  1  0
 39 46  1  0
 40 47  1  0
 40 48  1  0
 40 49  1  0
 41 50  1  0
 41 51  1  0
 41 52  1  0
 42 53  1  0
 43 54  1  0
  6 35  1  0
M  CHG  1   5   1
M  END
>  <attachment_point>  (417) 
26

>  <score>  (417) 
<NA>

$$$$
CAT-4j
     RDKit          3D

 45 48  0  0  1  0  0  0  0  0999 V2000
   11.7106   -2.3098    1.2658 C   0  0  0  0  0  0  0  0  0  0  0  0
   13.0313   -2.6523    0.7225 N   0  0  0  0  0  0  0  0  0  0  0  0
   14.2010   -2.6281    1.3773 C   0  0  0  0  0  0  0  0  0  0  0  0
   14.3777   -2.3568    2.6732 N   0  0  0  0  0  0  0  0  0  0  0  0
   15.2217   -2.9197    0.5738 N   0  0  0  0  0  0  0  0  0  0  0  0
   14.7965   -3.2519   -0.7875 C   0  0  1  0  0  0  0  0  0  0  0  0
   15.3794   -2.2443   -1.7949 C   0  0  0  0  0  0  0  0  0  0  0  0
   15.9522   -2.6550   -3.0208 C   0  0  0  0  0  0  0  0  0  0  0  0
   16.4340   -1.6937   -3.9273 C   0  0  0  0  0  0  0  0  0  0  0  0
   16.3364   -0.3224   -3.6308 C   0  0  0  0  0  0  0  0  0  0  0  0
   15.7943    0.1250   -2.4073 C   0  0  0  0  0  0  0  0  0  0  0  0
   15.6711    1.5693   -2.0915 C   0  0  0  0  0  0  0  0  0  0  0  0
   15.3832    2.0354   -0.7903 C   0  0  0  0  0  0  0  0  0  0  0  0
   15.3534    3.4188   -0.5357 C   0  0  0  0  0  0  0  0  0  0  0  0
   15.5968    4.3049   -1.5946 C   0  0  0  0  0  0  0  0  0  0  0  0
   15.8275    3.8920   -2.8511 N   0  0  0  0  0  0  0  0  0  0  0  0
   15.8598    2.5642   -3.0762 C   0  0  0  0  0  0  0  0  0  0  0  0
   15.3327   -0.8573   -1.5012 C   0  0  0  0  0  0  0  0  0  0  0  0
   13.2767   -3.0094   -0.6368 C   0  0  0  0  0  0  0  0  0  0  0  0
   12.3981   -3.0674   -1.5055 O   0  0  0  0  0  0  0  0  0  0  0  0
    0.0000    0.0000    0.0000 H   0  0  0  0  0  0  0  0  0  0  0  0
    0.0000    0.0000    0.0000 H   0  0  0  0  0  0  0  0  0  0  0  0
    0.0000    0.0000    0.0000 H   0  0  0  0  0  0  0  0  0  0  0  0
    0.0000    0.0000    0.0000 H   0  0  0  0  0  0  0  0  0  0  0  0
    0.0000    0.0000    0.0000 H   0  0  0  0  0  0  0  0  0  0  0  0
    0.0000    0.0000    0.0000 H   0  0  0  0  0  0  0  0  0  0  0  0
    0.0000    0.0000    0.0000 H   0  0  0  0  0  0  0  0  0  0  0  0
    0.0000    0.0000    0.0000 H   0  0  0  0  0  0  0  0  0  0  0  0
    0.0000    0.0000    0.0000 H   0  0  0  0  0  0  0  0  0  0  0  0
    0.0000    0.0000    0.0000 H   0  0  0  0  0  0  0  0  0  0  0  0
    0.0000    0.0000    0.0000 H   0  0  0  0  0  0  0  0  0  0  0  0
    0.0000    0.0000    0.0000 H   0  0  0  0  0  0  0  0  0  0  0  0
    0.0000    0.0000    0.0000 H   0  0  0  0  0  0  0  0  0  0  0  0
    0.0000    0.0000    0.0000 H   0  0  0  0  0  0  0  0  0  0  0  0
    6.9390   -1.5250   -0.3693 C   0  0  0  0  0  0  0  0  0  0  0  0
    6.2030   -1.9873    0.6728 C   0  0  0  0  0  0  0  0  0  0  0  0
    6.7915   -2.7409    1.6446 F   0  0  0  0  0  0  0  0  0  0  0  0
    4.8516   -1.6770    0.7229 C   0  0  0  0  0  0  0  0  0  0  0  0
    4.2407   -0.9174   -0.2494 C   0  0  0  0  0  0  0  0  0  0  0  0
    5.0157   -0.4647   -1.2918 C   0  0  0  0  0  0  0  0  0  0  0  0
    6.3773   -0.7693   -1.3557 C   0  0  0  0  0  0  0  0  0  0  0  0
    7.1302   -0.3154   -2.3909 F   0  0  0  0  0  0  0  0  0  0  0  0
    4.2753   -2.0396    1.5400 H   0  0  0  0  0  0  0  0  0  0  0  0
    3.1901   -0.6657   -0.2271 H   0  0  0  0  0  0  0  0  0  0  0  0
    4.5744    0.1248   -2.0600 H   0  0  0  0  0  0  0  0  0  0  0  0
  1  2  1  0
  2  3  1  0
  2 19  1  0
  3  4  1  0
  3  5  2  0
  5  6  1  0
  6  7  1  1
  6 19  1  0
  7  8  2  0
  7 18  1  0
  8  9  1  0
  9 10  2  0
 10 11  1  0
 11 12  1  0
 11 18  2  0
 12 13  2  0
 12 17  1  0
 13 14  1  0
 14 15  2  0
 15 16  1  0
 16 17  2  0
 19 20  2  0
  1 21  1  0
  1 22  1  0
  1 23  1  0
  4 24  1  0
  4 25  1  0
  5 26  1  0
  8 27  1  0
  9 28  1  0
 10 29  1  0
 13 30  1  0
 14 31  1  0
 15 32  1  0
 17 33  1  0
 18 34  1  0
 35 36  2  0
 36 37  1  0
 36 38  1  0
 38 39  2  0
 39 40  1  0
 40 41  2  0
 41 42  1  0
 41 35  1  0
 38 43  1  0
 39 44  1  0
 40 45  1  0
  6 35  1  0
M  CHG  1   5   1
M  END
>  <attachment_point>  (418) 
26

>  <score>  (418) 
<NA>

$$$$
CAT-4j
     RDKit          3D

 49 52  0  0  1  0  0  0  0  0999 V2000
   11.7106   -2.3098    1.2658 C   0  0  0  0  0  0  0  0  0  0  0  0
   13.0313   -2.6523    0.7225 N   0  0  0  0  0  0  0  0  0  0  0  0
   14.2010   -2.6281    1.3773 C   0  0  0  0  0  0  0  0  0  0  0  0
   14.3777   -2.3568    2.6732 N   0  0  0  0  0  0  0  0  0  0  0  0
   15.2217   -2.9197    0.5738 N   0  0  0  0  0  0  0  0  0  0  0  0
   14.7965   -3.2519   -0.7875 C   0  0  1  0  0  0  0  0  0  0  0  0
   15.3794   -2.2443   -1.7949 C   0  0  0  0  0  0  0  0  0  0  0  0
   15.9522   -2.6550   -3.0208 C   0  0  0  0  0  0  0  0  0  0  0  0
   16.4340   -1.6937   -3.9273 C   0  0  0  0  0  0  0  0  0  0  0  0
   16.3364   -0.3224   -3.6308 C   0  0  0  0  0  0  0  0  0  0  0  0
   15.7943    0.1250   -2.4073 C   0  0  0  0  0  0  0  0  0  0  0  0
   15.6711    1.5693   -2.0915 C   0  0  0  0  0  0  0  0  0  0  0  0
   15.3832    2.0354   -0.7903 C   0  0  0  0  0  0  0  0  0  0  0  0
   15.3534    3.4188   -0.5357 C   0  0  0  0  0  0  0  0  0  0  0  0
   15.5968    4.3049   -1.5946 C   0  0  0  0  0  0  0  0  0  0  0  0
   15.8275    3.8920   -2.8511 N   0  0  0  0  0  0  0  0  0  0  0  0
   15.8598    2.5642   -3.0762 C   0  0  0  0  0  0  0  0  0  0  0  0
   15.3327   -0.8573   -1.5012 C   0  0  0  0  0  0  0  0  0  0  0  0
   13.2767   -3.0094   -0.6368 C   0  0  0  0  0  0  0  0  0  0  0  0
   12.3981   -3.0674   -1.5055 O   0  0  0  0  0  0  0  0  0  0  0  0
    0.0000    0.0000    0.0000 H   0  0  0  0  0  0  0  0  0  0  0  0
    0.0000    0.0000    0.0000 H   0  0  0  0  0  0  0  0  0  0  0  0
    0.0000    0.0000    0.0000 H   0  0  0  0  0  0  0  0  0  0  0  0
    0.0000    0.0000    0.0000 H   0  0  0  0  0  0  0  0  0  0  0  0
    0.0000    0.0000    0.0000 H   0  0  0  0  0  0  0  0  0  0  0  0
    0.0000    0.0000    0.0000 H   0  0  0  0  0  0  0  0  0  0  0  0
    0.0000    0.0000    0.0000 H   0  0  0  0  0  0  0  0  0  0  0  0
    0.0000    0.0000    0.0000 H   0  0  0  0  0  0  0  0  0  0  0  0
    0.0000    0.0000    0.0000 H   0  0  0  0  0  0  0  0  0  0  0  0
    0.0000    0.0000    0.0000 H   0  0  0  0  0  0  0  0  0  0  0  0
    0.0000    0.0000    0.0000 H   0  0  0  0  0  0  0  0  0  0  0  0
    0.0000    0.0000    0.0000 H   0  0  0  0  0  0  0  0  0  0  0  0
    0.0000    0.0000    0.0000 H   0  0  0  0  0  0  0  0  0  0  0  0
    0.0000    0.0000    0.0000 H   0  0  0  0  0  0  0  0  0  0  0  0
    6.9847   -1.5351   -0.3717 C   0  0  0  0  0  0  0  0  0  0  0  0
    6.8760   -0.0226   -0.4866 C   0  0  2  0  0  0  0  0  0  0  0  0
    7.4390    0.4678   -1.7681 C   0  0  0  0  0  0  0  0  0  0  0  0
    8.2899    1.6445   -1.3479 C   0  0  0  0  0  0  0  0  0  0  0  0
    8.4076    1.4862    0.1382 C   0  0  0  0  0  0  0  0  0  0  0  0
    7.5327    0.5354    0.5596 O   0  0  0  0  0  0  0  0  0  0  0  0
    6.5983   -1.9010    0.5917 H   0  0  0  0  0  0  0  0  0  0  0  0
    6.3792   -1.9884   -1.1706 H   0  0  0  0  0  0  0  0  0  0  0  0
    5.7894    0.2782   -0.4523 H   0  0  0  0  0  0  0  0  0  0  0  0
    8.0115   -0.3027   -2.3214 H   0  0  0  0  0  0  0  0  0  0  0  0
    6.6461    0.8388   -2.4727 H   0  0  0  0  0  0  0  0  0  0  0  0
    7.7384    2.5897   -1.5472 H   0  0  0  0  0  0  0  0  0  0  0  0
    9.2575    1.6757   -1.8632 H   0  0  0  0  0  0  0  0  0  0  0  0
    9.4612    1.2579    0.4676 H   0  0  0  0  0  0  0  0  0  0  0  0
    8.1556    2.4433    0.6826 H   0  0  0  0  0  0  0  0  0  0  0  0
  1  2  1  0
  2  3  1  0
  2 19  1  0
  3  4  1  0
  3  5  2  0
  5  6  1  0
  6  7  1  0
  6 19  1  0
  7  8  2  0
  7 18  1  0
  8  9  1  0
  9 10  2  0
 10 11  1  0
 11 12  1  0
 11 18  2  0
 12 13  2  0
 12 17  1  0
 13 14  1  0
 14 15  2  0
 15 16  1  0
 16 17  2  0
 19 20  2  0
  1 21  1  0
  1 22  1  0
  1 23  1  0
  4 24  1  0
  4 25  1  0
  5 26  1  0
  8 27  1  0
  9 28  1  0
 10 29  1  0
 13 30  1  0
 14 31  1  0
 15 32  1  0
 17 33  1  0
 18 34  1  0
 35 36  1  0
 36 37  1  0
 37 38  1  0
 38 39  1  0
 39 40  1  0
 40 36  1  0
 35 41  1  0
 35 42  1  0
 36 43  1  1
 37 44  1  0
 37 45  1  0
 38 46  1  0
 38 47  1  0
 39 48  1  0
 39 49  1  0
  6 35  1  6
M  CHG  1   5   1
M  END
>  <attachment_point>  (419) 
26

>  <score>  (419) 
<NA>

$$$$
CAT-4j
     RDKit          3D

 49 51  0  0  1  0  0  0  0  0999 V2000
   11.7106   -2.3098    1.2658 C   0  0  0  0  0  0  0  0  0  0  0  0
   13.0313   -2.6523    0.7225 N   0  0  0  0  0  0  0  0  0  0  0  0
   14.2010   -2.6281    1.3773 C   0  0  0  0  0  0  0  0  0  0  0  0
   14.3777   -2.3568    2.6732 N   0  0  0  0  0  0  0  0  0  0  0  0
   15.2217   -2.9197    0.5738 N   0  0  0  0  0  0  0  0  0  0  0  0
   14.7965   -3.2519   -0.7875 C   0  0  1  0  0  0  0  0  0  0  0  0
   15.3794   -2.2443   -1.7949 C   0  0  0  0  0  0  0  0  0  0  0  0
   15.9522   -2.6550   -3.0208 C   0  0  0  0  0  0  0  0  0  0  0  0
   16.4340   -1.6937   -3.9273 C   0  0  0  0  0  0  0  0  0  0  0  0
   16.3364   -0.3224   -3.6308 C   0  0  0  0  0  0  0  0  0  0  0  0
   15.7943    0.1250   -2.4073 C   0  0  0  0  0  0  0  0  0  0  0  0
   15.6711    1.5693   -2.0915 C   0  0  0  0  0  0  0  0  0  0  0  0
   15.3832    2.0354   -0.7903 C   0  0  0  0  0  0  0  0  0  0  0  0
   15.3534    3.4188   -0.5357 C   0  0  0  0  0  0  0  0  0  0  0  0
   15.5968    4.3049   -1.5946 C   0  0  0  0  0  0  0  0  0  0  0  0
   15.8275    3.8920   -2.8511 N   0  0  0  0  0  0  0  0  0  0  0  0
   15.8598    2.5642   -3.0762 C   0  0  0  0  0  0  0  0  0  0  0  0
   15.3327   -0.8573   -1.5012 C   0  0  0  0  0  0  0  0  0  0  0  0
   13.2767   -3.0094   -0.6368 C   0  0  0  0  0  0  0  0  0  0  0  0
   12.3981   -3.0674   -1.5055 O   0  0  0  0  0  0  0  0  0  0  0  0
    0.0000    0.0000    0.0000 H   0  0  0  0  0  0  0  0  0  0  0  0
    0.0000    0.0000    0.0000 H   0  0  0  0  0  0  0  0  0  0  0  0
    0.0000    0.0000    0.0000 H   0  0  0  0  0  0  0  0  0  0  0  0
    0.0000    0.0000    0.0000 H   0  0  0  0  0  0  0  0  0  0  0  0
    0.0000    0.0000    0.0000 H   0  0  0  0  0  0  0  0  0  0  0  0
    0.0000    0.0000    0.0000 H   0  0  0  0  0  0  0  0  0  0  0  0
    0.0000    0.0000    0.0000 H   0  0  0  0  0  0  0  0  0  0  0  0
    0.0000    0.0000    0.0000 H   0  0  0  0  0  0  0  0  0  0  0  0
    0.0000    0.0000    0.0000 H   0  0  0  0  0  0  0  0  0  0  0  0
    0.0000    0.0000    0.0000 H   0  0  0  0  0  0  0  0  0  0  0  0
    0.0000    0.0000    0.0000 H   0  0  0  0  0  0  0  0  0  0  0  0
    0.0000    0.0000    0.0000 H   0  0  0  0  0  0  0  0  0  0  0  0
    0.0000    0.0000    0.0000 H   0  0  0  0  0  0  0  0  0  0  0  0
    0.0000    0.0000    0.0000 H   0  0  0  0  0  0  0  0  0  0  0  0
    6.9963   -1.5376   -0.3724 C   0  0  0  0  0  0  0  0  0  0  0  0
    6.3321   -2.2232   -1.4569 N   0  0  0  0  0  0  0  0  0  0  0  0
    4.9151   -1.9264   -1.4012 C   0  0  0  0  0  0  0  0  0  0  0  0
    4.4045   -2.4125   -0.0697 C   0  0  0  0  0  0  0  0  0  0  0  0
    4.2356   -2.5866   -2.5673 C   0  0  0  0  0  0  0  0  0  0  0  0
    6.7685   -0.4637   -0.4662 H   0  0  0  0  0  0  0  0  0  0  0  0
    6.5828   -1.9820    0.5734 H   0  0  0  0  0  0  0  0  0  0  0  0
    6.7424   -2.0124   -2.3822 H   0  0  0  0  0  0  0  0  0  0  0  0
    4.7061   -0.8314   -1.4633 H   0  0  0  0  0  0  0  0  0  0  0  0
    4.9808   -3.2933    0.3147 H   0  0  0  0  0  0  0  0  0  0  0  0
    4.5838   -1.5860    0.6677 H   0  0  0  0  0  0  0  0  0  0  0  0
    3.3362   -2.7022   -0.1052 H   0  0  0  0  0  0  0  0  0  0  0  0
    4.9844   -3.1109   -3.2209 H   0  0  0  0  0  0  0  0  0  0  0  0
    3.7158   -1.8495   -3.2238 H   0  0  0  0  0  0  0  0  0  0  0  0
    3.4954   -3.3417   -2.2888 H   0  0  0  0  0  0  0  0  0  0  0  0
  1  2  1  0
  2  3  1  0
  2 19  1  0
  3  4  1  0
  3  5  2  0
  5  6  1  0
  6  7  1  0
  6 19  1  0
  7  8  2  0
  7 18  1  0
  8  9  1  0
  9 10  2  0
 10 11  1  0
 11 12  1  0
 11 18  2  0
 12 13  2  0
 12 17  1  0
 13 14  1  0
 14 15  2  0
 15 16  1  0
 16 17  2  0
 19 20  2  0
  1 21  1  0
  1 22  1  0
  1 23  1  0
  4 24  1  0
  4 25  1  0
  5 26  1  0
  8 27  1  0
  9 28  1  0
 10 29  1  0
 13 30  1  0
 14 31  1  0
 15 32  1  0
 17 33  1  0
 18 34  1  0
 35 36  1  0
 36 37  1  0
 37 38  1  0
 37 39  1  0
 35 40  1  0
 35 41  1  0
 36 42  1  0
 37 43  1  0
 38 44  1  0
 38 45  1  0
 38 46  1  0
 39 47  1  0
 39 48  1  0
 39 49  1  0
  6 35  1  6
M  CHG  1   5   1
M  END
>  <attachment_point>  (420) 
26

>  <score>  (420) 
<NA>

$$$$
CAT-4j
     RDKit          3D

 46 48  0  0  1  0  0  0  0  0999 V2000
   11.7106   -2.3098    1.2658 C   0  0  0  0  0  0  0  0  0  0  0  0
   13.0313   -2.6523    0.7225 N   0  0  0  0  0  0  0  0  0  0  0  0
   14.2010   -2.6281    1.3773 C   0  0  0  0  0  0  0  0  0  0  0  0
   14.3777   -2.3568    2.6732 N   0  0  0  0  0  0  0  0  0  0  0  0
   15.2217   -2.9197    0.5738 N   0  0  0  0  0  0  0  0  0  0  0  0
   14.7965   -3.2519   -0.7875 C   0  0  1  0  0  0  0  0  0  0  0  0
   15.3794   -2.2443   -1.7949 C   0  0  0  0  0  0  0  0  0  0  0  0
   15.9522   -2.6550   -3.0208 C   0  0  0  0  0  0  0  0  0  0  0  0
   16.4340   -1.6937   -3.9273 C   0  0  0  0  0  0  0  0  0  0  0  0
   16.3364   -0.3224   -3.6308 C   0  0  0  0  0  0  0  0  0  0  0  0
   15.7943    0.1250   -2.4073 C   0  0  0  0  0  0  0  0  0  0  0  0
   15.6711    1.5693   -2.0915 C   0  0  0  0  0  0  0  0  0  0  0  0
   15.3832    2.0354   -0.7903 C   0  0  0  0  0  0  0  0  0  0  0  0
   15.3534    3.4188   -0.5357 C   0  0  0  0  0  0  0  0  0  0  0  0
   15.5968    4.3049   -1.5946 C   0  0  0  0  0  0  0  0  0  0  0  0
   15.8275    3.8920   -2.8511 N   0  0  0  0  0  0  0  0  0  0  0  0
   15.8598    2.5642   -3.0762 C   0  0  0  0  0  0  0  0  0  0  0  0
   15.3327   -0.8573   -1.5012 C   0  0  0  0  0  0  0  0  0  0  0  0
   13.2767   -3.0094   -0.6368 C   0  0  0  0  0  0  0  0  0  0  0  0
   12.3981   -3.0674   -1.5055 O   0  0  0  0  0  0  0  0  0  0  0  0
    0.0000    0.0000    0.0000 H   0  0  0  0  0  0  0  0  0  0  0  0
    0.0000    0.0000    0.0000 H   0  0  0  0  0  0  0  0  0  0  0  0
    0.0000    0.0000    0.0000 H   0  0  0  0  0  0  0  0  0  0  0  0
    0.0000    0.0000    0.0000 H   0  0  0  0  0  0  0  0  0  0  0  0
    0.0000    0.0000    0.0000 H   0  0  0  0  0  0  0  0  0  0  0  0
    0.0000    0.0000    0.0000 H   0  0  0  0  0  0  0  0  0  0  0  0
    0.0000    0.0000    0.0000 H   0  0  0  0  0  0  0  0  0  0  0  0
    0.0000    0.0000    0.0000 H   0  0  0  0  0  0  0  0  0  0  0  0
    0.0000    0.0000    0.0000 H   0  0  0  0  0  0  0  0  0  0  0  0
    0.0000    0.0000    0.0000 H   0  0  0  0  0  0  0  0  0  0  0  0
    0.0000    0.0000    0.0000 H   0  0  0  0  0  0  0  0  0  0  0  0
    0.0000    0.0000    0.0000 H   0  0  0  0  0  0  0  0  0  0  0  0
    0.0000    0.0000    0.0000 H   0  0  0  0  0  0  0  0  0  0  0  0
    0.0000    0.0000    0.0000 H   0  0  0  0  0  0  0  0  0  0  0  0
    6.9708   -1.5320   -0.3710 C   0  0  0  0  0  0  0  0  0  0  0  0
    6.7360   -0.1905   -1.0559 C   0  0  2  0  0  0  0  0  0  0  0  0
    7.1620   -0.3241   -2.4232 N   0  0  0  0  0  0  0  0  0  0  0  0
    7.5070    0.8859   -0.3845 C   0  0  0  0  0  0  0  0  0  0  0  0
    7.2960    1.1741    0.8234 O   0  0  0  0  0  0  0  0  0  0  0  0
    8.4723    1.5839   -1.0954 O   0  0  0  0  0  0  0  0  0  0  0  0
    6.6136   -1.5403    0.6650 H   0  0  0  0  0  0  0  0  0  0  0  0
    6.4644   -2.2897   -1.0190 H   0  0  0  0  0  0  0  0  0  0  0  0
    5.6742    0.0798   -1.0176 H   0  0  0  0  0  0  0  0  0  0  0  0
    6.6669    0.2984   -3.0804 H   0  0  0  0  0  0  0  0  0  0  0  0
    8.1787   -0.3788   -2.5482 H   0  0  0  0  0  0  0  0  0  0  0  0
    8.6304    2.5656   -0.8263 H   0  0  0  0  0  0  0  0  0  0  0  0
  1  2  1  0
  2  3  1  0
  2 19  1  0
  3  4  1  0
  3  5  2  0
  5  6  1  0
  6  7  1  0
  6 19  1  0
  7  8  2  0
  7 18  1  0
  8  9  1  0
  9 10  2  0
 10 11  1  0
 11 12  1  0
 11 18  2  0
 12 13  2  0
 12 17  1  0
 13 14  1  0
 14 15  2  0
 15 16  1  0
 16 17  2  0
 19 20  2  0
  1 21  1  0
  1 22  1  0
  1 23  1  0
  4 24  1  0
  4 25  1  0
  5 26  1  0
  8 27  1  0
  9 28  1  0
 10 29  1  0
 13 30  1  0
 14 31  1  0
 15 32  1  0
 17 33  1  0
 18 34  1  0
 35 36  1  0
 36 37  1  0
 36 38  1  0
 38 39  2  0
 38 40  1  0
 35 41  1  0
 35 42  1  0
 36 43  1  6
 37 44  1  0
 37 45  1  0
 40 46  1  0
  6 35  1  6
M  CHG  1   5   1
M  END
>  <attachment_point>  (421) 
26

>  <score>  (421) 
<NA>

$$$$
CAT-4j
     RDKit          3D

 47 50  0  0  1  0  0  0  0  0999 V2000
   11.7106   -2.3098    1.2658 C   0  0  0  0  0  0  0  0  0  0  0  0
   13.0313   -2.6523    0.7225 N   0  0  0  0  0  0  0  0  0  0  0  0
   14.2010   -2.6281    1.3773 C   0  0  0  0  0  0  0  0  0  0  0  0
   14.3777   -2.3568    2.6732 N   0  0  0  0  0  0  0  0  0  0  0  0
   15.2217   -2.9197    0.5738 N   0  0  0  0  0  0  0  0  0  0  0  0
   14.7965   -3.2519   -0.7875 C   0  0  1  0  0  0  0  0  0  0  0  0
   15.3794   -2.2443   -1.7949 C   0  0  0  0  0  0  0  0  0  0  0  0
   15.9522   -2.6550   -3.0208 C   0  0  0  0  0  0  0  0  0  0  0  0
   16.4340   -1.6937   -3.9273 C   0  0  0  0  0  0  0  0  0  0  0  0
   16.3364   -0.3224   -3.6308 C   0  0  0  0  0  0  0  0  0  0  0  0
   15.7943    0.1250   -2.4073 C   0  0  0  0  0  0  0  0  0  0  0  0
   15.6711    1.5693   -2.0915 C   0  0  0  0  0  0  0  0  0  0  0  0
   15.3832    2.0354   -0.7903 C   0  0  0  0  0  0  0  0  0  0  0  0
   15.3534    3.4188   -0.5357 C   0  0  0  0  0  0  0  0  0  0  0  0
   15.5968    4.3049   -1.5946 C   0  0  0  0  0  0  0  0  0  0  0  0
   15.8275    3.8920   -2.8511 N   0  0  0  0  0  0  0  0  0  0  0  0
   15.8598    2.5642   -3.0762 C   0  0  0  0  0  0  0  0  0  0  0  0
   15.3327   -0.8573   -1.5012 C   0  0  0  0  0  0  0  0  0  0  0  0
   13.2767   -3.0094   -0.6368 C   0  0  0  0  0  0  0  0  0  0  0  0
   12.3981   -3.0674   -1.5055 O   0  0  0  0  0  0  0  0  0  0  0  0
    0.0000    0.0000    0.0000 H   0  0  0  0  0  0  0  0  0  0  0  0
    0.0000    0.0000    0.0000 H   0  0  0  0  0  0  0  0  0  0  0  0
    0.0000    0.0000    0.0000 H   0  0  0  0  0  0  0  0  0  0  0  0
    0.0000    0.0000    0.0000 H   0  0  0  0  0  0  0  0  0  0  0  0
    0.0000    0.0000    0.0000 H   0  0  0  0  0  0  0  0  0  0  0  0
    0.0000    0.0000    0.0000 H   0  0  0  0  0  0  0  0  0  0  0  0
    0.0000    0.0000    0.0000 H   0  0  0  0  0  0  0  0  0  0  0  0
    0.0000    0.0000    0.0000 H   0  0  0  0  0  0  0  0  0  0  0  0
    0.0000    0.0000    0.0000 H   0  0  0  0  0  0  0  0  0  0  0  0
    0.0000    0.0000    0.0000 H   0  0  0  0  0  0  0  0  0  0  0  0
    0.0000    0.0000    0.0000 H   0  0  0  0  0  0  0  0  0  0  0  0
    0.0000    0.0000    0.0000 H   0  0  0  0  0  0  0  0  0  0  0  0
    0.0000    0.0000    0.0000 H   0  0  0  0  0  0  0  0  0  0  0  0
    0.0000    0.0000    0.0000 H   0  0  0  0  0  0  0  0  0  0  0  0
    6.9744   -1.5328   -0.3712 C   0  0  0  0  0  0  0  0  0  0  0  0
    6.4958   -0.2704   -0.6462 C   0  0  0  0  0  0  0  0  0  0  0  0
    5.1365   -0.0481   -0.5540 C   0  0  0  0  0  0  0  0  0  0  0  0
    4.2394   -1.0336   -0.1992 C   0  0  0  0  0  0  0  0  0  0  0  0
    2.7679   -0.7650   -0.1067 C   0  0  0  0  0  0  0  0  0  0  0  0
    2.3809   -0.3861    1.1438 F   0  0  0  0  0  0  0  0  0  0  0  0
    2.3761    0.1796   -1.0561 F   0  0  0  0  0  0  0  0  0  0  0  0
    2.0488   -1.9212   -0.4353 F   0  0  0  0  0  0  0  0  0  0  0  0
    4.7372   -2.2560    0.0633 N   0  0  0  0  0  0  0  0  0  0  0  0
    6.0581   -2.4974   -0.0197 C   0  0  0  0  0  0  0  0  0  0  0  0
    7.2015    0.4941   -0.9225 H   0  0  0  0  0  0  0  0  0  0  0  0
    4.7394    0.9325   -0.7649 H   0  0  0  0  0  0  0  0  0  0  0  0
    6.4602   -3.4934    0.1946 H   0  0  0  0  0  0  0  0  0  0  0  0
  1  2  1  0
  2  3  1  0
  2 19  1  0
  3  4  1  0
  3  5  2  0
  5  6  1  0
  6  7  1  1
  6 19  1  0
  7  8  2  0
  7 18  1  0
  8  9  1  0
  9 10  2  0
 10 11  1  0
 11 12  1  0
 11 18  2  0
 12 13  2  0
 12 17  1  0
 13 14  1  0
 14 15  2  0
 15 16  1  0
 16 17  2  0
 19 20  2  0
  1 21  1  0
  1 22  1  0
  1 23  1  0
  4 24  1  0
  4 25  1  0
  5 26  1  0
  8 27  1  0
  9 28  1  0
 10 29  1  0
 13 30  1  0
 14 31  1  0
 15 32  1  0
 17 33  1  0
 18 34  1  0
 35 36  2  0
 36 37  1  0
 37 38  2  0
 38 39  1  0
 39 40  1  0
 39 41  1  0
 39 42  1  0
 38 43  1  0
 43 44  2  0
 44 35  1  0
 36 45  1  0
 37 46  1  0
 44 47  1  0
  6 35  1  0
M  CHG  1   5   1
M  END
>  <attachment_point>  (422) 
26

>  <score>  (422) 
<NA>

$$$$
CAT-4j
     RDKit          3D

 48 51  0  0  1  0  0  0  0  0999 V2000
   11.7106   -2.3098    1.2658 C   0  0  0  0  0  0  0  0  0  0  0  0
   13.0313   -2.6523    0.7225 N   0  0  0  0  0  0  0  0  0  0  0  0
   14.2010   -2.6281    1.3773 C   0  0  0  0  0  0  0  0  0  0  0  0
   14.3777   -2.3568    2.6732 N   0  0  0  0  0  0  0  0  0  0  0  0
   15.2217   -2.9197    0.5738 N   0  0  0  0  0  0  0  0  0  0  0  0
   14.7965   -3.2519   -0.7875 C   0  0  1  0  0  0  0  0  0  0  0  0
   15.3794   -2.2443   -1.7949 C   0  0  0  0  0  0  0  0  0  0  0  0
   15.9522   -2.6550   -3.0208 C   0  0  0  0  0  0  0  0  0  0  0  0
   16.4340   -1.6937   -3.9273 C   0  0  0  0  0  0  0  0  0  0  0  0
   16.3364   -0.3224   -3.6308 C   0  0  0  0  0  0  0  0  0  0  0  0
   15.7943    0.1250   -2.4073 C   0  0  0  0  0  0  0  0  0  0  0  0
   15.6711    1.5693   -2.0915 C   0  0  0  0  0  0  0  0  0  0  0  0
   15.3832    2.0354   -0.7903 C   0  0  0  0  0  0  0  0  0  0  0  0
   15.3534    3.4188   -0.5357 C   0  0  0  0  0  0  0  0  0  0  0  0
   15.5968    4.3049   -1.5946 C   0  0  0  0  0  0  0  0  0  0  0  0
   15.8275    3.8920   -2.8511 N   0  0  0  0  0  0  0  0  0  0  0  0
   15.8598    2.5642   -3.0762 C   0  0  0  0  0  0  0  0  0  0  0  0
   15.3327   -0.8573   -1.5012 C   0  0  0  0  0  0  0  0  0  0  0  0
   13.2767   -3.0094   -0.6368 C   0  0  0  0  0  0  0  0  0  0  0  0
   12.3981   -3.0674   -1.5055 O   0  0  0  0  0  0  0  0  0  0  0  0
    0.0000    0.0000    0.0000 H   0  0  0  0  0  0  0  0  0  0  0  0
    0.0000    0.0000    0.0000 H   0  0  0  0  0  0  0  0  0  0  0  0
    0.0000    0.0000    0.0000 H   0  0  0  0  0  0  0  0  0  0  0  0
    0.0000    0.0000    0.0000 H   0  0  0  0  0  0  0  0  0  0  0  0
    0.0000    0.0000    0.0000 H   0  0  0  0  0  0  0  0  0  0  0  0
    0.0000    0.0000    0.0000 H   0  0  0  0  0  0  0  0  0  0  0  0
    0.0000    0.0000    0.0000 H   0  0  0  0  0  0  0  0  0  0  0  0
    0.0000    0.0000    0.0000 H   0  0  0  0  0  0  0  0  0  0  0  0
    0.0000    0.0000    0.0000 H   0  0  0  0  0  0  0  0  0  0  0  0
    0.0000    0.0000    0.0000 H   0  0  0  0  0  0  0  0  0  0  0  0
    0.0000    0.0000    0.0000 H   0  0  0  0  0  0  0  0  0  0  0  0
    0.0000    0.0000    0.0000 H   0  0  0  0  0  0  0  0  0  0  0  0
    0.0000    0.0000    0.0000 H   0  0  0  0  0  0  0  0  0  0  0  0
    0.0000    0.0000    0.0000 H   0  0  0  0  0  0  0  0  0  0  0  0
    6.9759   -1.5331   -0.3713 C   0  0  0  0  0  0  0  0  0  0  0  0
    6.0506   -2.4936   -0.3950 C   0  0  0  0  0  0  0  0  0  0  0  0
    4.6281   -2.0735   -0.3126 C   0  0  0  0  0  0  0  0  0  0  0  0
    4.4461   -1.1018    0.7147 N   0  0  0  0  0  0  0  0  0  0  0  0
    5.3796   -0.0378    0.7369 C   0  0  0  0  0  0  0  0  0  0  0  0
    6.4929   -0.1388   -0.2649 C   0  0  0  0  0  0  0  0  0  0  0  0
    6.3099   -3.5435   -0.4711 H   0  0  0  0  0  0  0  0  0  0  0  0
    4.3287   -1.6505   -1.3065 H   0  0  0  0  0  0  0  0  0  0  0  0
    3.9759   -2.9455   -0.1284 H   0  0  0  0  0  0  0  0  0  0  0  0
    4.3461   -1.5535    1.6537 H   0  0  0  0  0  0  0  0  0  0  0  0
    4.8613    0.9332    0.5635 H   0  0  0  0  0  0  0  0  0  0  0  0
    5.8460    0.0152    1.7595 H   0  0  0  0  0  0  0  0  0  0  0  0
    7.3407    0.4615    0.1278 H   0  0  0  0  0  0  0  0  0  0  0  0
    6.2228    0.2979   -1.2484 H   0  0  0  0  0  0  0  0  0  0  0  0
  1  2  1  0
  2  3  1  0
  2 19  1  0
  3  4  1  0
  3  5  2  0
  5  6  1  0
  6  7  1  1
  6 19  1  0
  7  8  2  0
  7 18  1  0
  8  9  1  0
  9 10  2  0
 10 11  1  0
 11 12  1  0
 11 18  2  0
 12 13  2  0
 12 17  1  0
 13 14  1  0
 14 15  2  0
 15 16  1  0
 16 17  2  0
 19 20  2  0
  1 21  1  0
  1 22  1  0
  1 23  1  0
  4 24  1  0
  4 25  1  0
  5 26  1  0
  8 27  1  0
  9 28  1  0
 10 29  1  0
 13 30  1  0
 14 31  1  0
 15 32  1  0
 17 33  1  0
 18 34  1  0
 35 36  2  0
 36 37  1  0
 37 38  1  0
 38 39  1  0
 39 40  1  0
 40 35  1  0
 36 41  1  0
 37 42  1  0
 37 43  1  0
 38 44  1  0
 39 45  1  0
 39 46  1  0
 40 47  1  0
 40 48  1  0
  6 35  1  0
M  CHG  1   5   1
M  END
>  <attachment_point>  (423) 
26

>  <score>  (423) 
<NA>

$$$$
CAT-4j
     RDKit          3D

 47 50  0  0  1  0  0  0  0  0999 V2000
   11.7106   -2.3098    1.2658 C   0  0  0  0  0  0  0  0  0  0  0  0
   13.0313   -2.6523    0.7225 N   0  0  0  0  0  0  0  0  0  0  0  0
   14.2010   -2.6281    1.3773 C   0  0  0  0  0  0  0  0  0  0  0  0
   14.3777   -2.3568    2.6732 N   0  0  0  0  0  0  0  0  0  0  0  0
   15.2217   -2.9197    0.5738 N   0  0  0  0  0  0  0  0  0  0  0  0
   14.7965   -3.2519   -0.7875 C   0  0  1  0  0  0  0  0  0  0  0  0
   15.3794   -2.2443   -1.7949 C   0  0  0  0  0  0  0  0  0  0  0  0
   15.9522   -2.6550   -3.0208 C   0  0  0  0  0  0  0  0  0  0  0  0
   16.4340   -1.6937   -3.9273 C   0  0  0  0  0  0  0  0  0  0  0  0
   16.3364   -0.3224   -3.6308 C   0  0  0  0  0  0  0  0  0  0  0  0
   15.7943    0.1250   -2.4073 C   0  0  0  0  0  0  0  0  0  0  0  0
   15.6711    1.5693   -2.0915 C   0  0  0  0  0  0  0  0  0  0  0  0
   15.3832    2.0354   -0.7903 C   0  0  0  0  0  0  0  0  0  0  0  0
   15.3534    3.4188   -0.5357 C   0  0  0  0  0  0  0  0  0  0  0  0
   15.5968    4.3049   -1.5946 C   0  0  0  0  0  0  0  0  0  0  0  0
   15.8275    3.8920   -2.8511 N   0  0  0  0  0  0  0  0  0  0  0  0
   15.8598    2.5642   -3.0762 C   0  0  0  0  0  0  0  0  0  0  0  0
   15.3327   -0.8573   -1.5012 C   0  0  0  0  0  0  0  0  0  0  0  0
   13.2767   -3.0094   -0.6368 C   0  0  0  0  0  0  0  0  0  0  0  0
   12.3981   -3.0674   -1.5055 O   0  0  0  0  0  0  0  0  0  0  0  0
    0.0000    0.0000    0.0000 H   0  0  0  0  0  0  0  0  0  0  0  0
    0.0000    0.0000    0.0000 H   0  0  0  0  0  0  0  0  0  0  0  0
    0.0000    0.0000    0.0000 H   0  0  0  0  0  0  0  0  0  0  0  0
    0.0000    0.0000    0.0000 H   0  0  0  0  0  0  0  0  0  0  0  0
    0.0000    0.0000    0.0000 H   0  0  0  0  0  0  0  0  0  0  0  0
    0.0000    0.0000    0.0000 H   0  0  0  0  0  0  0  0  0  0  0  0
    0.0000    0.0000    0.0000 H   0  0  0  0  0  0  0  0  0  0  0  0
    0.0000    0.0000    0.0000 H   0  0  0  0  0  0  0  0  0  0  0  0
    0.0000    0.0000    0.0000 H   0  0  0  0  0  0  0  0  0  0  0  0
    0.0000    0.0000    0.0000 H   0  0  0  0  0  0  0  0  0  0  0  0
    0.0000    0.0000    0.0000 H   0  0  0  0  0  0  0  0  0  0  0  0
    0.0000    0.0000    0.0000 H   0  0  0  0  0  0  0  0  0  0  0  0
    0.0000    0.0000    0.0000 H   0  0  0  0  0  0  0  0  0  0  0  0
    0.0000    0.0000    0.0000 H   0  0  0  0  0  0  0  0  0  0  0  0
    6.8611   -1.5079   -0.3652 O   0  0  0  0  0  0  0  0  0  0  0  0
    6.6509   -1.0620   -1.6635 C   0  0  0  0  0  0  0  0  0  0  0  0
    6.7340    0.2793   -1.9723 C   0  0  0  0  0  0  0  0  0  0  0  0
    6.5338    0.7523   -3.2351 C   0  0  0  0  0  0  0  0  0  0  0  0
    6.2350   -0.1459   -4.2510 C   0  0  0  0  0  0  0  0  0  0  0  0
    6.0195    0.2714   -5.5603 O   0  0  0  0  0  0  0  0  0  0  0  0
    6.1524   -1.4870   -3.9399 C   0  0  0  0  0  0  0  0  0  0  0  0
    6.3557   -1.9725   -2.6546 C   0  0  0  0  0  0  0  0  0  0  0  0
    6.9660    0.9651   -1.1775 H   0  0  0  0  0  0  0  0  0  0  0  0
    6.6059    1.8163   -3.4490 H   0  0  0  0  0  0  0  0  0  0  0  0
    6.8354    0.2171   -6.1781 H   0  0  0  0  0  0  0  0  0  0  0  0
    5.9187   -2.1884   -4.7351 H   0  0  0  0  0  0  0  0  0  0  0  0
    6.2829   -3.0223   -2.4520 H   0  0  0  0  0  0  0  0  0  0  0  0
  1  2  1  0
  2  3  1  0
  2 19  1  0
  3  4  1  0
  3  5  2  0
  5  6  1  0
  6  7  1  0
  6 19  1  0
  7  8  2  0
  7 18  1  0
  8  9  1  0
  9 10  2  0
 10 11  1  0
 11 12  1  0
 11 18  2  0
 12 13  2  0
 12 17  1  0
 13 14  1  0
 14 15  2  0
 15 16  1  0
 16 17  2  0
 19 20  2  0
  1 21  1  0
  1 22  1  0
  1 23  1  0
  4 24  1  0
  4 25  1  0
  5 26  1  0
  8 27  1  0
  9 28  1  0
 10 29  1  0
 13 30  1  0
 14 31  1  0
 15 32  1  0
 17 33  1  0
 18 34  1  0
 35 36  1  0
 36 37  2  0
 37 38  1  0
 38 39  2  0
 39 40  1  0
 39 41  1  0
 41 42  2  0
 42 36  1  0
 37 43  1  0
 38 44  1  0
 40 45  1  0
 41 46  1  0
 42 47  1  0
  6 35  1  6
M  CHG  1   5   1
M  END
>  <attachment_point>  (424) 
26

>  <score>  (424) 
<NA>

$$$$
CAT-4j
     RDKit          3D

 47 50  0  0  1  0  0  0  0  0999 V2000
   11.7106   -2.3098    1.2658 C   0  0  0  0  0  0  0  0  0  0  0  0
   13.0313   -2.6523    0.7225 N   0  0  0  0  0  0  0  0  0  0  0  0
   14.2010   -2.6281    1.3773 C   0  0  0  0  0  0  0  0  0  0  0  0
   14.3777   -2.3568    2.6732 N   0  0  0  0  0  0  0  0  0  0  0  0
   15.2217   -2.9197    0.5738 N   0  0  0  0  0  0  0  0  0  0  0  0
   14.7965   -3.2519   -0.7875 C   0  0  1  0  0  0  0  0  0  0  0  0
   15.3794   -2.2443   -1.7949 C   0  0  0  0  0  0  0  0  0  0  0  0
   15.9522   -2.6550   -3.0208 C   0  0  0  0  0  0  0  0  0  0  0  0
   16.4340   -1.6937   -3.9273 C   0  0  0  0  0  0  0  0  0  0  0  0
   16.3364   -0.3224   -3.6308 C   0  0  0  0  0  0  0  0  0  0  0  0
   15.7943    0.1250   -2.4073 C   0  0  0  0  0  0  0  0  0  0  0  0
   15.6711    1.5693   -2.0915 C   0  0  0  0  0  0  0  0  0  0  0  0
   15.3832    2.0354   -0.7903 C   0  0  0  0  0  0  0  0  0  0  0  0
   15.3534    3.4188   -0.5357 C   0  0  0  0  0  0  0  0  0  0  0  0
   15.5968    4.3049   -1.5946 C   0  0  0  0  0  0  0  0  0  0  0  0
   15.8275    3.8920   -2.8511 N   0  0  0  0  0  0  0  0  0  0  0  0
   15.8598    2.5642   -3.0762 C   0  0  0  0  0  0  0  0  0  0  0  0
   15.3327   -0.8573   -1.5012 C   0  0  0  0  0  0  0  0  0  0  0  0
   13.2767   -3.0094   -0.6368 C   0  0  0  0  0  0  0  0  0  0  0  0
   12.3981   -3.0674   -1.5055 O   0  0  0  0  0  0  0  0  0  0  0  0
    0.0000    0.0000    0.0000 H   0  0  0  0  0  0  0  0  0  0  0  0
    0.0000    0.0000    0.0000 H   0  0  0  0  0  0  0  0  0  0  0  0
    0.0000    0.0000    0.0000 H   0  0  0  0  0  0  0  0  0  0  0  0
    0.0000    0.0000    0.0000 H   0  0  0  0  0  0  0  0  0  0  0  0
    0.0000    0.0000    0.0000 H   0  0  0  0  0  0  0  0  0  0  0  0
    0.0000    0.0000    0.0000 H   0  0  0  0  0  0  0  0  0  0  0  0
    0.0000    0.0000    0.0000 H   0  0  0  0  0  0  0  0  0  0  0  0
    0.0000    0.0000    0.0000 H   0  0  0  0  0  0  0  0  0  0  0  0
    0.0000    0.0000    0.0000 H   0  0  0  0  0  0  0  0  0  0  0  0
    0.0000    0.0000    0.0000 H   0  0  0  0  0  0  0  0  0  0  0  0
    0.0000    0.0000    0.0000 H   0  0  0  0  0  0  0  0  0  0  0  0
    0.0000    0.0000    0.0000 H   0  0  0  0  0  0  0  0  0  0  0  0
    0.0000    0.0000    0.0000 H   0  0  0  0  0  0  0  0  0  0  0  0
    0.0000    0.0000    0.0000 H   0  0  0  0  0  0  0  0  0  0  0  0
    6.9695   -1.5317   -0.3709 N   0  0  0  0  0  0  0  0  0  0  0  0
    6.0262   -2.4838   -0.7880 C   0  0  0  0  0  0  0  0  0  0  0  0
    6.3369   -3.7275   -1.2782 C   0  0  0  0  0  0  0  0  0  0  0  0
    5.3088   -4.5966   -1.6649 C   0  0  0  0  0  0  0  0  0  0  0  0
    3.9834   -4.2411   -1.5686 C   0  0  0  0  0  0  0  0  0  0  0  0
    2.9870   -5.0935   -1.9474 F   0  0  0  0  0  0  0  0  0  0  0  0
    3.6730   -2.9976   -1.0784 C   0  0  0  0  0  0  0  0  0  0  0  0
    4.6933   -2.1530   -0.7019 C   0  0  0  0  0  0  0  0  0  0  0  0
    6.7925   -0.5934    0.0010 H   0  0  0  0  0  0  0  0  0  0  0  0
    7.3732   -4.0001   -1.3514 H   0  0  0  0  0  0  0  0  0  0  0  0
    5.5793   -5.5835   -2.0530 H   0  0  0  0  0  0  0  0  0  0  0  0
    2.6176   -2.6785   -0.9872 H   0  0  0  0  0  0  0  0  0  0  0  0
    4.4131   -1.1562   -0.3101 H   0  0  0  0  0  0  0  0  0  0  0  0
  1  2  1  0
  2  3  1  0
  2 19  1  0
  3  4  1  0
  3  5  2  0
  5  6  1  0
  6  7  1  0
  6 19  1  0
  7  8  2  0
  7 18  1  0
  8  9  1  0
  9 10  2  0
 10 11  1  0
 11 12  1  0
 11 18  2  0
 12 13  2  0
 12 17  1  0
 13 14  1  0
 14 15  2  0
 15 16  1  0
 16 17  2  0
 19 20  2  0
  1 21  1  0
  1 22  1  0
  1 23  1  0
  4 24  1  0
  4 25  1  0
  5 26  1  0
  8 27  1  0
  9 28  1  0
 10 29  1  0
 13 30  1  0
 14 31  1  0
 15 32  1  0
 17 33  1  0
 18 34  1  0
 35 36  1  0
 36 37  2  0
 37 38  1  0
 38 39  2  0
 39 40  1  0
 39 41  1  0
 41 42  2  0
 42 36  1  0
 35 43  1  0
 37 44  1  0
 38 45  1  0
 41 46  1  0
 42 47  1  0
  6 35  1  6
M  CHG  1   5   1
M  END
>  <attachment_point>  (425) 
26

>  <score>  (425) 
<NA>

$$$$
CAT-4j
     RDKit          3D

 49 52  0  0  1  0  0  0  0  0999 V2000
   11.7106   -2.3098    1.2658 C   0  0  0  0  0  0  0  0  0  0  0  0
   13.0313   -2.6523    0.7225 N   0  0  0  0  0  0  0  0  0  0  0  0
   14.2010   -2.6281    1.3773 C   0  0  0  0  0  0  0  0  0  0  0  0
   14.3777   -2.3568    2.6732 N   0  0  0  0  0  0  0  0  0  0  0  0
   15.2217   -2.9197    0.5738 N   0  0  0  0  0  0  0  0  0  0  0  0
   14.7965   -3.2519   -0.7875 C   0  0  1  0  0  0  0  0  0  0  0  0
   15.3794   -2.2443   -1.7949 C   0  0  0  0  0  0  0  0  0  0  0  0
   15.9522   -2.6550   -3.0208 C   0  0  0  0  0  0  0  0  0  0  0  0
   16.4340   -1.6937   -3.9273 C   0  0  0  0  0  0  0  0  0  0  0  0
   16.3364   -0.3224   -3.6308 C   0  0  0  0  0  0  0  0  0  0  0  0
   15.7943    0.1250   -2.4073 C   0  0  0  0  0  0  0  0  0  0  0  0
   15.6711    1.5693   -2.0915 C   0  0  0  0  0  0  0  0  0  0  0  0
   15.3832    2.0354   -0.7903 C   0  0  0  0  0  0  0  0  0  0  0  0
   15.3534    3.4188   -0.5357 C   0  0  0  0  0  0  0  0  0  0  0  0
   15.5968    4.3049   -1.5946 C   0  0  0  0  0  0  0  0  0  0  0  0
   15.8275    3.8920   -2.8511 N   0  0  0  0  0  0  0  0  0  0  0  0
   15.8598    2.5642   -3.0762 C   0  0  0  0  0  0  0  0  0  0  0  0
   15.3327   -0.8573   -1.5012 C   0  0  0  0  0  0  0  0  0  0  0  0
   13.2767   -3.0094   -0.6368 C   0  0  0  0  0  0  0  0  0  0  0  0
   12.3981   -3.0674   -1.5055 O   0  0  0  0  0  0  0  0  0  0  0  0
    0.0000    0.0000    0.0000 H   0  0  0  0  0  0  0  0  0  0  0  0
    0.0000    0.0000    0.0000 H   0  0  0  0  0  0  0  0  0  0  0  0
    0.0000    0.0000    0.0000 H   0  0  0  0  0  0  0  0  0  0  0  0
    0.0000    0.0000    0.0000 H   0  0  0  0  0  0  0  0  0  0  0  0
    0.0000    0.0000    0.0000 H   0  0  0  0  0  0  0  0  0  0  0  0
    0.0000    0.0000    0.0000 H   0  0  0  0  0  0  0  0  0  0  0  0
    0.0000    0.0000    0.0000 H   0  0  0  0  0  0  0  0  0  0  0  0
    0.0000    0.0000    0.0000 H   0  0  0  0  0  0  0  0  0  0  0  0
    0.0000    0.0000    0.0000 H   0  0  0  0  0  0  0  0  0  0  0  0
    0.0000    0.0000    0.0000 H   0  0  0  0  0  0  0  0  0  0  0  0
    0.0000    0.0000    0.0000 H   0  0  0  0  0  0  0  0  0  0  0  0
    0.0000    0.0000    0.0000 H   0  0  0  0  0  0  0  0  0  0  0  0
    0.0000    0.0000    0.0000 H   0  0  0  0  0  0  0  0  0  0  0  0
    0.0000    0.0000    0.0000 H   0  0  0  0  0  0  0  0  0  0  0  0
    6.9169   -1.5202   -0.3681 C   0  0  0  0  0  0  0  0  0  0  0  0
    6.5470   -0.2389   -0.3395 C   0  0  0  0  0  0  0  0  0  0  0  0
    5.1602    0.0306   -0.2659 C   0  0  0  0  0  0  0  0  0  0  0  0
    4.2449   -0.9773   -0.2262 C   0  0  0  0  0  0  0  0  0  0  0  0
    2.8969   -0.6443   -0.1541 O   0  0  0  0  0  0  0  0  0  0  0  0
    2.4547    0.7010   -0.1215 C   0  0  0  0  0  0  0  0  0  0  0  0
    4.6595   -2.2887   -0.2573 C   0  0  0  0  0  0  0  0  0  0  0  0
    3.7789   -3.3056   -0.2195 F   0  0  0  0  0  0  0  0  0  0  0  0
    6.0423   -2.5576   -0.3307 C   0  0  0  0  0  0  0  0  0  0  0  0
    7.2646    0.5728   -0.3704 H   0  0  0  0  0  0  0  0  0  0  0  0
    4.8562    1.0540   -0.2425 H   0  0  0  0  0  0  0  0  0  0  0  0
    1.3602    0.7728   -0.2423 H   0  0  0  0  0  0  0  0  0  0  0  0
    2.7814    1.1541    0.8351 H   0  0  0  0  0  0  0  0  0  0  0  0
    2.9588    1.2210   -0.9687 H   0  0  0  0  0  0  0  0  0  0  0  0
    6.4184   -3.5653   -0.3575 H   0  0  0  0  0  0  0  0  0  0  0  0
  1  2  1  0
  2  3  1  0
  2 19  1  0
  3  4  1  0
  3  5  2  0
  5  6  1  0
  6  7  1  1
  6 19  1  0
  7  8  2  0
  7 18  1  0
  8  9  1  0
  9 10  2  0
 10 11  1  0
 11 12  1  0
 11 18  2  0
 12 13  2  0
 12 17  1  0
 13 14  1  0
 14 15  2  0
 15 16  1  0
 16 17  2  0
 19 20  2  0
  1 21  1  0
  1 22  1  0
  1 23  1  0
  4 24  1  0
  4 25  1  0
  5 26  1  0
  8 27  1  0
  9 28  1  0
 10 29  1  0
 13 30  1  0
 14 31  1  0
 15 32  1  0
 17 33  1  0
 18 34  1  0
 35 36  2  0
 36 37  1  0
 37 38  2  0
 38 39  1  0
 39 40  1  0
 38 41  1  0
 41 42  1  0
 41 43  2  0
 43 35  1  0
 36 44  1  0
 37 45  1  0
 40 46  1  0
 40 47  1  0
 40 48  1  0
 43 49  1  0
  6 35  1  0
M  CHG  1   5   1
M  END
>  <attachment_point>  (426) 
26

>  <score>  (426) 
<NA>

$$$$
CAT-4j
     RDKit          3D

 47 49  0  0  1  0  0  0  0  0999 V2000
   11.7106   -2.3098    1.2658 C   0  0  0  0  0  0  0  0  0  0  0  0
   13.0313   -2.6523    0.7225 N   0  0  0  0  0  0  0  0  0  0  0  0
   14.2010   -2.6281    1.3773 C   0  0  0  0  0  0  0  0  0  0  0  0
   14.3777   -2.3568    2.6732 N   0  0  0  0  0  0  0  0  0  0  0  0
   15.2217   -2.9197    0.5738 N   0  0  0  0  0  0  0  0  0  0  0  0
   14.7965   -3.2519   -0.7875 C   0  0  1  0  0  0  0  0  0  0  0  0
   15.3794   -2.2443   -1.7949 C   0  0  0  0  0  0  0  0  0  0  0  0
   15.9522   -2.6550   -3.0208 C   0  0  0  0  0  0  0  0  0  0  0  0
   16.4340   -1.6937   -3.9273 C   0  0  0  0  0  0  0  0  0  0  0  0
   16.3364   -0.3224   -3.6308 C   0  0  0  0  0  0  0  0  0  0  0  0
   15.7943    0.1250   -2.4073 C   0  0  0  0  0  0  0  0  0  0  0  0
   15.6711    1.5693   -2.0915 C   0  0  0  0  0  0  0  0  0  0  0  0
   15.3832    2.0354   -0.7903 C   0  0  0  0  0  0  0  0  0  0  0  0
   15.3534    3.4188   -0.5357 C   0  0  0  0  0  0  0  0  0  0  0  0
   15.5968    4.3049   -1.5946 C   0  0  0  0  0  0  0  0  0  0  0  0
   15.8275    3.8920   -2.8511 N   0  0  0  0  0  0  0  0  0  0  0  0
   15.8598    2.5642   -3.0762 C   0  0  0  0  0  0  0  0  0  0  0  0
   15.3327   -0.8573   -1.5012 C   0  0  0  0  0  0  0  0  0  0  0  0
   13.2767   -3.0094   -0.6368 C   0  0  0  0  0  0  0  0  0  0  0  0
   12.3981   -3.0674   -1.5055 O   0  0  0  0  0  0  0  0  0  0  0  0
    0.0000    0.0000    0.0000 H   0  0  0  0  0  0  0  0  0  0  0  0
    0.0000    0.0000    0.0000 H   0  0  0  0  0  0  0  0  0  0  0  0
    0.0000    0.0000    0.0000 H   0  0  0  0  0  0  0  0  0  0  0  0
    0.0000    0.0000    0.0000 H   0  0  0  0  0  0  0  0  0  0  0  0
    0.0000    0.0000    0.0000 H   0  0  0  0  0  0  0  0  0  0  0  0
    0.0000    0.0000    0.0000 H   0  0  0  0  0  0  0  0  0  0  0  0
    0.0000    0.0000    0.0000 H   0  0  0  0  0  0  0  0  0  0  0  0
    0.0000    0.0000    0.0000 H   0  0  0  0  0  0  0  0  0  0  0  0
    0.0000    0.0000    0.0000 H   0  0  0  0  0  0  0  0  0  0  0  0
    0.0000    0.0000    0.0000 H   0  0  0  0  0  0  0  0  0  0  0  0
    0.0000    0.0000    0.0000 H   0  0  0  0  0  0  0  0  0  0  0  0
    0.0000    0.0000    0.0000 H   0  0  0  0  0  0  0  0  0  0  0  0
    0.0000    0.0000    0.0000 H   0  0  0  0  0  0  0  0  0  0  0  0
    0.0000    0.0000    0.0000 H   0  0  0  0  0  0  0  0  0  0  0  0
    6.9130   -1.5193   -0.3679 C   0  0  0  0  0  0  0  0  0  0  0  0
    6.4782   -1.3778    0.9928 C   0  0  0  0  0  0  0  0  0  0  0  0
    6.3740   -1.4398   -1.4765 N   0  0  0  0  0  0  0  0  0  0  0  0
    6.9235   -1.6024   -2.7268 N   0  0  0  0  0  0  0  0  0  0  0  0
    6.2851   -0.9880   -3.8431 C   0  0  0  0  0  0  0  0  0  0  0  0
    6.8040   -1.1190   -5.1605 N   0  0  0  0  0  0  0  0  0  0  0  0
    4.9151   -0.0995   -3.6432 S   0  0  0  0  0  0  0  0  0  0  0  0
    6.3587   -2.4050    1.4445 H   0  0  0  0  0  0  0  0  0  0  0  0
    5.5132   -0.8489    1.0154 H   0  0  0  0  0  0  0  0  0  0  0  0
    7.2388   -0.8017    1.5796 H   0  0  0  0  0  0  0  0  0  0  0  0
    7.7940   -2.1581   -2.9084 H   0  0  0  0  0  0  0  0  0  0  0  0
    7.6018   -0.5118   -5.4449 H   0  0  0  0  0  0  0  0  0  0  0  0
    6.4353   -1.7889   -5.8675 H   0  0  0  0  0  0  0  0  0  0  0  0
  1  2  1  0
  2  3  1  0
  2 19  1  0
  3  4  1  0
  3  5  2  0
  5  6  1  0
  6  7  1  1
  6 19  1  0
  7  8  2  0
  7 18  1  0
  8  9  1  0
  9 10  2  0
 10 11  1  0
 11 12  1  0
 11 18  2  0
 12 13  2  0
 12 17  1  0
 13 14  1  0
 14 15  2  0
 15 16  1  0
 16 17  2  0
 19 20  2  0
  1 21  1  0
  1 22  1  0
  1 23  1  0
  4 24  1  0
  4 25  1  0
  5 26  1  0
  8 27  1  0
  9 28  1  0
 10 29  1  0
 13 30  1  0
 14 31  1  0
 15 32  1  0
 17 33  1  0
 18 34  1  0
 35 36  1  0
 35 37  2  3
 37 38  1  0
 38 39  1  0
 39 40  1  0
 39 41  2  0
 36 42  1  0
 36 43  1  0
 36 44  1  0
 38 45  1  0
 40 46  1  0
 40 47  1  0
  6 35  1  0
M  CHG  1   5   1
M  END
>  <attachment_point>  (427) 
26

>  <score>  (427) 
<NA>

$$$$
CAT-4j
     RDKit          3D

 44 47  0  0  1  0  0  0  0  0999 V2000
   11.7106   -2.3098    1.2658 C   0  0  0  0  0  0  0  0  0  0  0  0
   13.0313   -2.6523    0.7225 N   0  0  0  0  0  0  0  0  0  0  0  0
   14.2010   -2.6281    1.3773 C   0  0  0  0  0  0  0  0  0  0  0  0
   14.3777   -2.3568    2.6732 N   0  0  0  0  0  0  0  0  0  0  0  0
   15.2217   -2.9197    0.5738 N   0  0  0  0  0  0  0  0  0  0  0  0
   14.7965   -3.2519   -0.7875 C   0  0  1  0  0  0  0  0  0  0  0  0
   15.3794   -2.2443   -1.7949 C   0  0  0  0  0  0  0  0  0  0  0  0
   15.9522   -2.6550   -3.0208 C   0  0  0  0  0  0  0  0  0  0  0  0
   16.4340   -1.6937   -3.9273 C   0  0  0  0  0  0  0  0  0  0  0  0
   16.3364   -0.3224   -3.6308 C   0  0  0  0  0  0  0  0  0  0  0  0
   15.7943    0.1250   -2.4073 C   0  0  0  0  0  0  0  0  0  0  0  0
   15.6711    1.5693   -2.0915 C   0  0  0  0  0  0  0  0  0  0  0  0
   15.3832    2.0354   -0.7903 C   0  0  0  0  0  0  0  0  0  0  0  0
   15.3534    3.4188   -0.5357 C   0  0  0  0  0  0  0  0  0  0  0  0
   15.5968    4.3049   -1.5946 C   0  0  0  0  0  0  0  0  0  0  0  0
   15.8275    3.8920   -2.8511 N   0  0  0  0  0  0  0  0  0  0  0  0
   15.8598    2.5642   -3.0762 C   0  0  0  0  0  0  0  0  0  0  0  0
   15.3327   -0.8573   -1.5012 C   0  0  0  0  0  0  0  0  0  0  0  0
   13.2767   -3.0094   -0.6368 C   0  0  0  0  0  0  0  0  0  0  0  0
   12.3981   -3.0674   -1.5055 O   0  0  0  0  0  0  0  0  0  0  0  0
    0.0000    0.0000    0.0000 H   0  0  0  0  0  0  0  0  0  0  0  0
    0.0000    0.0000    0.0000 H   0  0  0  0  0  0  0  0  0  0  0  0
    0.0000    0.0000    0.0000 H   0  0  0  0  0  0  0  0  0  0  0  0
    0.0000    0.0000    0.0000 H   0  0  0  0  0  0  0  0  0  0  0  0
    0.0000    0.0000    0.0000 H   0  0  0  0  0  0  0  0  0  0  0  0
    0.0000    0.0000    0.0000 H   0  0  0  0  0  0  0  0  0  0  0  0
    0.0000    0.0000    0.0000 H   0  0  0  0  0  0  0  0  0  0  0  0
    0.0000    0.0000    0.0000 H   0  0  0  0  0  0  0  0  0  0  0  0
    0.0000    0.0000    0.0000 H   0  0  0  0  0  0  0  0  0  0  0  0
    0.0000    0.0000    0.0000 H   0  0  0  0  0  0  0  0  0  0  0  0
    0.0000    0.0000    0.0000 H   0  0  0  0  0  0  0  0  0  0  0  0
    0.0000    0.0000    0.0000 H   0  0  0  0  0  0  0  0  0  0  0  0
    0.0000    0.0000    0.0000 H   0  0  0  0  0  0  0  0  0  0  0  0
    0.0000    0.0000    0.0000 H   0  0  0  0  0  0  0  0  0  0  0  0
    6.9956   -1.5375   -0.3723 C   0  0  0  0  0  0  0  0  0  0  0  0
    6.6173   -0.3855   -0.0369 O   0  0  0  0  0  0  0  0  0  0  0  0
    5.9554   -2.5306   -0.6773 C   0  0  0  0  0  0  0  0  0  0  0  0
    6.2257   -3.8288   -1.0571 C   0  0  0  0  0  0  0  0  0  0  0  0
    5.0017   -4.4362   -1.2504 C   0  0  0  0  0  0  0  0  0  0  0  0
    4.0375   -3.4829   -0.9804 C   0  0  0  0  0  0  0  0  0  0  0  0
    4.6553   -2.3742   -0.6462 O   0  0  0  0  0  0  0  0  0  0  0  0
    7.1643   -4.3280   -1.1934 H   0  0  0  0  0  0  0  0  0  0  0  0
    4.7986   -5.4652   -1.5563 H   0  0  0  0  0  0  0  0  0  0  0  0
    2.9500   -3.6320   -1.0370 H   0  0  0  0  0  0  0  0  0  0  0  0
  1  2  1  0
  2  3  1  0
  2 19  1  0
  3  4  1  0
  3  5  2  0
  5  6  1  0
  6  7  1  0
  6 19  1  0
  7  8  2  0
  7 18  1  0
  8  9  1  0
  9 10  2  0
 10 11  1  0
 11 12  1  0
 11 18  2  0
 12 13  2  0
 12 17  1  0
 13 14  1  0
 14 15  2  0
 15 16  1  0
 16 17  2  0
 19 20  2  0
  1 21  1  0
  1 22  1  0
  1 23  1  0
  4 24  1  0
  4 25  1  0
  5 26  1  0
  8 27  1  0
  9 28  1  0
 10 29  1  0
 13 30  1  0
 14 31  1  0
 15 32  1  0
 17 33  1  0
 18 34  1  0
 35 36  2  0
 35 37  1  0
 37 38  2  0
 38 39  1  0
 39 40  2  0
 40 41  1  0
 41 37  1  0
 38 42  1  0
 39 43  1  0
 40 44  1  0
  6 35  1  6
M  CHG  1   5   1
M  END
>  <attachment_point>  (428) 
26

>  <score>  (428) 
<NA>

$$$$
CAT-4j
     RDKit          3D

 49 52  0  0  1  0  0  0  0  0999 V2000
   11.7106   -2.3098    1.2658 C   0  0  0  0  0  0  0  0  0  0  0  0
   13.0313   -2.6523    0.7225 N   0  0  0  0  0  0  0  0  0  0  0  0
   14.2010   -2.6281    1.3773 C   0  0  0  0  0  0  0  0  0  0  0  0
   14.3777   -2.3568    2.6732 N   0  0  0  0  0  0  0  0  0  0  0  0
   15.2217   -2.9197    0.5738 N   0  0  0  0  0  0  0  0  0  0  0  0
   14.7965   -3.2519   -0.7875 C   0  0  1  0  0  0  0  0  0  0  0  0
   15.3794   -2.2443   -1.7949 C   0  0  0  0  0  0  0  0  0  0  0  0
   15.9522   -2.6550   -3.0208 C   0  0  0  0  0  0  0  0  0  0  0  0
   16.4340   -1.6937   -3.9273 C   0  0  0  0  0  0  0  0  0  0  0  0
   16.3364   -0.3224   -3.6308 C   0  0  0  0  0  0  0  0  0  0  0  0
   15.7943    0.1250   -2.4073 C   0  0  0  0  0  0  0  0  0  0  0  0
   15.6711    1.5693   -2.0915 C   0  0  0  0  0  0  0  0  0  0  0  0
   15.3832    2.0354   -0.7903 C   0  0  0  0  0  0  0  0  0  0  0  0
   15.3534    3.4188   -0.5357 C   0  0  0  0  0  0  0  0  0  0  0  0
   15.5968    4.3049   -1.5946 C   0  0  0  0  0  0  0  0  0  0  0  0
   15.8275    3.8920   -2.8511 N   0  0  0  0  0  0  0  0  0  0  0  0
   15.8598    2.5642   -3.0762 C   0  0  0  0  0  0  0  0  0  0  0  0
   15.3327   -0.8573   -1.5012 C   0  0  0  0  0  0  0  0  0  0  0  0
   13.2767   -3.0094   -0.6368 C   0  0  0  0  0  0  0  0  0  0  0  0
   12.3981   -3.0674   -1.5055 O   0  0  0  0  0  0  0  0  0  0  0  0
    0.0000    0.0000    0.0000 H   0  0  0  0  0  0  0  0  0  0  0  0
    0.0000    0.0000    0.0000 H   0  0  0  0  0  0  0  0  0  0  0  0
    0.0000    0.0000    0.0000 H   0  0  0  0  0  0  0  0  0  0  0  0
    0.0000    0.0000    0.0000 H   0  0  0  0  0  0  0  0  0  0  0  0
    0.0000    0.0000    0.0000 H   0  0  0  0  0  0  0  0  0  0  0  0
    0.0000    0.0000    0.0000 H   0  0  0  0  0  0  0  0  0  0  0  0
    0.0000    0.0000    0.0000 H   0  0  0  0  0  0  0  0  0  0  0  0
    0.0000    0.0000    0.0000 H   0  0  0  0  0  0  0  0  0  0  0  0
    0.0000    0.0000    0.0000 H   0  0  0  0  0  0  0  0  0  0  0  0
    0.0000    0.0000    0.0000 H   0  0  0  0  0  0  0  0  0  0  0  0
    0.0000    0.0000    0.0000 H   0  0  0  0  0  0  0  0  0  0  0  0
    0.0000    0.0000    0.0000 H   0  0  0  0  0  0  0  0  0  0  0  0
    0.0000    0.0000    0.0000 H   0  0  0  0  0  0  0  0  0  0  0  0
    0.0000    0.0000    0.0000 H   0  0  0  0  0  0  0  0  0  0  0  0
    6.9951   -1.5373   -0.3723 C   0  0  2  0  0  0  0  0  0  0  0  0
    6.5233   -2.0348    0.8389 O   0  0  0  0  0  0  0  0  0  0  0  0
    6.2719   -2.1045   -1.5333 C   0  0  0  0  0  0  0  0  0  0  0  0
    7.0050   -2.5338   -2.6284 C   0  0  0  0  0  0  0  0  0  0  0  0
    6.3676   -3.0650   -3.7226 C   0  0  0  0  0  0  0  0  0  0  0  0
    4.9913   -3.1812   -3.7532 C   0  0  0  0  0  0  0  0  0  0  0  0
    4.2472   -2.7603   -2.6751 C   0  0  0  0  0  0  0  0  0  0  0  0
    4.8979   -2.2246   -1.5732 C   0  0  0  0  0  0  0  0  0  0  0  0
    6.9047   -0.4317   -0.3266 H   0  0  0  0  0  0  0  0  0  0  0  0
    5.5599   -1.8188    0.8832 H   0  0  0  0  0  0  0  0  0  0  0  0
    8.0898   -2.4339   -2.5856 H   0  0  0  0  0  0  0  0  0  0  0  0
    6.9972   -3.3831   -4.5485 H   0  0  0  0  0  0  0  0  0  0  0  0
    4.5305   -3.6005   -4.6240 H   0  0  0  0  0  0  0  0  0  0  0  0
    3.1539   -2.8360   -2.6618 H   0  0  0  0  0  0  0  0  0  0  0  0
    4.2965   -1.8910   -0.7168 H   0  0  0  0  0  0  0  0  0  0  0  0
  1  2  1  0
  2  3  1  0
  2 19  1  0
  3  4  1  0
  3  5  2  0
  5  6  1  0
  6  7  1  1
  6 19  1  0
  7  8  2  0
  7 18  1  0
  8  9  1  0
  9 10  2  0
 10 11  1  0
 11 12  1  0
 11 18  2  0
 12 13  2  0
 12 17  1  0
 13 14  1  0
 14 15  2  0
 15 16  1  0
 16 17  2  0
 19 20  2  0
  1 21  1  0
  1 22  1  0
  1 23  1  0
  4 24  1  0
  4 25  1  0
  5 26  1  0
  8 27  1  0
  9 28  1  0
 10 29  1  0
 13 30  1  0
 14 31  1  0
 15 32  1  0
 17 33  1  0
 18 34  1  0
 35 36  1  0
 35 37  1  0
 37 38  2  0
 38 39  1  0
 39 40  2  0
 40 41  1  0
 41 42  2  0
 42 37  1  0
 35 43  1  6
 36 44  1  0
 38 45  1  0
 39 46  1  0
 40 47  1  0
 41 48  1  0
 42 49  1  0
  6 35  1  0
M  CHG  1   5   1
M  END
>  <attachment_point>  (429) 
26

>  <score>  (429) 
<NA>

$$$$
CAT-4j
     RDKit          3D

 49 51  0  0  1  0  0  0  0  0999 V2000
   11.7106   -2.3098    1.2658 C   0  0  0  0  0  0  0  0  0  0  0  0
   13.0313   -2.6523    0.7225 N   0  0  0  0  0  0  0  0  0  0  0  0
   14.2010   -2.6281    1.3773 C   0  0  0  0  0  0  0  0  0  0  0  0
   14.3777   -2.3568    2.6732 N   0  0  0  0  0  0  0  0  0  0  0  0
   15.2217   -2.9197    0.5738 N   0  0  0  0  0  0  0  0  0  0  0  0
   14.7965   -3.2519   -0.7875 C   0  0  1  0  0  0  0  0  0  0  0  0
   15.3794   -2.2443   -1.7949 C   0  0  0  0  0  0  0  0  0  0  0  0
   15.9522   -2.6550   -3.0208 C   0  0  0  0  0  0  0  0  0  0  0  0
   16.4340   -1.6937   -3.9273 C   0  0  0  0  0  0  0  0  0  0  0  0
   16.3364   -0.3224   -3.6308 C   0  0  0  0  0  0  0  0  0  0  0  0
   15.7943    0.1250   -2.4073 C   0  0  0  0  0  0  0  0  0  0  0  0
   15.6711    1.5693   -2.0915 C   0  0  0  0  0  0  0  0  0  0  0  0
   15.3832    2.0354   -0.7903 C   0  0  0  0  0  0  0  0  0  0  0  0
   15.3534    3.4188   -0.5357 C   0  0  0  0  0  0  0  0  0  0  0  0
   15.5968    4.3049   -1.5946 C   0  0  0  0  0  0  0  0  0  0  0  0
   15.8275    3.8920   -2.8511 N   0  0  0  0  0  0  0  0  0  0  0  0
   15.8598    2.5642   -3.0762 C   0  0  0  0  0  0  0  0  0  0  0  0
   15.3327   -0.8573   -1.5012 C   0  0  0  0  0  0  0  0  0  0  0  0
   13.2767   -3.0094   -0.6368 C   0  0  0  0  0  0  0  0  0  0  0  0
   12.3981   -3.0674   -1.5055 O   0  0  0  0  0  0  0  0  0  0  0  0
    0.0000    0.0000    0.0000 H   0  0  0  0  0  0  0  0  0  0  0  0
    0.0000    0.0000    0.0000 H   0  0  0  0  0  0  0  0  0  0  0  0
    0.0000    0.0000    0.0000 H   0  0  0  0  0  0  0  0  0  0  0  0
    0.0000    0.0000    0.0000 H   0  0  0  0  0  0  0  0  0  0  0  0
    0.0000    0.0000    0.0000 H   0  0  0  0  0  0  0  0  0  0  0  0
    0.0000    0.0000    0.0000 H   0  0  0  0  0  0  0  0  0  0  0  0
    0.0000    0.0000    0.0000 H   0  0  0  0  0  0  0  0  0  0  0  0
    0.0000    0.0000    0.0000 H   0  0  0  0  0  0  0  0  0  0  0  0
    0.0000    0.0000    0.0000 H   0  0  0  0  0  0  0  0  0  0  0  0
    0.0000    0.0000    0.0000 H   0  0  0  0  0  0  0  0  0  0  0  0
    0.0000    0.0000    0.0000 H   0  0  0  0  0  0  0  0  0  0  0  0
    0.0000    0.0000    0.0000 H   0  0  0  0  0  0  0  0  0  0  0  0
    0.0000    0.0000    0.0000 H   0  0  0  0  0  0  0  0  0  0  0  0
    0.0000    0.0000    0.0000 H   0  0  0  0  0  0  0  0  0  0  0  0
    7.0466   -1.5487   -0.3750 N   0  0  0  0  0  0  0  0  0  0  0  0
    6.6213   -0.2798   -0.9266 C   0  0  0  0  0  0  0  0  0  0  0  0
    7.2832    0.8926   -0.2488 C   0  0  0  0  0  0  0  0  0  0  0  0
    8.7837    0.8586   -0.3734 C   0  0  0  0  0  0  0  0  0  0  0  0
    9.3212    2.0881    0.3481 C   0  0  0  0  0  0  0  0  0  0  0  0
    6.4657   -2.2833   -0.8661 H   0  0  0  0  0  0  0  0  0  0  0  0
    6.8622   -0.3001   -2.0095 H   0  0  0  0  0  0  0  0  0  0  0  0
    5.5313   -0.1846   -0.7506 H   0  0  0  0  0  0  0  0  0  0  0  0
    6.9285    1.8068   -0.7707 H   0  0  0  0  0  0  0  0  0  0  0  0
    6.9527    0.9484    0.8002 H   0  0  0  0  0  0  0  0  0  0  0  0
    9.0640    0.9696   -1.4360 H   0  0  0  0  0  0  0  0  0  0  0  0
    9.2266   -0.0380    0.0927 H   0  0  0  0  0  0  0  0  0  0  0  0
    8.9201    3.0151   -0.1157 H   0  0  0  0  0  0  0  0  0  0  0  0
   10.4315    2.1521    0.2255 H   0  0  0  0  0  0  0  0  0  0  0  0
    9.0498    2.0177    1.4347 H   0  0  0  0  0  0  0  0  0  0  0  0
  1  2  1  0
  2  3  1  0
  2 19  1  0
  3  4  1  0
  3  5  2  0
  5  6  1  0
  6  7  1  0
  6 19  1  0
  7  8  2  0
  7 18  1  0
  8  9  1  0
  9 10  2  0
 10 11  1  0
 11 12  1  0
 11 18  2  0
 12 13  2  0
 12 17  1  0
 13 14  1  0
 14 15  2  0
 15 16  1  0
 16 17  2  0
 19 20  2  0
  1 21  1  0
  1 22  1  0
  1 23  1  0
  4 24  1  0
  4 25  1  0
  5 26  1  0
  8 27  1  0
  9 28  1  0
 10 29  1  0
 13 30  1  0
 14 31  1  0
 15 32  1  0
 17 33  1  0
 18 34  1  0
 35 36  1  0
 36 37  1  0
 37 38  1  0
 38 39  1  0
 35 40  1  0
 36 41  1  0
 36 42  1  0
 37 43  1  0
 37 44  1  0
 38 45  1  0
 38 46  1  0
 39 47  1  0
 39 48  1  0
 39 49  1  0
  6 35  1  6
M  CHG  1   5   1
M  END
>  <attachment_point>  (430) 
26

>  <score>  (430) 
<NA>

$$$$
CAT-4j
     RDKit          3D

 38 40  0  0  1  0  0  0  0  0999 V2000
   11.7106   -2.3098    1.2658 C   0  0  0  0  0  0  0  0  0  0  0  0
   13.0313   -2.6523    0.7225 N   0  0  0  0  0  0  0  0  0  0  0  0
   14.2010   -2.6281    1.3773 C   0  0  0  0  0  0  0  0  0  0  0  0
   14.3777   -2.3568    2.6732 N   0  0  0  0  0  0  0  0  0  0  0  0
   15.2217   -2.9197    0.5738 N   0  0  0  0  0  0  0  0  0  0  0  0
   14.7965   -3.2519   -0.7875 C   0  0  1  0  0  0  0  0  0  0  0  0
   15.3794   -2.2443   -1.7949 C   0  0  0  0  0  0  0  0  0  0  0  0
   15.9522   -2.6550   -3.0208 C   0  0  0  0  0  0  0  0  0  0  0  0
   16.4340   -1.6937   -3.9273 C   0  0  0  0  0  0  0  0  0  0  0  0
   16.3364   -0.3224   -3.6308 C   0  0  0  0  0  0  0  0  0  0  0  0
   15.7943    0.1250   -2.4073 C   0  0  0  0  0  0  0  0  0  0  0  0
   15.6711    1.5693   -2.0915 C   0  0  0  0  0  0  0  0  0  0  0  0
   15.3832    2.0354   -0.7903 C   0  0  0  0  0  0  0  0  0  0  0  0
   15.3534    3.4188   -0.5357 C   0  0  0  0  0  0  0  0  0  0  0  0
   15.5968    4.3049   -1.5946 C   0  0  0  0  0  0  0  0  0  0  0  0
   15.8275    3.8920   -2.8511 N   0  0  0  0  0  0  0  0  0  0  0  0
   15.8598    2.5642   -3.0762 C   0  0  0  0  0  0  0  0  0  0  0  0
   15.3327   -0.8573   -1.5012 C   0  0  0  0  0  0  0  0  0  0  0  0
   13.2767   -3.0094   -0.6368 C   0  0  0  0  0  0  0  0  0  0  0  0
   12.3981   -3.0674   -1.5055 O   0  0  0  0  0  0  0  0  0  0  0  0
    0.0000    0.0000    0.0000 H   0  0  0  0  0  0  0  0  0  0  0  0
    0.0000    0.0000    0.0000 H   0  0  0  0  0  0  0  0  0  0  0  0
    0.0000    0.0000    0.0000 H   0  0  0  0  0  0  0  0  0  0  0  0
    0.0000    0.0000    0.0000 H   0  0  0  0  0  0  0  0  0  0  0  0
    0.0000    0.0000    0.0000 H   0  0  0  0  0  0  0  0  0  0  0  0
    0.0000    0.0000    0.0000 H   0  0  0  0  0  0  0  0  0  0  0  0
    0.0000    0.0000    0.0000 H   0  0  0  0  0  0  0  0  0  0  0  0
    0.0000    0.0000    0.0000 H   0  0  0  0  0  0  0  0  0  0  0  0
    0.0000    0.0000    0.0000 H   0  0  0  0  0  0  0  0  0  0  0  0
    0.0000    0.0000    0.0000 H   0  0  0  0  0  0  0  0  0  0  0  0
    0.0000    0.0000    0.0000 H   0  0  0  0  0  0  0  0  0  0  0  0
    0.0000    0.0000    0.0000 H   0  0  0  0  0  0  0  0  0  0  0  0
    0.0000    0.0000    0.0000 H   0  0  0  0  0  0  0  0  0  0  0  0
    0.0000    0.0000    0.0000 H   0  0  0  0  0  0  0  0  0  0  0  0
    7.0696   -1.5537   -0.3763 N   0  0  0  0  0  0  0  0  0  0  0  0
    6.3716   -1.6035    0.6605 N   0  0  0  0  0  4  0  0  0  0  0  0
    5.3648   -1.9298    1.3017 N   0  0  0  0  0  0  0  0  0  0  0  0
    5.3735   -2.7645    1.9000 H   0  0  0  0  0  0  0  0  0  0  0  0
  1  2  1  0
  2  3  1  0
  2 19  1  0
  3  4  1  0
  3  5  2  0
  5  6  1  0
  6  7  1  0
  6 19  1  0
  7  8  2  0
  7 18  1  0
  8  9  1  0
  9 10  2  0
 10 11  1  0
 11 12  1  0
 11 18  2  0
 12 13  2  0
 12 17  1  0
 13 14  1  0
 14 15  2  0
 15 16  1  0
 16 17  2  0
 19 20  2  0
  1 21  1  0
  1 22  1  0
  1 23  1  0
  4 24  1  0
  4 25  1  0
  5 26  1  0
  8 27  1  0
  9 28  1  0
 10 29  1  0
 13 30  1  0
 14 31  1  0
 15 32  1  0
 17 33  1  0
 18 34  1  0
 35 36  2  0
 36 37  2  0
 37 38  1  0
  6 35  1  6
M  CHG  2   5   1  36   1
M  END
>  <attachment_point>  (431) 
26

>  <score>  (431) 
<NA>

$$$$
CAT-4j
     RDKit          3D

 48 51  0  0  1  0  0  0  0  0999 V2000
   11.7106   -2.3098    1.2658 C   0  0  0  0  0  0  0  0  0  0  0  0
   13.0313   -2.6523    0.7225 N   0  0  0  0  0  0  0  0  0  0  0  0
   14.2010   -2.6281    1.3773 C   0  0  0  0  0  0  0  0  0  0  0  0
   14.3777   -2.3568    2.6732 N   0  0  0  0  0  0  0  0  0  0  0  0
   15.2217   -2.9197    0.5738 N   0  0  0  0  0  0  0  0  0  0  0  0
   14.7965   -3.2519   -0.7875 C   0  0  1  0  0  0  0  0  0  0  0  0
   15.3794   -2.2443   -1.7949 C   0  0  0  0  0  0  0  0  0  0  0  0
   15.9522   -2.6550   -3.0208 C   0  0  0  0  0  0  0  0  0  0  0  0
   16.4340   -1.6937   -3.9273 C   0  0  0  0  0  0  0  0  0  0  0  0
   16.3364   -0.3224   -3.6308 C   0  0  0  0  0  0  0  0  0  0  0  0
   15.7943    0.1250   -2.4073 C   0  0  0  0  0  0  0  0  0  0  0  0
   15.6711    1.5693   -2.0915 C   0  0  0  0  0  0  0  0  0  0  0  0
   15.3832    2.0354   -0.7903 C   0  0  0  0  0  0  0  0  0  0  0  0
   15.3534    3.4188   -0.5357 C   0  0  0  0  0  0  0  0  0  0  0  0
   15.5968    4.3049   -1.5946 C   0  0  0  0  0  0  0  0  0  0  0  0
   15.8275    3.8920   -2.8511 N   0  0  0  0  0  0  0  0  0  0  0  0
   15.8598    2.5642   -3.0762 C   0  0  0  0  0  0  0  0  0  0  0  0
   15.3327   -0.8573   -1.5012 C   0  0  0  0  0  0  0  0  0  0  0  0
   13.2767   -3.0094   -0.6368 C   0  0  0  0  0  0  0  0  0  0  0  0
   12.3981   -3.0674   -1.5055 O   0  0  0  0  0  0  0  0  0  0  0  0
    0.0000    0.0000    0.0000 H   0  0  0  0  0  0  0  0  0  0  0  0
    0.0000    0.0000    0.0000 H   0  0  0  0  0  0  0  0  0  0  0  0
    0.0000    0.0000    0.0000 H   0  0  0  0  0  0  0  0  0  0  0  0
    0.0000    0.0000    0.0000 H   0  0  0  0  0  0  0  0  0  0  0  0
    0.0000    0.0000    0.0000 H   0  0  0  0  0  0  0  0  0  0  0  0
    0.0000    0.0000    0.0000 H   0  0  0  0  0  0  0  0  0  0  0  0
    0.0000    0.0000    0.0000 H   0  0  0  0  0  0  0  0  0  0  0  0
    0.0000    0.0000    0.0000 H   0  0  0  0  0  0  0  0  0  0  0  0
    0.0000    0.0000    0.0000 H   0  0  0  0  0  0  0  0  0  0  0  0
    0.0000    0.0000    0.0000 H   0  0  0  0  0  0  0  0  0  0  0  0
    0.0000    0.0000    0.0000 H   0  0  0  0  0  0  0  0  0  0  0  0
    0.0000    0.0000    0.0000 H   0  0  0  0  0  0  0  0  0  0  0  0
    0.0000    0.0000    0.0000 H   0  0  0  0  0  0  0  0  0  0  0  0
    0.0000    0.0000    0.0000 H   0  0  0  0  0  0  0  0  0  0  0  0
    6.8907   -1.5144   -0.3667 O   0  0  0  0  0  0  0  0  0  0  0  0
    6.7666   -1.7116   -1.7623 C   0  0  0  0  0  0  0  0  0  0  0  0
    7.1511   -3.0917   -2.1287 C   0  0  0  0  0  0  0  0  0  0  0  0
    7.5536   -3.9573   -1.1498 C   0  0  0  0  0  0  0  0  0  0  0  0
    7.9152   -5.2541   -1.4923 C   0  0  0  0  0  0  0  0  0  0  0  0
    7.8546   -5.6171   -2.8003 C   0  0  0  0  0  0  0  0  0  0  0  0
    7.4510   -4.7460   -3.7749 C   0  0  0  0  0  0  0  0  0  0  0  0
    7.1077   -3.4953   -3.4033 N   0  0  0  0  0  0  0  0  0  0  0  0
    5.7297   -1.4901   -2.0013 H   0  0  0  0  0  0  0  0  0  0  0  0
    7.4586   -1.0331   -2.3179 H   0  0  0  0  0  0  0  0  0  0  0  0
    7.6176   -3.7142   -0.0983 H   0  0  0  0  0  0  0  0  0  0  0  0
    8.2409   -5.9769   -0.7524 H   0  0  0  0  0  0  0  0  0  0  0  0
    8.1229   -6.6237   -3.1586 H   0  0  0  0  0  0  0  0  0  0  0  0
    7.4075   -5.0567   -4.8303 H   0  0  0  0  0  0  0  0  0  0  0  0
  1  2  1  0
  2  3  1  0
  2 19  1  0
  3  4  1  0
  3  5  2  0
  5  6  1  0
  6  7  1  0
  6 19  1  0
  7  8  2  0
  7 18  1  0
  8  9  1  0
  9 10  2  0
 10 11  1  0
 11 12  1  0
 11 18  2  0
 12 13  2  0
 12 17  1  0
 13 14  1  0
 14 15  2  0
 15 16  1  0
 16 17  2  0
 19 20  2  0
  1 21  1  0
  1 22  1  0
  1 23  1  0
  4 24  1  0
  4 25  1  0
  5 26  1  0
  8 27  1  0
  9 28  1  0
 10 29  1  0
 13 30  1  0
 14 31  1  0
 15 32  1  0
 17 33  1  0
 18 34  1  0
 35 36  1  0
 36 37  1  0
 37 38  2  0
 38 39  1  0
 39 40  2  0
 40 41  1  0
 41 42  2  0
 42 37  1  0
 36 43  1  0
 36 44  1  0
 38 45  1  0
 39 46  1  0
 40 47  1  0
 41 48  1  0
  6 35  1  6
M  CHG  1   5   1
M  END
>  <attachment_point>  (432) 
26

>  <score>  (432) 
<NA>

$$$$
CAT-4j
     RDKit          3D

 52 55  0  0  1  0  0  0  0  0999 V2000
   11.7106   -2.3098    1.2658 C   0  0  0  0  0  0  0  0  0  0  0  0
   13.0313   -2.6523    0.7225 N   0  0  0  0  0  0  0  0  0  0  0  0
   14.2010   -2.6281    1.3773 C   0  0  0  0  0  0  0  0  0  0  0  0
   14.3777   -2.3568    2.6732 N   0  0  0  0  0  0  0  0  0  0  0  0
   15.2217   -2.9197    0.5738 N   0  0  0  0  0  0  0  0  0  0  0  0
   14.7965   -3.2519   -0.7875 C   0  0  1  0  0  0  0  0  0  0  0  0
   15.3794   -2.2443   -1.7949 C   0  0  0  0  0  0  0  0  0  0  0  0
   15.9522   -2.6550   -3.0208 C   0  0  0  0  0  0  0  0  0  0  0  0
   16.4340   -1.6937   -3.9273 C   0  0  0  0  0  0  0  0  0  0  0  0
   16.3364   -0.3224   -3.6308 C   0  0  0  0  0  0  0  0  0  0  0  0
   15.7943    0.1250   -2.4073 C   0  0  0  0  0  0  0  0  0  0  0  0
   15.6711    1.5693   -2.0915 C   0  0  0  0  0  0  0  0  0  0  0  0
   15.3832    2.0354   -0.7903 C   0  0  0  0  0  0  0  0  0  0  0  0
   15.3534    3.4188   -0.5357 C   0  0  0  0  0  0  0  0  0  0  0  0
   15.5968    4.3049   -1.5946 C   0  0  0  0  0  0  0  0  0  0  0  0
   15.8275    3.8920   -2.8511 N   0  0  0  0  0  0  0  0  0  0  0  0
   15.8598    2.5642   -3.0762 C   0  0  0  0  0  0  0  0  0  0  0  0
   15.3327   -0.8573   -1.5012 C   0  0  0  0  0  0  0  0  0  0  0  0
   13.2767   -3.0094   -0.6368 C   0  0  0  0  0  0  0  0  0  0  0  0
   12.3981   -3.0674   -1.5055 O   0  0  0  0  0  0  0  0  0  0  0  0
    0.0000    0.0000    0.0000 H   0  0  0  0  0  0  0  0  0  0  0  0
    0.0000    0.0000    0.0000 H   0  0  0  0  0  0  0  0  0  0  0  0
    0.0000    0.0000    0.0000 H   0  0  0  0  0  0  0  0  0  0  0  0
    0.0000    0.0000    0.0000 H   0  0  0  0  0  0  0  0  0  0  0  0
    0.0000    0.0000    0.0000 H   0  0  0  0  0  0  0  0  0  0  0  0
    0.0000    0.0000    0.0000 H   0  0  0  0  0  0  0  0  0  0  0  0
    0.0000    0.0000    0.0000 H   0  0  0  0  0  0  0  0  0  0  0  0
    0.0000    0.0000    0.0000 H   0  0  0  0  0  0  0  0  0  0  0  0
    0.0000    0.0000    0.0000 H   0  0  0  0  0  0  0  0  0  0  0  0
    0.0000    0.0000    0.0000 H   0  0  0  0  0  0  0  0  0  0  0  0
    0.0000    0.0000    0.0000 H   0  0  0  0  0  0  0  0  0  0  0  0
    0.0000    0.0000    0.0000 H   0  0  0  0  0  0  0  0  0  0  0  0
    0.0000    0.0000    0.0000 H   0  0  0  0  0  0  0  0  0  0  0  0
    0.0000    0.0000    0.0000 H   0  0  0  0  0  0  0  0  0  0  0  0
    6.9642   -1.5305   -0.3706 C   0  0  0  0  0  0  0  0  0  0  0  0
    6.3244   -2.4025    0.6942 C   0  0  0  0  0  0  0  0  0  0  0  0
    6.4780   -3.7781    0.3859 O   0  0  0  0  0  0  0  0  0  0  0  0
    6.0020   -4.7920    1.1663 C   0  0  0  0  0  0  0  0  0  0  0  0
    6.2232   -6.0922    0.7450 C   0  0  0  0  0  0  0  0  0  0  0  0
    5.7813   -7.1742    1.4648 C   0  0  0  0  0  0  0  0  0  0  0  0
    5.0945   -7.0004    2.6449 C   0  0  0  0  0  0  0  0  0  0  0  0
    4.8583   -5.7021    3.0918 C   0  0  0  0  0  0  0  0  0  0  0  0
    5.3123   -4.6245    2.3511 C   0  0  0  0  0  0  0  0  0  0  0  0
    6.5993   -1.8263   -1.3821 H   0  0  0  0  0  0  0  0  0  0  0  0
    6.7857   -0.4804   -0.1480 H   0  0  0  0  0  0  0  0  0  0  0  0
    5.2635   -2.0986    0.7607 H   0  0  0  0  0  0  0  0  0  0  0  0
    6.7937   -2.1506    1.6706 H   0  0  0  0  0  0  0  0  0  0  0  0
    6.7563   -6.2738   -0.1727 H   0  0  0  0  0  0  0  0  0  0  0  0
    5.9534   -8.2015    1.1363 H   0  0  0  0  0  0  0  0  0  0  0  0
    4.7458   -7.8579    3.2127 H   0  0  0  0  0  0  0  0  0  0  0  0
    4.3149   -5.5378    4.0265 H   0  0  0  0  0  0  0  0  0  0  0  0
    5.1398   -3.6128    2.6798 H   0  0  0  0  0  0  0  0  0  0  0  0
  1  2  1  0
  2  3  1  0
  2 19  1  0
  3  4  1  0
  3  5  2  0
  5  6  1  0
  6  7  1  0
  6 19  1  0
  7  8  2  0
  7 18  1  0
  8  9  1  0
  9 10  2  0
 10 11  1  0
 11 12  1  0
 11 18  2  0
 12 13  2  0
 12 17  1  0
 13 14  1  0
 14 15  2  0
 15 16  1  0
 16 17  2  0
 19 20  2  0
  1 21  1  0
  1 22  1  0
  1 23  1  0
  4 24  1  0
  4 25  1  0
  5 26  1  0
  8 27  1  0
  9 28  1  0
 10 29  1  0
 13 30  1  0
 14 31  1  0
 15 32  1  0
 17 33  1  0
 18 34  1  0
 35 36  1  0
 36 37  1  0
 37 38  1  0
 38 39  2  0
 39 40  1  0
 40 41  2  0
 41 42  1  0
 42 43  2  0
 43 38  1  0
 35 44  1  0
 35 45  1  0
 36 46  1  0
 36 47  1  0
 39 48  1  0
 40 49  1  0
 41 50  1  0
 42 51  1  0
 43 52  1  0
  6 35  1  6
M  CHG  1   5   1
M  END
>  <attachment_point>  (433) 
26

>  <score>  (433) 
<NA>

$$$$
CAT-4j
     RDKit          3D

 47 50  0  0  1  0  0  0  0  0999 V2000
   11.7106   -2.3098    1.2658 C   0  0  0  0  0  0  0  0  0  0  0  0
   13.0313   -2.6523    0.7225 N   0  0  0  0  0  0  0  0  0  0  0  0
   14.2010   -2.6281    1.3773 C   0  0  0  0  0  0  0  0  0  0  0  0
   14.3777   -2.3568    2.6732 N   0  0  0  0  0  0  0  0  0  0  0  0
   15.2217   -2.9197    0.5738 N   0  0  0  0  0  0  0  0  0  0  0  0
   14.7965   -3.2519   -0.7875 C   0  0  1  0  0  0  0  0  0  0  0  0
   15.3794   -2.2443   -1.7949 C   0  0  0  0  0  0  0  0  0  0  0  0
   15.9522   -2.6550   -3.0208 C   0  0  0  0  0  0  0  0  0  0  0  0
   16.4340   -1.6937   -3.9273 C   0  0  0  0  0  0  0  0  0  0  0  0
   16.3364   -0.3224   -3.6308 C   0  0  0  0  0  0  0  0  0  0  0  0
   15.7943    0.1250   -2.4073 C   0  0  0  0  0  0  0  0  0  0  0  0
   15.6711    1.5693   -2.0915 C   0  0  0  0  0  0  0  0  0  0  0  0
   15.3832    2.0354   -0.7903 C   0  0  0  0  0  0  0  0  0  0  0  0
   15.3534    3.4188   -0.5357 C   0  0  0  0  0  0  0  0  0  0  0  0
   15.5968    4.3049   -1.5946 C   0  0  0  0  0  0  0  0  0  0  0  0
   15.8275    3.8920   -2.8511 N   0  0  0  0  0  0  0  0  0  0  0  0
   15.8598    2.5642   -3.0762 C   0  0  0  0  0  0  0  0  0  0  0  0
   15.3327   -0.8573   -1.5012 C   0  0  0  0  0  0  0  0  0  0  0  0
   13.2767   -3.0094   -0.6368 C   0  0  0  0  0  0  0  0  0  0  0  0
   12.3981   -3.0674   -1.5055 O   0  0  0  0  0  0  0  0  0  0  0  0
    0.0000    0.0000    0.0000 H   0  0  0  0  0  0  0  0  0  0  0  0
    0.0000    0.0000    0.0000 H   0  0  0  0  0  0  0  0  0  0  0  0
    0.0000    0.0000    0.0000 H   0  0  0  0  0  0  0  0  0  0  0  0
    0.0000    0.0000    0.0000 H   0  0  0  0  0  0  0  0  0  0  0  0
    0.0000    0.0000    0.0000 H   0  0  0  0  0  0  0  0  0  0  0  0
    0.0000    0.0000    0.0000 H   0  0  0  0  0  0  0  0  0  0  0  0
    0.0000    0.0000    0.0000 H   0  0  0  0  0  0  0  0  0  0  0  0
    0.0000    0.0000    0.0000 H   0  0  0  0  0  0  0  0  0  0  0  0
    0.0000    0.0000    0.0000 H   0  0  0  0  0  0  0  0  0  0  0  0
    0.0000    0.0000    0.0000 H   0  0  0  0  0  0  0  0  0  0  0  0
    0.0000    0.0000    0.0000 H   0  0  0  0  0  0  0  0  0  0  0  0
    0.0000    0.0000    0.0000 H   0  0  0  0  0  0  0  0  0  0  0  0
    0.0000    0.0000    0.0000 H   0  0  0  0  0  0  0  0  0  0  0  0
    0.0000    0.0000    0.0000 H   0  0  0  0  0  0  0  0  0  0  0  0
    6.8794   -1.5119   -0.3661 C   0  0  0  0  0  0  0  0  0  0  0  0
    6.4555   -0.4089   -0.9518 C   0  0  0  0  0  0  0  0  0  0  0  0
    5.0726   -0.0953   -0.8842 C   0  0  0  0  0  0  0  0  0  0  0  0
    4.6523    1.0592   -1.5015 O   0  0  0  0  0  0  0  0  0  0  0  0
    4.2478   -0.9617   -0.2093 C   0  0  0  0  0  0  0  0  0  0  0  0
    4.7569   -2.0936    0.3781 C   0  0  0  0  0  0  0  0  0  0  0  0
    3.9221   -2.9635    1.0568 O   0  0  0  0  0  0  0  0  0  0  0  0
    6.1390   -2.3995    0.3058 C   0  0  0  0  0  0  0  0  0  0  0  0
    7.1363    0.2491   -1.4745 H   0  0  0  0  0  0  0  0  0  0  0  0
    3.9205    1.6582   -1.1763 H   0  0  0  0  0  0  0  0  0  0  0  0
    3.1704   -0.7297   -0.1491 H   0  0  0  0  0  0  0  0  0  0  0  0
    3.2644   -2.6588    1.7826 H   0  0  0  0  0  0  0  0  0  0  0  0
    6.5175   -3.2915    0.7728 H   0  0  0  0  0  0  0  0  0  0  0  0
  1  2  1  0
  2  3  1  0
  2 19  1  0
  3  4  1  0
  3  5  2  0
  5  6  1  0
  6  7  1  1
  6 19  1  0
  7  8  2  0
  7 18  1  0
  8  9  1  0
  9 10  2  0
 10 11  1  0
 11 12  1  0
 11 18  2  0
 12 13  2  0
 12 17  1  0
 13 14  1  0
 14 15  2  0
 15 16  1  0
 16 17  2  0
 19 20  2  0
  1 21  1  0
  1 22  1  0
  1 23  1  0
  4 24  1  0
  4 25  1  0
  5 26  1  0
  8 27  1  0
  9 28  1  0
 10 29  1  0
 13 30  1  0
 14 31  1  0
 15 32  1  0
 17 33  1  0
 18 34  1  0
 35 36  2  0
 36 37  1  0
 37 38  1  0
 37 39  2  0
 39 40  1  0
 40 41  1  0
 40 42  2  0
 42 35  1  0
 36 43  1  0
 38 44  1  0
 39 45  1  0
 41 46  1  0
 42 47  1  0
  6 35  1  0
M  CHG  1   5   1
M  END
>  <attachment_point>  (434) 
26

>  <score>  (434) 
<NA>

$$$$
CAT-4j
     RDKit          3D

 50 54  0  0  1  0  0  0  0  0999 V2000
   11.7106   -2.3098    1.2658 C   0  0  0  0  0  0  0  0  0  0  0  0
   13.0313   -2.6523    0.7225 N   0  0  0  0  0  0  0  0  0  0  0  0
   14.2010   -2.6281    1.3773 C   0  0  0  0  0  0  0  0  0  0  0  0
   14.3777   -2.3568    2.6732 N   0  0  0  0  0  0  0  0  0  0  0  0
   15.2217   -2.9197    0.5738 N   0  0  0  0  0  0  0  0  0  0  0  0
   14.7965   -3.2519   -0.7875 C   0  0  1  0  0  0  0  0  0  0  0  0
   15.3794   -2.2443   -1.7949 C   0  0  0  0  0  0  0  0  0  0  0  0
   15.9522   -2.6550   -3.0208 C   0  0  0  0  0  0  0  0  0  0  0  0
   16.4340   -1.6937   -3.9273 C   0  0  0  0  0  0  0  0  0  0  0  0
   16.3364   -0.3224   -3.6308 C   0  0  0  0  0  0  0  0  0  0  0  0
   15.7943    0.1250   -2.4073 C   0  0  0  0  0  0  0  0  0  0  0  0
   15.6711    1.5693   -2.0915 C   0  0  0  0  0  0  0  0  0  0  0  0
   15.3832    2.0354   -0.7903 C   0  0  0  0  0  0  0  0  0  0  0  0
   15.3534    3.4188   -0.5357 C   0  0  0  0  0  0  0  0  0  0  0  0
   15.5968    4.3049   -1.5946 C   0  0  0  0  0  0  0  0  0  0  0  0
   15.8275    3.8920   -2.8511 N   0  0  0  0  0  0  0  0  0  0  0  0
   15.8598    2.5642   -3.0762 C   0  0  0  0  0  0  0  0  0  0  0  0
   15.3327   -0.8573   -1.5012 C   0  0  0  0  0  0  0  0  0  0  0  0
   13.2767   -3.0094   -0.6368 C   0  0  0  0  0  0  0  0  0  0  0  0
   12.3981   -3.0674   -1.5055 O   0  0  0  0  0  0  0  0  0  0  0  0
    0.0000    0.0000    0.0000 H   0  0  0  0  0  0  0  0  0  0  0  0
    0.0000    0.0000    0.0000 H   0  0  0  0  0  0  0  0  0  0  0  0
    0.0000    0.0000    0.0000 H   0  0  0  0  0  0  0  0  0  0  0  0
    0.0000    0.0000    0.0000 H   0  0  0  0  0  0  0  0  0  0  0  0
    0.0000    0.0000    0.0000 H   0  0  0  0  0  0  0  0  0  0  0  0
    0.0000    0.0000    0.0000 H   0  0  0  0  0  0  0  0  0  0  0  0
    0.0000    0.0000    0.0000 H   0  0  0  0  0  0  0  0  0  0  0  0
    0.0000    0.0000    0.0000 H   0  0  0  0  0  0  0  0  0  0  0  0
    0.0000    0.0000    0.0000 H   0  0  0  0  0  0  0  0  0  0  0  0
    0.0000    0.0000    0.0000 H   0  0  0  0  0  0  0  0  0  0  0  0
    0.0000    0.0000    0.0000 H   0  0  0  0  0  0  0  0  0  0  0  0
    0.0000    0.0000    0.0000 H   0  0  0  0  0  0  0  0  0  0  0  0
    0.0000    0.0000    0.0000 H   0  0  0  0  0  0  0  0  0  0  0  0
    0.0000    0.0000    0.0000 H   0  0  0  0  0  0  0  0  0  0  0  0
    6.9440   -1.5261   -0.3696 C   0  0  0  0  0  0  0  0  0  0  0  0
    6.5200   -0.7362    0.6676 C   0  0  0  0  0  0  0  0  0  0  0  0
    5.1649   -0.4080    0.7843 C   0  0  0  0  0  0  0  0  0  0  0  0
    4.2824   -0.8927   -0.1570 C   0  0  0  0  0  0  0  0  0  0  0  0
    4.7524   -1.6857   -1.1864 C   0  0  0  0  0  0  0  0  0  0  0  0
    3.9153   -2.1656   -2.1083 N   0  0  0  0  0  0  0  0  0  0  0  0
    4.3409   -2.9403   -3.1229 C   0  0  0  0  0  0  0  0  0  0  0  0
    5.6649   -3.2932   -3.2837 C   0  0  0  0  0  0  0  0  0  0  0  0
    6.5645   -2.8189   -2.3531 C   0  0  0  0  0  0  0  0  0  0  0  0
    6.1001   -2.0223   -1.3170 C   0  0  0  0  0  0  0  0  0  0  0  0
    7.2143   -0.3513    1.4132 H   0  0  0  0  0  0  0  0  0  0  0  0
    4.8129    0.2109    1.5915 H   0  0  0  0  0  0  0  0  0  0  0  0
    3.2382   -0.6271   -0.0486 H   0  0  0  0  0  0  0  0  0  0  0  0
    3.5739   -3.2776   -3.8185 H   0  0  0  0  0  0  0  0  0  0  0  0
    5.9802   -3.9277   -4.1235 H   0  0  0  0  0  0  0  0  0  0  0  0
    7.6106   -3.0782   -2.4519 H   0  0  0  0  0  0  0  0  0  0  0  0
  1  2  1  0
  2  3  1  0
  2 19  1  0
  3  4  1  0
  3  5  2  0
  5  6  1  0
  6  7  1  1
  6 19  1  0
  7  8  2  0
  7 18  1  0
  8  9  1  0
  9 10  2  0
 10 11  1  0
 11 12  1  0
 11 18  2  0
 12 13  2  0
 12 17  1  0
 13 14  1  0
 14 15  2  0
 15 16  1  0
 16 17  2  0
 19 20  2  0
  1 21  1  0
  1 22  1  0
  1 23  1  0
  4 24  1  0
  4 25  1  0
  5 26  1  0
  8 27  1  0
  9 28  1  0
 10 29  1  0
 13 30  1  0
 14 31  1  0
 15 32  1  0
 17 33  1  0
 18 34  1  0
 35 36  2  0
 36 37  1  0
 37 38  2  0
 38 39  1  0
 39 40  2  0
 40 41  1  0
 41 42  2  0
 42 43  1  0
 43 44  2  0
 44 35  1  0
 44 39  1  0
 36 45  1  0
 37 46  1  0
 38 47  1  0
 41 48  1  0
 42 49  1  0
 43 50  1  0
  6 35  1  0
M  CHG  1   5   1
M  END
>  <attachment_point>  (435) 
26

>  <score>  (435) 
<NA>

$$$$
CAT-4j
     RDKit          3D

 51 54  0  0  1  0  0  0  0  0999 V2000
   11.7106   -2.3098    1.2658 C   0  0  0  0  0  0  0  0  0  0  0  0
   13.0313   -2.6523    0.7225 N   0  0  0  0  0  0  0  0  0  0  0  0
   14.2010   -2.6281    1.3773 C   0  0  0  0  0  0  0  0  0  0  0  0
   14.3777   -2.3568    2.6732 N   0  0  0  0  0  0  0  0  0  0  0  0
   15.2217   -2.9197    0.5738 N   0  0  0  0  0  0  0  0  0  0  0  0
   14.7965   -3.2519   -0.7875 C   0  0  1  0  0  0  0  0  0  0  0  0
   15.3794   -2.2443   -1.7949 C   0  0  0  0  0  0  0  0  0  0  0  0
   15.9522   -2.6550   -3.0208 C   0  0  0  0  0  0  0  0  0  0  0  0
   16.4340   -1.6937   -3.9273 C   0  0  0  0  0  0  0  0  0  0  0  0
   16.3364   -0.3224   -3.6308 C   0  0  0  0  0  0  0  0  0  0  0  0
   15.7943    0.1250   -2.4073 C   0  0  0  0  0  0  0  0  0  0  0  0
   15.6711    1.5693   -2.0915 C   0  0  0  0  0  0  0  0  0  0  0  0
   15.3832    2.0354   -0.7903 C   0  0  0  0  0  0  0  0  0  0  0  0
   15.3534    3.4188   -0.5357 C   0  0  0  0  0  0  0  0  0  0  0  0
   15.5968    4.3049   -1.5946 C   0  0  0  0  0  0  0  0  0  0  0  0
   15.8275    3.8920   -2.8511 N   0  0  0  0  0  0  0  0  0  0  0  0
   15.8598    2.5642   -3.0762 C   0  0  0  0  0  0  0  0  0  0  0  0
   15.3327   -0.8573   -1.5012 C   0  0  0  0  0  0  0  0  0  0  0  0
   13.2767   -3.0094   -0.6368 C   0  0  0  0  0  0  0  0  0  0  0  0
   12.3981   -3.0674   -1.5055 O   0  0  0  0  0  0  0  0  0  0  0  0
    0.0000    0.0000    0.0000 H   0  0  0  0  0  0  0  0  0  0  0  0
    0.0000    0.0000    0.0000 H   0  0  0  0  0  0  0  0  0  0  0  0
    0.0000    0.0000    0.0000 H   0  0  0  0  0  0  0  0  0  0  0  0
    0.0000    0.0000    0.0000 H   0  0  0  0  0  0  0  0  0  0  0  0
    0.0000    0.0000    0.0000 H   0  0  0  0  0  0  0  0  0  0  0  0
    0.0000    0.0000    0.0000 H   0  0  0  0  0  0  0  0  0  0  0  0
    0.0000    0.0000    0.0000 H   0  0  0  0  0  0  0  0  0  0  0  0
    0.0000    0.0000    0.0000 H   0  0  0  0  0  0  0  0  0  0  0  0
    0.0000    0.0000    0.0000 H   0  0  0  0  0  0  0  0  0  0  0  0
    0.0000    0.0000    0.0000 H   0  0  0  0  0  0  0  0  0  0  0  0
    0.0000    0.0000    0.0000 H   0  0  0  0  0  0  0  0  0  0  0  0
    0.0000    0.0000    0.0000 H   0  0  0  0  0  0  0  0  0  0  0  0
    0.0000    0.0000    0.0000 H   0  0  0  0  0  0  0  0  0  0  0  0
    0.0000    0.0000    0.0000 H   0  0  0  0  0  0  0  0  0  0  0  0
    7.0323   -1.5455   -0.3743 N   0  0  0  0  0  0  0  0  0  0  0  0
    6.1516   -2.2838   -1.2069 C   0  0  0  0  0  0  0  0  0  0  0  0
    5.6821   -1.5059   -2.4148 C   0  0  0  0  0  0  0  0  0  0  0  0
    5.0765   -0.1852   -2.0307 C   0  0  0  0  0  0  0  0  0  0  0  0
    6.0337    0.5588   -1.1766 C   0  0  2  0  0  0  0  0  0  0  0  0
    7.0608    1.0466   -2.0164 O   0  0  0  0  0  0  0  0  0  0  0  0
    6.6454   -0.2164   -0.0679 C   0  0  0  0  0  0  0  0  0  0  0  0
    6.7358   -3.1590   -1.6207 H   0  0  0  0  0  0  0  0  0  0  0  0
    5.3044   -2.7617   -0.6546 H   0  0  0  0  0  0  0  0  0  0  0  0
    4.9352   -2.0783   -2.9659 H   0  0  0  0  0  0  0  0  0  0  0  0
    6.5999   -1.2900   -3.0195 H   0  0  0  0  0  0  0  0  0  0  0  0
    4.9639    0.4002   -2.9905 H   0  0  0  0  0  0  0  0  0  0  0  0
    4.0583   -0.2678   -1.6216 H   0  0  0  0  0  0  0  0  0  0  0  0
    5.4958    1.4372   -0.7383 H   0  0  0  0  0  0  0  0  0  0  0  0
    6.9479    2.0310   -2.1310 H   0  0  0  0  0  0  0  0  0  0  0  0
    7.5910    0.3420    0.2089 H   0  0  0  0  0  0  0  0  0  0  0  0
    6.0337   -0.1709    0.8811 H   0  0  0  0  0  0  0  0  0  0  0  0
  1  2  1  0
  2  3  1  0
  2 19  1  0
  3  4  1  0
  3  5  2  0
  5  6  1  0
  6  7  1  0
  6 19  1  0
  7  8  2  0
  7 18  1  0
  8  9  1  0
  9 10  2  0
 10 11  1  0
 11 12  1  0
 11 18  2  0
 12 13  2  0
 12 17  1  0
 13 14  1  0
 14 15  2  0
 15 16  1  0
 16 17  2  0
 19 20  2  0
  1 21  1  0
  1 22  1  0
  1 23  1  0
  4 24  1  0
  4 25  1  0
  5 26  1  0
  8 27  1  0
  9 28  1  0
 10 29  1  0
 13 30  1  0
 14 31  1  0
 15 32  1  0
 17 33  1  0
 18 34  1  0
 35 36  1  0
 36 37  1  0
 37 38  1  0
 38 39  1  0
 39 40  1  0
 39 41  1  0
 41 35  1  0
 36 42  1  0
 36 43  1  0
 37 44  1  0
 37 45  1  0
 38 46  1  0
 38 47  1  0
 39 48  1  1
 40 49  1  0
 41 50  1  0
 41 51  1  0
  6 35  1  6
M  CHG  1   5   1
M  END
>  <attachment_point>  (436) 
26

>  <score>  (436) 
<NA>

$$$$
CAT-4j
     RDKit          3D

 46 49  0  0  1  0  0  0  0  0999 V2000
   11.7106   -2.3098    1.2658 C   0  0  0  0  0  0  0  0  0  0  0  0
   13.0313   -2.6523    0.7225 N   0  0  0  0  0  0  0  0  0  0  0  0
   14.2010   -2.6281    1.3773 C   0  0  0  0  0  0  0  0  0  0  0  0
   14.3777   -2.3568    2.6732 N   0  0  0  0  0  0  0  0  0  0  0  0
   15.2217   -2.9197    0.5738 N   0  0  0  0  0  0  0  0  0  0  0  0
   14.7965   -3.2519   -0.7875 C   0  0  1  0  0  0  0  0  0  0  0  0
   15.3794   -2.2443   -1.7949 C   0  0  0  0  0  0  0  0  0  0  0  0
   15.9522   -2.6550   -3.0208 C   0  0  0  0  0  0  0  0  0  0  0  0
   16.4340   -1.6937   -3.9273 C   0  0  0  0  0  0  0  0  0  0  0  0
   16.3364   -0.3224   -3.6308 C   0  0  0  0  0  0  0  0  0  0  0  0
   15.7943    0.1250   -2.4073 C   0  0  0  0  0  0  0  0  0  0  0  0
   15.6711    1.5693   -2.0915 C   0  0  0  0  0  0  0  0  0  0  0  0
   15.3832    2.0354   -0.7903 C   0  0  0  0  0  0  0  0  0  0  0  0
   15.3534    3.4188   -0.5357 C   0  0  0  0  0  0  0  0  0  0  0  0
   15.5968    4.3049   -1.5946 C   0  0  0  0  0  0  0  0  0  0  0  0
   15.8275    3.8920   -2.8511 N   0  0  0  0  0  0  0  0  0  0  0  0
   15.8598    2.5642   -3.0762 C   0  0  0  0  0  0  0  0  0  0  0  0
   15.3327   -0.8573   -1.5012 C   0  0  0  0  0  0  0  0  0  0  0  0
   13.2767   -3.0094   -0.6368 C   0  0  0  0  0  0  0  0  0  0  0  0
   12.3981   -3.0674   -1.5055 O   0  0  0  0  0  0  0  0  0  0  0  0
    0.0000    0.0000    0.0000 H   0  0  0  0  0  0  0  0  0  0  0  0
    0.0000    0.0000    0.0000 H   0  0  0  0  0  0  0  0  0  0  0  0
    0.0000    0.0000    0.0000 H   0  0  0  0  0  0  0  0  0  0  0  0
    0.0000    0.0000    0.0000 H   0  0  0  0  0  0  0  0  0  0  0  0
    0.0000    0.0000    0.0000 H   0  0  0  0  0  0  0  0  0  0  0  0
    0.0000    0.0000    0.0000 H   0  0  0  0  0  0  0  0  0  0  0  0
    0.0000    0.0000    0.0000 H   0  0  0  0  0  0  0  0  0  0  0  0
    0.0000    0.0000    0.0000 H   0  0  0  0  0  0  0  0  0  0  0  0
    0.0000    0.0000    0.0000 H   0  0  0  0  0  0  0  0  0  0  0  0
    0.0000    0.0000    0.0000 H   0  0  0  0  0  0  0  0  0  0  0  0
    0.0000    0.0000    0.0000 H   0  0  0  0  0  0  0  0  0  0  0  0
    0.0000    0.0000    0.0000 H   0  0  0  0  0  0  0  0  0  0  0  0
    0.0000    0.0000    0.0000 H   0  0  0  0  0  0  0  0  0  0  0  0
    0.0000    0.0000    0.0000 H   0  0  0  0  0  0  0  0  0  0  0  0
    6.8804   -1.5121   -0.3662 N   0  0  0  0  0  0  0  0  0  0  0  0
    6.6287   -0.2071   -0.6523 C   0  0  0  0  0  0  0  0  0  0  0  0
    7.5948    0.5799   -0.9433 O   0  0  0  0  0  0  0  0  0  0  0  0
    5.2290    0.3073   -0.6274 C   0  0  0  0  0  0  0  0  0  0  0  0
    4.3255   -0.1171    0.5161 C   0  0  0  0  0  0  0  0  0  0  0  0
    4.1003   -0.6070   -0.8784 C   0  0  0  0  0  0  0  0  0  0  0  0
    6.3921   -2.2949   -0.1267 H   0  0  0  0  0  0  0  0  0  0  0  0
    5.1476    1.3776   -0.8753 H   0  0  0  0  0  0  0  0  0  0  0  0
    4.7995   -0.7772    1.2525 H   0  0  0  0  0  0  0  0  0  0  0  0
    3.6025    0.6381    0.9288 H   0  0  0  0  0  0  0  0  0  0  0  0
    4.3089   -1.6892   -1.0228 H   0  0  0  0  0  0  0  0  0  0  0  0
    3.2696   -0.2178   -1.4684 H   0  0  0  0  0  0  0  0  0  0  0  0
  1  2  1  0
  2  3  1  0
  2 19  1  0
  3  4  1  0
  3  5  2  0
  5  6  1  0
  6  7  1  0
  6 19  1  0
  7  8  2  0
  7 18  1  0
  8  9  1  0
  9 10  2  0
 10 11  1  0
 11 12  1  0
 11 18  2  0
 12 13  2  0
 12 17  1  0
 13 14  1  0
 14 15  2  0
 15 16  1  0
 16 17  2  0
 19 20  2  0
  1 21  1  0
  1 22  1  0
  1 23  1  0
  4 24  1  0
  4 25  1  0
  5 26  1  0
  8 27  1  0
  9 28  1  0
 10 29  1  0
 13 30  1  0
 14 31  1  0
 15 32  1  0
 17 33  1  0
 18 34  1  0
 35 36  1  0
 36 37  2  0
 36 38  1  0
 38 39  1  0
 39 40  1  0
 40 38  1  0
 35 41  1  0
 38 42  1  0
 39 43  1  0
 39 44  1  0
 40 45  1  0
 40 46  1  0
  6 35  1  6
M  CHG  1   5   1
M  END
>  <attachment_point>  (437) 
26

>  <score>  (437) 
<NA>

$$$$
CAT-4j
     RDKit          3D

 47 49  0  0  1  0  0  0  0  0999 V2000
   11.7106   -2.3098    1.2658 C   0  0  0  0  0  0  0  0  0  0  0  0
   13.0313   -2.6523    0.7225 N   0  0  0  0  0  0  0  0  0  0  0  0
   14.2010   -2.6281    1.3773 C   0  0  0  0  0  0  0  0  0  0  0  0
   14.3777   -2.3568    2.6732 N   0  0  0  0  0  0  0  0  0  0  0  0
   15.2217   -2.9197    0.5738 N   0  0  0  0  0  0  0  0  0  0  0  0
   14.7965   -3.2519   -0.7875 C   0  0  1  0  0  0  0  0  0  0  0  0
   15.3794   -2.2443   -1.7949 C   0  0  0  0  0  0  0  0  0  0  0  0
   15.9522   -2.6550   -3.0208 C   0  0  0  0  0  0  0  0  0  0  0  0
   16.4340   -1.6937   -3.9273 C   0  0  0  0  0  0  0  0  0  0  0  0
   16.3364   -0.3224   -3.6308 C   0  0  0  0  0  0  0  0  0  0  0  0
   15.7943    0.1250   -2.4073 C   0  0  0  0  0  0  0  0  0  0  0  0
   15.6711    1.5693   -2.0915 C   0  0  0  0  0  0  0  0  0  0  0  0
   15.3832    2.0354   -0.7903 C   0  0  0  0  0  0  0  0  0  0  0  0
   15.3534    3.4188   -0.5357 C   0  0  0  0  0  0  0  0  0  0  0  0
   15.5968    4.3049   -1.5946 C   0  0  0  0  0  0  0  0  0  0  0  0
   15.8275    3.8920   -2.8511 N   0  0  0  0  0  0  0  0  0  0  0  0
   15.8598    2.5642   -3.0762 C   0  0  0  0  0  0  0  0  0  0  0  0
   15.3327   -0.8573   -1.5012 C   0  0  0  0  0  0  0  0  0  0  0  0
   13.2767   -3.0094   -0.6368 C   0  0  0  0  0  0  0  0  0  0  0  0
   12.3981   -3.0674   -1.5055 O   0  0  0  0  0  0  0  0  0  0  0  0
    0.0000    0.0000    0.0000 H   0  0  0  0  0  0  0  0  0  0  0  0
    0.0000    0.0000    0.0000 H   0  0  0  0  0  0  0  0  0  0  0  0
    0.0000    0.0000    0.0000 H   0  0  0  0  0  0  0  0  0  0  0  0
    0.0000    0.0000    0.0000 H   0  0  0  0  0  0  0  0  0  0  0  0
    0.0000    0.0000    0.0000 H   0  0  0  0  0  0  0  0  0  0  0  0
    0.0000    0.0000    0.0000 H   0  0  0  0  0  0  0  0  0  0  0  0
    0.0000    0.0000    0.0000 H   0  0  0  0  0  0  0  0  0  0  0  0
    0.0000    0.0000    0.0000 H   0  0  0  0  0  0  0  0  0  0  0  0
    0.0000    0.0000    0.0000 H   0  0  0  0  0  0  0  0  0  0  0  0
    0.0000    0.0000    0.0000 H   0  0  0  0  0  0  0  0  0  0  0  0
    0.0000    0.0000    0.0000 H   0  0  0  0  0  0  0  0  0  0  0  0
    0.0000    0.0000    0.0000 H   0  0  0  0  0  0  0  0  0  0  0  0
    0.0000    0.0000    0.0000 H   0  0  0  0  0  0  0  0  0  0  0  0
    0.0000    0.0000    0.0000 H   0  0  0  0  0  0  0  0  0  0  0  0
    6.9942   -1.5372   -0.3722 C   0  0  2  0  0  0  0  0  0  0  0  0
    6.7739   -0.3883    0.5568 C   0  0  0  0  0  0  0  0  0  0  0  0
    6.2448   -2.7772   -0.0097 C   0  0  0  0  0  0  0  0  0  0  0  0
    6.5107   -3.8098   -1.0954 C   0  0  0  0  0  0  0  0  0  0  0  0
    6.6386   -1.2193   -1.3857 H   0  0  0  0  0  0  0  0  0  0  0  0
    6.8403   -0.6634    1.6318 H   0  0  0  0  0  0  0  0  0  0  0  0
    5.8545    0.2015    0.3252 H   0  0  0  0  0  0  0  0  0  0  0  0
    7.6224    0.3362    0.3896 H   0  0  0  0  0  0  0  0  0  0  0  0
    5.1450   -2.6076    0.0759 H   0  0  0  0  0  0  0  0  0  0  0  0
    6.5693   -3.2237    0.9462 H   0  0  0  0  0  0  0  0  0  0  0  0
    6.9356   -4.7380   -0.7004 H   0  0  0  0  0  0  0  0  0  0  0  0
    7.2173   -3.4320   -1.8654 H   0  0  0  0  0  0  0  0  0  0  0  0
    5.5587   -4.0278   -1.6456 H   0  0  0  0  0  0  0  0  0  0  0  0
  1  2  1  0
  2  3  1  0
  2 19  1  0
  3  4  1  0
  3  5  2  0
  5  6  1  0
  6  7  1  1
  6 19  1  0
  7  8  2  0
  7 18  1  0
  8  9  1  0
  9 10  2  0
 10 11  1  0
 11 12  1  0
 11 18  2  0
 12 13  2  0
 12 17  1  0
 13 14  1  0
 14 15  2  0
 15 16  1  0
 16 17  2  0
 19 20  2  0
  1 21  1  0
  1 22  1  0
  1 23  1  0
  4 24  1  0
  4 25  1  0
  5 26  1  0
  8 27  1  0
  9 28  1  0
 10 29  1  0
 13 30  1  0
 14 31  1  0
 15 32  1  0
 17 33  1  0
 18 34  1  0
 35 36  1  0
 35 37  1  0
 37 38  1  0
 35 39  1  1
 36 40  1  0
 36 41  1  0
 36 42  1  0
 37 43  1  0
 37 44  1  0
 38 45  1  0
 38 46  1  0
 38 47  1  0
  6 35  1  0
M  CHG  1   5   1
M  END
>  <attachment_point>  (438) 
26

>  <score>  (438) 
<NA>

$$$$
CAT-4j
     RDKit          3D

 44 47  0  0  1  0  0  0  0  0999 V2000
   11.7106   -2.3098    1.2658 C   0  0  0  0  0  0  0  0  0  0  0  0
   13.0313   -2.6523    0.7225 N   0  0  0  0  0  0  0  0  0  0  0  0
   14.2010   -2.6281    1.3773 C   0  0  0  0  0  0  0  0  0  0  0  0
   14.3777   -2.3568    2.6732 N   0  0  0  0  0  0  0  0  0  0  0  0
   15.2217   -2.9197    0.5738 N   0  0  0  0  0  0  0  0  0  0  0  0
   14.7965   -3.2519   -0.7875 C   0  0  1  0  0  0  0  0  0  0  0  0
   15.3794   -2.2443   -1.7949 C   0  0  0  0  0  0  0  0  0  0  0  0
   15.9522   -2.6550   -3.0208 C   0  0  0  0  0  0  0  0  0  0  0  0
   16.4340   -1.6937   -3.9273 C   0  0  0  0  0  0  0  0  0  0  0  0
   16.3364   -0.3224   -3.6308 C   0  0  0  0  0  0  0  0  0  0  0  0
   15.7943    0.1250   -2.4073 C   0  0  0  0  0  0  0  0  0  0  0  0
   15.6711    1.5693   -2.0915 C   0  0  0  0  0  0  0  0  0  0  0  0
   15.3832    2.0354   -0.7903 C   0  0  0  0  0  0  0  0  0  0  0  0
   15.3534    3.4188   -0.5357 C   0  0  0  0  0  0  0  0  0  0  0  0
   15.5968    4.3049   -1.5946 C   0  0  0  0  0  0  0  0  0  0  0  0
   15.8275    3.8920   -2.8511 N   0  0  0  0  0  0  0  0  0  0  0  0
   15.8598    2.5642   -3.0762 C   0  0  0  0  0  0  0  0  0  0  0  0
   15.3327   -0.8573   -1.5012 C   0  0  0  0  0  0  0  0  0  0  0  0
   13.2767   -3.0094   -0.6368 C   0  0  0  0  0  0  0  0  0  0  0  0
   12.3981   -3.0674   -1.5055 O   0  0  0  0  0  0  0  0  0  0  0  0
    0.0000    0.0000    0.0000 H   0  0  0  0  0  0  0  0  0  0  0  0
    0.0000    0.0000    0.0000 H   0  0  0  0  0  0  0  0  0  0  0  0
    0.0000    0.0000    0.0000 H   0  0  0  0  0  0  0  0  0  0  0  0
    0.0000    0.0000    0.0000 H   0  0  0  0  0  0  0  0  0  0  0  0
    0.0000    0.0000    0.0000 H   0  0  0  0  0  0  0  0  0  0  0  0
    0.0000    0.0000    0.0000 H   0  0  0  0  0  0  0  0  0  0  0  0
    0.0000    0.0000    0.0000 H   0  0  0  0  0  0  0  0  0  0  0  0
    0.0000    0.0000    0.0000 H   0  0  0  0  0  0  0  0  0  0  0  0
    0.0000    0.0000    0.0000 H   0  0  0  0  0  0  0  0  0  0  0  0
    0.0000    0.0000    0.0000 H   0  0  0  0  0  0  0  0  0  0  0  0
    0.0000    0.0000    0.0000 H   0  0  0  0  0  0  0  0  0  0  0  0
    0.0000    0.0000    0.0000 H   0  0  0  0  0  0  0  0  0  0  0  0
    0.0000    0.0000    0.0000 H   0  0  0  0  0  0  0  0  0  0  0  0
    0.0000    0.0000    0.0000 H   0  0  0  0  0  0  0  0  0  0  0  0
    6.9095   -1.5185   -0.3677 C   0  0  0  0  0  0  0  0  0  0  0  0
    6.8732   -0.0769   -0.4843 N   0  0  0  0  0  0  0  0  0  0  0  0
    6.7757    0.6063   -1.6402 C   0  0  0  0  0  0  0  0  0  0  0  0
    6.7774    1.9019   -1.2742 N   0  0  0  0  0  0  0  0  0  0  0  0
    6.8738    1.9979    0.0727 C   0  0  0  0  0  0  0  0  0  0  0  0
    6.9321    0.7372    0.5379 N   0  0  0  0  0  0  0  0  0  0  0  0
    6.4850   -2.0444   -1.2262 H   0  0  0  0  0  0  0  0  0  0  0  0
    6.6118   -1.8966    0.6097 H   0  0  0  0  0  0  0  0  0  0  0  0
    6.7100    0.2323   -2.6397 H   0  0  0  0  0  0  0  0  0  0  0  0
    6.8949    2.9180    0.6047 H   0  0  0  0  0  0  0  0  0  0  0  0
  1  2  1  0
  2  3  1  0
  2 19  1  0
  3  4  1  0
  3  5  2  0
  5  6  1  0
  6  7  1  0
  6 19  1  0
  7  8  2  0
  7 18  1  0
  8  9  1  0
  9 10  2  0
 10 11  1  0
 11 12  1  0
 11 18  2  0
 12 13  2  0
 12 17  1  0
 13 14  1  0
 14 15  2  0
 15 16  1  0
 16 17  2  0
 19 20  2  0
  1 21  1  0
  1 22  1  0
  1 23  1  0
  4 24  1  0
  4 25  1  0
  5 26  1  0
  8 27  1  0
  9 28  1  0
 10 29  1  0
 13 30  1  0
 14 31  1  0
 15 32  1  0
 17 33  1  0
 18 34  1  0
 35 36  1  0
 36 37  1  0
 37 38  2  0
 38 39  1  0
 39 40  2  0
 40 36  1  0
 35 41  1  0
 35 42  1  0
 37 43  1  0
 39 44  1  0
  6 35  1  6
M  CHG  1   5   1
M  END
>  <attachment_point>  (439) 
26

>  <score>  (439) 
<NA>

$$$$
CAT-4j
     RDKit          3D

 47 50  0  0  1  0  0  0  0  0999 V2000
   11.7106   -2.3098    1.2658 C   0  0  0  0  0  0  0  0  0  0  0  0
   13.0313   -2.6523    0.7225 N   0  0  0  0  0  0  0  0  0  0  0  0
   14.2010   -2.6281    1.3773 C   0  0  0  0  0  0  0  0  0  0  0  0
   14.3777   -2.3568    2.6732 N   0  0  0  0  0  0  0  0  0  0  0  0
   15.2217   -2.9197    0.5738 N   0  0  0  0  0  0  0  0  0  0  0  0
   14.7965   -3.2519   -0.7875 C   0  0  1  0  0  0  0  0  0  0  0  0
   15.3794   -2.2443   -1.7949 C   0  0  0  0  0  0  0  0  0  0  0  0
   15.9522   -2.6550   -3.0208 C   0  0  0  0  0  0  0  0  0  0  0  0
   16.4340   -1.6937   -3.9273 C   0  0  0  0  0  0  0  0  0  0  0  0
   16.3364   -0.3224   -3.6308 C   0  0  0  0  0  0  0  0  0  0  0  0
   15.7943    0.1250   -2.4073 C   0  0  0  0  0  0  0  0  0  0  0  0
   15.6711    1.5693   -2.0915 C   0  0  0  0  0  0  0  0  0  0  0  0
   15.3832    2.0354   -0.7903 C   0  0  0  0  0  0  0  0  0  0  0  0
   15.3534    3.4188   -0.5357 C   0  0  0  0  0  0  0  0  0  0  0  0
   15.5968    4.3049   -1.5946 C   0  0  0  0  0  0  0  0  0  0  0  0
   15.8275    3.8920   -2.8511 N   0  0  0  0  0  0  0  0  0  0  0  0
   15.8598    2.5642   -3.0762 C   0  0  0  0  0  0  0  0  0  0  0  0
   15.3327   -0.8573   -1.5012 C   0  0  0  0  0  0  0  0  0  0  0  0
   13.2767   -3.0094   -0.6368 C   0  0  0  0  0  0  0  0  0  0  0  0
   12.3981   -3.0674   -1.5055 O   0  0  0  0  0  0  0  0  0  0  0  0
    0.0000    0.0000    0.0000 H   0  0  0  0  0  0  0  0  0  0  0  0
    0.0000    0.0000    0.0000 H   0  0  0  0  0  0  0  0  0  0  0  0
    0.0000    0.0000    0.0000 H   0  0  0  0  0  0  0  0  0  0  0  0
    0.0000    0.0000    0.0000 H   0  0  0  0  0  0  0  0  0  0  0  0
    0.0000    0.0000    0.0000 H   0  0  0  0  0  0  0  0  0  0  0  0
    0.0000    0.0000    0.0000 H   0  0  0  0  0  0  0  0  0  0  0  0
    0.0000    0.0000    0.0000 H   0  0  0  0  0  0  0  0  0  0  0  0
    0.0000    0.0000    0.0000 H   0  0  0  0  0  0  0  0  0  0  0  0
    0.0000    0.0000    0.0000 H   0  0  0  0  0  0  0  0  0  0  0  0
    0.0000    0.0000    0.0000 H   0  0  0  0  0  0  0  0  0  0  0  0
    0.0000    0.0000    0.0000 H   0  0  0  0  0  0  0  0  0  0  0  0
    0.0000    0.0000    0.0000 H   0  0  0  0  0  0  0  0  0  0  0  0
    0.0000    0.0000    0.0000 H   0  0  0  0  0  0  0  0  0  0  0  0
    0.0000    0.0000    0.0000 H   0  0  0  0  0  0  0  0  0  0  0  0
    7.0461   -1.5486   -0.3750 O   0  0  0  0  0  0  0  0  0  0  0  0
    5.9783   -2.4434   -0.2533 C   0  0  0  0  0  0  0  0  0  0  0  0
    4.6752   -2.0021   -0.1928 C   0  0  0  0  0  0  0  0  0  0  0  0
    3.6186   -2.8902   -0.0722 C   0  0  0  0  0  0  0  0  0  0  0  0
    3.8883   -4.2467   -0.0121 C   0  0  0  0  0  0  0  0  0  0  0  0
    2.5824   -5.3882    0.1394 Cl  0  0  0  0  0  0  0  0  0  0  0  0
    5.2094   -4.6686   -0.0749 C   0  0  0  0  0  0  0  0  0  0  0  0
    6.2624   -3.7867   -0.1949 C   0  0  0  0  0  0  0  0  0  0  0  0
    7.5717   -4.2542   -0.2543 O   0  0  0  0  0  0  0  0  0  0  0  0
    4.4653   -0.9282   -0.2406 H   0  0  0  0  0  0  0  0  0  0  0  0
    2.6141   -2.5600   -0.0249 H   0  0  0  0  0  0  0  0  0  0  0  0
    5.4643   -5.7304   -0.0308 H   0  0  0  0  0  0  0  0  0  0  0  0
    7.9179   -4.6373   -1.1427 H   0  0  0  0  0  0  0  0  0  0  0  0
  1  2  1  0
  2  3  1  0
  2 19  1  0
  3  4  1  0
  3  5  2  0
  5  6  1  0
  6  7  1  0
  6 19  1  0
  7  8  2  0
  7 18  1  0
  8  9  1  0
  9 10  2  0
 10 11  1  0
 11 12  1  0
 11 18  2  0
 12 13  2  0
 12 17  1  0
 13 14  1  0
 14 15  2  0
 15 16  1  0
 16 17  2  0
 19 20  2  0
  1 21  1  0
  1 22  1  0
  1 23  1  0
  4 24  1  0
  4 25  1  0
  5 26  1  0
  8 27  1  0
  9 28  1  0
 10 29  1  0
 13 30  1  0
 14 31  1  0
 15 32  1  0
 17 33  1  0
 18 34  1  0
 35 36  1  0
 36 37  2  0
 37 38  1  0
 38 39  2  0
 39 40  1  0
 39 41  1  0
 41 42  2  0
 42 43  1  0
 42 36  1  0
 37 44  1  0
 38 45  1  0
 41 46  1  0
 43 47  1  0
  6 35  1  6
M  CHG  1   5   1
M  END
>  <attachment_point>  (440) 
26

>  <score>  (440) 
<NA>

$$$$
CAT-4j
     RDKit          3D

 53 56  0  0  1  0  0  0  0  0999 V2000
   11.7106   -2.3098    1.2658 C   0  0  0  0  0  0  0  0  0  0  0  0
   13.0313   -2.6523    0.7225 N   0  0  0  0  0  0  0  0  0  0  0  0
   14.2010   -2.6281    1.3773 C   0  0  0  0  0  0  0  0  0  0  0  0
   14.3777   -2.3568    2.6732 N   0  0  0  0  0  0  0  0  0  0  0  0
   15.2217   -2.9197    0.5738 N   0  0  0  0  0  0  0  0  0  0  0  0
   14.7965   -3.2519   -0.7875 C   0  0  1  0  0  0  0  0  0  0  0  0
   15.3794   -2.2443   -1.7949 C   0  0  0  0  0  0  0  0  0  0  0  0
   15.9522   -2.6550   -3.0208 C   0  0  0  0  0  0  0  0  0  0  0  0
   16.4340   -1.6937   -3.9273 C   0  0  0  0  0  0  0  0  0  0  0  0
   16.3364   -0.3224   -3.6308 C   0  0  0  0  0  0  0  0  0  0  0  0
   15.7943    0.1250   -2.4073 C   0  0  0  0  0  0  0  0  0  0  0  0
   15.6711    1.5693   -2.0915 C   0  0  0  0  0  0  0  0  0  0  0  0
   15.3832    2.0354   -0.7903 C   0  0  0  0  0  0  0  0  0  0  0  0
   15.3534    3.4188   -0.5357 C   0  0  0  0  0  0  0  0  0  0  0  0
   15.5968    4.3049   -1.5946 C   0  0  0  0  0  0  0  0  0  0  0  0
   15.8275    3.8920   -2.8511 N   0  0  0  0  0  0  0  0  0  0  0  0
   15.8598    2.5642   -3.0762 C   0  0  0  0  0  0  0  0  0  0  0  0
   15.3327   -0.8573   -1.5012 C   0  0  0  0  0  0  0  0  0  0  0  0
   13.2767   -3.0094   -0.6368 C   0  0  0  0  0  0  0  0  0  0  0  0
   12.3981   -3.0674   -1.5055 O   0  0  0  0  0  0  0  0  0  0  0  0
    0.0000    0.0000    0.0000 H   0  0  0  0  0  0  0  0  0  0  0  0
    0.0000    0.0000    0.0000 H   0  0  0  0  0  0  0  0  0  0  0  0
    0.0000    0.0000    0.0000 H   0  0  0  0  0  0  0  0  0  0  0  0
    0.0000    0.0000    0.0000 H   0  0  0  0  0  0  0  0  0  0  0  0
    0.0000    0.0000    0.0000 H   0  0  0  0  0  0  0  0  0  0  0  0
    0.0000    0.0000    0.0000 H   0  0  0  0  0  0  0  0  0  0  0  0
    0.0000    0.0000    0.0000 H   0  0  0  0  0  0  0  0  0  0  0  0
    0.0000    0.0000    0.0000 H   0  0  0  0  0  0  0  0  0  0  0  0
    0.0000    0.0000    0.0000 H   0  0  0  0  0  0  0  0  0  0  0  0
    0.0000    0.0000    0.0000 H   0  0  0  0  0  0  0  0  0  0  0  0
    0.0000    0.0000    0.0000 H   0  0  0  0  0  0  0  0  0  0  0  0
    0.0000    0.0000    0.0000 H   0  0  0  0  0  0  0  0  0  0  0  0
    0.0000    0.0000    0.0000 H   0  0  0  0  0  0  0  0  0  0  0  0
    0.0000    0.0000    0.0000 H   0  0  0  0  0  0  0  0  0  0  0  0
    6.9411   -1.5255   -0.3694 N   0  0  0  0  0  0  0  0  0  0  0  0
    6.4446   -1.9939   -1.6469 C   0  0  0  0  0  0  0  0  0  0  0  0
    6.9785   -0.0757   -0.3072 C   0  0  0  0  0  0  0  0  0  0  0  0
    5.6394    0.5133   -0.2164 C   0  0  0  0  0  0  0  0  0  0  0  0
    4.9788    0.8324   -1.3837 C   0  0  0  0  0  0  0  0  0  0  0  0
    3.7093    1.3930   -1.4017 C   0  0  0  0  0  0  0  0  0  0  0  0
    3.1046    1.6309   -0.1852 C   0  0  0  0  0  0  0  0  0  0  0  0
    3.7591    1.3143    0.9863 C   0  0  0  0  0  0  0  0  0  0  0  0
    5.0201    0.7576    0.9977 C   0  0  0  0  0  0  0  0  0  0  0  0
    6.7309   -1.3404   -2.4925 H   0  0  0  0  0  0  0  0  0  0  0  0
    6.8220   -3.0186   -1.8827 H   0  0  0  0  0  0  0  0  0  0  0  0
    5.3561   -2.0451   -1.5666 H   0  0  0  0  0  0  0  0  0  0  0  0
    7.5877    0.2961    0.5208 H   0  0  0  0  0  0  0  0  0  0  0  0
    7.4595    0.2825   -1.2433 H   0  0  0  0  0  0  0  0  0  0  0  0
    5.4178    0.6624   -2.3694 H   0  0  0  0  0  0  0  0  0  0  0  0
    3.2113    1.6350   -2.3437 H   0  0  0  0  0  0  0  0  0  0  0  0
    2.1208    2.0641   -0.1526 H   0  0  0  0  0  0  0  0  0  0  0  0
    3.2918    1.4975    1.9519 H   0  0  0  0  0  0  0  0  0  0  0  0
    5.5346    0.5085    1.9281 H   0  0  0  0  0  0  0  0  0  0  0  0
  1  2  1  0
  2  3  1  0
  2 19  1  0
  3  4  1  0
  3  5  2  0
  5  6  1  0
  6  7  1  0
  6 19  1  0
  7  8  2  0
  7 18  1  0
  8  9  1  0
  9 10  2  0
 10 11  1  0
 11 12  1  0
 11 18  2  0
 12 13  2  0
 12 17  1  0
 13 14  1  0
 14 15  2  0
 15 16  1  0
 16 17  2  0
 19 20  2  0
  1 21  1  0
  1 22  1  0
  1 23  1  0
  4 24  1  0
  4 25  1  0
  5 26  1  0
  8 27  1  0
  9 28  1  0
 10 29  1  0
 13 30  1  0
 14 31  1  0
 15 32  1  0
 17 33  1  0
 18 34  1  0
 35 36  1  0
 35 37  1  0
 37 38  1  0
 38 39  2  0
 39 40  1  0
 40 41  2  0
 41 42  1  0
 42 43  2  0
 43 38  1  0
 36 44  1  0
 36 45  1  0
 36 46  1  0
 37 47  1  0
 37 48  1  0
 39 49  1  0
 40 50  1  0
 41 51  1  0
 42 52  1  0
 43 53  1  0
  6 35  1  6
M  CHG  1   5   1
M  END
>  <attachment_point>  (441) 
26

>  <score>  (441) 
<NA>

$$$$
CAT-4j
     RDKit          3D

 45 48  0  0  1  0  0  0  0  0999 V2000
   11.7106   -2.3098    1.2658 C   0  0  0  0  0  0  0  0  0  0  0  0
   13.0313   -2.6523    0.7225 N   0  0  0  0  0  0  0  0  0  0  0  0
   14.2010   -2.6281    1.3773 C   0  0  0  0  0  0  0  0  0  0  0  0
   14.3777   -2.3568    2.6732 N   0  0  0  0  0  0  0  0  0  0  0  0
   15.2217   -2.9197    0.5738 N   0  0  0  0  0  0  0  0  0  0  0  0
   14.7965   -3.2519   -0.7875 C   0  0  1  0  0  0  0  0  0  0  0  0
   15.3794   -2.2443   -1.7949 C   0  0  0  0  0  0  0  0  0  0  0  0
   15.9522   -2.6550   -3.0208 C   0  0  0  0  0  0  0  0  0  0  0  0
   16.4340   -1.6937   -3.9273 C   0  0  0  0  0  0  0  0  0  0  0  0
   16.3364   -0.3224   -3.6308 C   0  0  0  0  0  0  0  0  0  0  0  0
   15.7943    0.1250   -2.4073 C   0  0  0  0  0  0  0  0  0  0  0  0
   15.6711    1.5693   -2.0915 C   0  0  0  0  0  0  0  0  0  0  0  0
   15.3832    2.0354   -0.7903 C   0  0  0  0  0  0  0  0  0  0  0  0
   15.3534    3.4188   -0.5357 C   0  0  0  0  0  0  0  0  0  0  0  0
   15.5968    4.3049   -1.5946 C   0  0  0  0  0  0  0  0  0  0  0  0
   15.8275    3.8920   -2.8511 N   0  0  0  0  0  0  0  0  0  0  0  0
   15.8598    2.5642   -3.0762 C   0  0  0  0  0  0  0  0  0  0  0  0
   15.3327   -0.8573   -1.5012 C   0  0  0  0  0  0  0  0  0  0  0  0
   13.2767   -3.0094   -0.6368 C   0  0  0  0  0  0  0  0  0  0  0  0
   12.3981   -3.0674   -1.5055 O   0  0  0  0  0  0  0  0  0  0  0  0
    0.0000    0.0000    0.0000 H   0  0  0  0  0  0  0  0  0  0  0  0
    0.0000    0.0000    0.0000 H   0  0  0  0  0  0  0  0  0  0  0  0
    0.0000    0.0000    0.0000 H   0  0  0  0  0  0  0  0  0  0  0  0
    0.0000    0.0000    0.0000 H   0  0  0  0  0  0  0  0  0  0  0  0
    0.0000    0.0000    0.0000 H   0  0  0  0  0  0  0  0  0  0  0  0
    0.0000    0.0000    0.0000 H   0  0  0  0  0  0  0  0  0  0  0  0
    0.0000    0.0000    0.0000 H   0  0  0  0  0  0  0  0  0  0  0  0
    0.0000    0.0000    0.0000 H   0  0  0  0  0  0  0  0  0  0  0  0
    0.0000    0.0000    0.0000 H   0  0  0  0  0  0  0  0  0  0  0  0
    0.0000    0.0000    0.0000 H   0  0  0  0  0  0  0  0  0  0  0  0
    0.0000    0.0000    0.0000 H   0  0  0  0  0  0  0  0  0  0  0  0
    0.0000    0.0000    0.0000 H   0  0  0  0  0  0  0  0  0  0  0  0
    0.0000    0.0000    0.0000 H   0  0  0  0  0  0  0  0  0  0  0  0
    0.0000    0.0000    0.0000 H   0  0  0  0  0  0  0  0  0  0  0  0
    6.9157   -1.5199   -0.3681 C   0  0  0  0  0  0  0  0  0  0  0  0
    6.5073   -0.2972   -0.7960 C   0  0  0  0  0  0  0  0  0  0  0  0
    5.1705    0.0123   -0.7311 N   0  0  0  0  0  0  0  0  0  0  0  0
    4.2980   -0.8844   -0.2528 C   0  0  0  0  0  0  0  0  0  0  0  0
    2.9068   -0.5226   -0.2010 N   0  0  0  0  0  0  0  0  0  0  0  0
    4.7395   -2.1112    0.1720 C   0  0  0  0  0  0  0  0  0  0  0  0
    6.0829   -2.4073    0.1010 N   0  0  0  0  0  0  0  0  0  0  0  0
    7.2319    0.4058   -1.1767 H   0  0  0  0  0  0  0  0  0  0  0  0
    2.6096    0.1306    0.5498 H   0  0  0  0  0  0  0  0  0  0  0  0
    2.2274   -0.9093   -0.8998 H   0  0  0  0  0  0  0  0  0  0  0  0
    4.0542   -2.8410    0.5579 H   0  0  0  0  0  0  0  0  0  0  0  0
  1  2  1  0
  2  3  1  0
  2 19  1  0
  3  4  1  0
  3  5  2  0
  5  6  1  0
  6  7  1  1
  6 19  1  0
  7  8  2  0
  7 18  1  0
  8  9  1  0
  9 10  2  0
 10 11  1  0
 11 12  1  0
 11 18  2  0
 12 13  2  0
 12 17  1  0
 13 14  1  0
 14 15  2  0
 15 16  1  0
 16 17  2  0
 19 20  2  0
  1 21  1  0
  1 22  1  0
  1 23  1  0
  4 24  1  0
  4 25  1  0
  5 26  1  0
  8 27  1  0
  9 28  1  0
 10 29  1  0
 13 30  1  0
 14 31  1  0
 15 32  1  0
 17 33  1  0
 18 34  1  0
 35 36  2  0
 36 37  1  0
 37 38  2  0
 38 39  1  0
 38 40  1  0
 40 41  2  0
 41 35  1  0
 36 42  1  0
 39 43  1  0
 39 44  1  0
 40 45  1  0
  6 35  1  0
M  CHG  1   5   1
M  END
>  <attachment_point>  (442) 
26

>  <score>  (442) 
<NA>

$$$$
CAT-4j
     RDKit          3D

 43 45  0  0  1  0  0  0  0  0999 V2000
   11.7106   -2.3098    1.2658 C   0  0  0  0  0  0  0  0  0  0  0  0
   13.0313   -2.6523    0.7225 N   0  0  0  0  0  0  0  0  0  0  0  0
   14.2010   -2.6281    1.3773 C   0  0  0  0  0  0  0  0  0  0  0  0
   14.3777   -2.3568    2.6732 N   0  0  0  0  0  0  0  0  0  0  0  0
   15.2217   -2.9197    0.5738 N   0  0  0  0  0  0  0  0  0  0  0  0
   14.7965   -3.2519   -0.7875 C   0  0  1  0  0  0  0  0  0  0  0  0
   15.3794   -2.2443   -1.7949 C   0  0  0  0  0  0  0  0  0  0  0  0
   15.9522   -2.6550   -3.0208 C   0  0  0  0  0  0  0  0  0  0  0  0
   16.4340   -1.6937   -3.9273 C   0  0  0  0  0  0  0  0  0  0  0  0
   16.3364   -0.3224   -3.6308 C   0  0  0  0  0  0  0  0  0  0  0  0
   15.7943    0.1250   -2.4073 C   0  0  0  0  0  0  0  0  0  0  0  0
   15.6711    1.5693   -2.0915 C   0  0  0  0  0  0  0  0  0  0  0  0
   15.3832    2.0354   -0.7903 C   0  0  0  0  0  0  0  0  0  0  0  0
   15.3534    3.4188   -0.5357 C   0  0  0  0  0  0  0  0  0  0  0  0
   15.5968    4.3049   -1.5946 C   0  0  0  0  0  0  0  0  0  0  0  0
   15.8275    3.8920   -2.8511 N   0  0  0  0  0  0  0  0  0  0  0  0
   15.8598    2.5642   -3.0762 C   0  0  0  0  0  0  0  0  0  0  0  0
   15.3327   -0.8573   -1.5012 C   0  0  0  0  0  0  0  0  0  0  0  0
   13.2767   -3.0094   -0.6368 C   0  0  0  0  0  0  0  0  0  0  0  0
   12.3981   -3.0674   -1.5055 O   0  0  0  0  0  0  0  0  0  0  0  0
    0.0000    0.0000    0.0000 H   0  0  0  0  0  0  0  0  0  0  0  0
    0.0000    0.0000    0.0000 H   0  0  0  0  0  0  0  0  0  0  0  0
    0.0000    0.0000    0.0000 H   0  0  0  0  0  0  0  0  0  0  0  0
    0.0000    0.0000    0.0000 H   0  0  0  0  0  0  0  0  0  0  0  0
    0.0000    0.0000    0.0000 H   0  0  0  0  0  0  0  0  0  0  0  0
    0.0000    0.0000    0.0000 H   0  0  0  0  0  0  0  0  0  0  0  0
    0.0000    0.0000    0.0000 H   0  0  0  0  0  0  0  0  0  0  0  0
    0.0000    0.0000    0.0000 H   0  0  0  0  0  0  0  0  0  0  0  0
    0.0000    0.0000    0.0000 H   0  0  0  0  0  0  0  0  0  0  0  0
    0.0000    0.0000    0.0000 H   0  0  0  0  0  0  0  0  0  0  0  0
    0.0000    0.0000    0.0000 H   0  0  0  0  0  0  0  0  0  0  0  0
    0.0000    0.0000    0.0000 H   0  0  0  0  0  0  0  0  0  0  0  0
    0.0000    0.0000    0.0000 H   0  0  0  0  0  0  0  0  0  0  0  0
    0.0000    0.0000    0.0000 H   0  0  0  0  0  0  0  0  0  0  0  0
    6.8306   -1.5012   -0.3635 C   0  0  2  0  0  0  0  0  0  0  0  0
    7.0786   -0.4321    0.6273 C   0  0  0  0  0  0  0  0  0  0  0  0
    6.4157   -2.7488    0.0791 N   0  0  0  0  0  0  0  0  0  0  0  0
    6.8230   -1.2488   -1.3994 H   0  0  0  0  0  0  0  0  0  0  0  0
    7.6295    0.3944    0.1438 H   0  0  0  0  0  0  0  0  0  0  0  0
    7.7255   -0.7469    1.4956 H   0  0  0  0  0  0  0  0  0  0  0  0
    6.1371   -0.1068    1.0504 H   0  0  0  0  0  0  0  0  0  0  0  0
    6.9034   -3.0326    0.9737 H   0  0  0  0  0  0  0  0  0  0  0  0
    6.6462   -3.4819   -0.6555 H   0  0  0  0  0  0  0  0  0  0  0  0
  1  2  1  0
  2  3  1  0
  2 19  1  0
  3  4  1  0
  3  5  2  0
  5  6  1  0
  6  7  1  1
  6 19  1  0
  7  8  2  0
  7 18  1  0
  8  9  1  0
  9 10  2  0
 10 11  1  0
 11 12  1  0
 11 18  2  0
 12 13  2  0
 12 17  1  0
 13 14  1  0
 14 15  2  0
 15 16  1  0
 16 17  2  0
 19 20  2  0
  1 21  1  0
  1 22  1  0
  1 23  1  0
  4 24  1  0
  4 25  1  0
  5 26  1  0
  8 27  1  0
  9 28  1  0
 10 29  1  0
 13 30  1  0
 14 31  1  0
 15 32  1  0
 17 33  1  0
 18 34  1  0
 35 36  1  0
 35 37  1  0
 35 38  1  1
 36 39  1  0
 36 40  1  0
 36 41  1  0
 37 42  1  0
 37 43  1  0
  6 35  1  0
M  CHG  1   5   1
M  END
>  <attachment_point>  (443) 
26

>  <score>  (443) 
<NA>

$$$$
CAT-4j
     RDKit          3D

 47 50  0  0  1  0  0  0  0  0999 V2000
   11.7106   -2.3098    1.2658 C   0  0  0  0  0  0  0  0  0  0  0  0
   13.0313   -2.6523    0.7225 N   0  0  0  0  0  0  0  0  0  0  0  0
   14.2010   -2.6281    1.3773 C   0  0  0  0  0  0  0  0  0  0  0  0
   14.3777   -2.3568    2.6732 N   0  0  0  0  0  0  0  0  0  0  0  0
   15.2217   -2.9197    0.5738 N   0  0  0  0  0  0  0  0  0  0  0  0
   14.7965   -3.2519   -0.7875 C   0  0  1  0  0  0  0  0  0  0  0  0
   15.3794   -2.2443   -1.7949 C   0  0  0  0  0  0  0  0  0  0  0  0
   15.9522   -2.6550   -3.0208 C   0  0  0  0  0  0  0  0  0  0  0  0
   16.4340   -1.6937   -3.9273 C   0  0  0  0  0  0  0  0  0  0  0  0
   16.3364   -0.3224   -3.6308 C   0  0  0  0  0  0  0  0  0  0  0  0
   15.7943    0.1250   -2.4073 C   0  0  0  0  0  0  0  0  0  0  0  0
   15.6711    1.5693   -2.0915 C   0  0  0  0  0  0  0  0  0  0  0  0
   15.3832    2.0354   -0.7903 C   0  0  0  0  0  0  0  0  0  0  0  0
   15.3534    3.4188   -0.5357 C   0  0  0  0  0  0  0  0  0  0  0  0
   15.5968    4.3049   -1.5946 C   0  0  0  0  0  0  0  0  0  0  0  0
   15.8275    3.8920   -2.8511 N   0  0  0  0  0  0  0  0  0  0  0  0
   15.8598    2.5642   -3.0762 C   0  0  0  0  0  0  0  0  0  0  0  0
   15.3327   -0.8573   -1.5012 C   0  0  0  0  0  0  0  0  0  0  0  0
   13.2767   -3.0094   -0.6368 C   0  0  0  0  0  0  0  0  0  0  0  0
   12.3981   -3.0674   -1.5055 O   0  0  0  0  0  0  0  0  0  0  0  0
    0.0000    0.0000    0.0000 H   0  0  0  0  0  0  0  0  0  0  0  0
    0.0000    0.0000    0.0000 H   0  0  0  0  0  0  0  0  0  0  0  0
    0.0000    0.0000    0.0000 H   0  0  0  0  0  0  0  0  0  0  0  0
    0.0000    0.0000    0.0000 H   0  0  0  0  0  0  0  0  0  0  0  0
    0.0000    0.0000    0.0000 H   0  0  0  0  0  0  0  0  0  0  0  0
    0.0000    0.0000    0.0000 H   0  0  0  0  0  0  0  0  0  0  0  0
    0.0000    0.0000    0.0000 H   0  0  0  0  0  0  0  0  0  0  0  0
    0.0000    0.0000    0.0000 H   0  0  0  0  0  0  0  0  0  0  0  0
    0.0000    0.0000    0.0000 H   0  0  0  0  0  0  0  0  0  0  0  0
    0.0000    0.0000    0.0000 H   0  0  0  0  0  0  0  0  0  0  0  0
    0.0000    0.0000    0.0000 H   0  0  0  0  0  0  0  0  0  0  0  0
    0.0000    0.0000    0.0000 H   0  0  0  0  0  0  0  0  0  0  0  0
    0.0000    0.0000    0.0000 H   0  0  0  0  0  0  0  0  0  0  0  0
    0.0000    0.0000    0.0000 H   0  0  0  0  0  0  0  0  0  0  0  0
    7.0241   -1.5437   -0.3738 N   0  0  0  0  0  0  0  0  0  0  0  0
    6.4210   -1.6757   -1.6686 C   0  0  0  0  0  0  0  0  0  0  0  0
    6.5818   -3.0872   -2.1728 C   0  0  0  0  0  0  0  0  0  0  0  0
    7.6042   -3.6097   -2.9182 C   0  0  0  0  0  0  0  0  0  0  0  0
    7.5317   -4.8994   -3.2516 C   0  0  0  0  0  0  0  0  0  0  0  0
    6.4373   -5.6022   -2.8212 C   0  0  0  0  0  0  0  0  0  0  0  0
    5.5441   -4.4233   -1.9597 S   0  0  0  0  0  0  0  0  0  0  0  0
    6.7023   -0.7401    0.1705 H   0  0  0  0  0  0  0  0  0  0  0  0
    5.3404   -1.4993   -1.5835 H   0  0  0  0  0  0  0  0  0  0  0  0
    6.9388   -0.9706   -2.3553 H   0  0  0  0  0  0  0  0  0  0  0  0
    8.4422   -2.9470   -3.2116 H   0  0  0  0  0  0  0  0  0  0  0  0
    8.2997   -5.4272   -3.8508 H   0  0  0  0  0  0  0  0  0  0  0  0
    6.2028   -6.6684   -2.9955 H   0  0  0  0  0  0  0  0  0  0  0  0
  1  2  1  0
  2  3  1  0
  2 19  1  0
  3  4  1  0
  3  5  2  0
  5  6  1  0
  6  7  1  0
  6 19  1  0
  7  8  2  0
  7 18  1  0
  8  9  1  0
  9 10  2  0
 10 11  1  0
 11 12  1  0
 11 18  2  0
 12 13  2  0
 12 17  1  0
 13 14  1  0
 14 15  2  0
 15 16  1  0
 16 17  2  0
 19 20  2  0
  1 21  1  0
  1 22  1  0
  1 23  1  0
  4 24  1  0
  4 25  1  0
  5 26  1  0
  8 27  1  0
  9 28  1  0
 10 29  1  0
 13 30  1  0
 14 31  1  0
 15 32  1  0
 17 33  1  0
 18 34  1  0
 35 36  1  0
 36 37  1  0
 37 38  2  0
 38 39  1  0
 39 40  2  0
 40 41  1  0
 41 37  1  0
 35 42  1  0
 36 43  1  0
 36 44  1  0
 38 45  1  0
 39 46  1  0
 40 47  1  0
  6 35  1  6
M  CHG  1   5   1
M  END
>  <attachment_point>  (444) 
26

>  <score>  (444) 
<NA>

$$$$
CAT-4j
     RDKit          3D

 56 59  0  0  1  0  0  0  0  0999 V2000
   11.7106   -2.3098    1.2658 C   0  0  0  0  0  0  0  0  0  0  0  0
   13.0313   -2.6523    0.7225 N   0  0  0  0  0  0  0  0  0  0  0  0
   14.2010   -2.6281    1.3773 C   0  0  0  0  0  0  0  0  0  0  0  0
   14.3777   -2.3568    2.6732 N   0  0  0  0  0  0  0  0  0  0  0  0
   15.2217   -2.9197    0.5738 N   0  0  0  0  0  0  0  0  0  0  0  0
   14.7965   -3.2519   -0.7875 C   0  0  1  0  0  0  0  0  0  0  0  0
   15.3794   -2.2443   -1.7949 C   0  0  0  0  0  0  0  0  0  0  0  0
   15.9522   -2.6550   -3.0208 C   0  0  0  0  0  0  0  0  0  0  0  0
   16.4340   -1.6937   -3.9273 C   0  0  0  0  0  0  0  0  0  0  0  0
   16.3364   -0.3224   -3.6308 C   0  0  0  0  0  0  0  0  0  0  0  0
   15.7943    0.1250   -2.4073 C   0  0  0  0  0  0  0  0  0  0  0  0
   15.6711    1.5693   -2.0915 C   0  0  0  0  0  0  0  0  0  0  0  0
   15.3832    2.0354   -0.7903 C   0  0  0  0  0  0  0  0  0  0  0  0
   15.3534    3.4188   -0.5357 C   0  0  0  0  0  0  0  0  0  0  0  0
   15.5968    4.3049   -1.5946 C   0  0  0  0  0  0  0  0  0  0  0  0
   15.8275    3.8920   -2.8511 N   0  0  0  0  0  0  0  0  0  0  0  0
   15.8598    2.5642   -3.0762 C   0  0  0  0  0  0  0  0  0  0  0  0
   15.3327   -0.8573   -1.5012 C   0  0  0  0  0  0  0  0  0  0  0  0
   13.2767   -3.0094   -0.6368 C   0  0  0  0  0  0  0  0  0  0  0  0
   12.3981   -3.0674   -1.5055 O   0  0  0  0  0  0  0  0  0  0  0  0
    0.0000    0.0000    0.0000 H   0  0  0  0  0  0  0  0  0  0  0  0
    0.0000    0.0000    0.0000 H   0  0  0  0  0  0  0  0  0  0  0  0
    0.0000    0.0000    0.0000 H   0  0  0  0  0  0  0  0  0  0  0  0
    0.0000    0.0000    0.0000 H   0  0  0  0  0  0  0  0  0  0  0  0
    0.0000    0.0000    0.0000 H   0  0  0  0  0  0  0  0  0  0  0  0
    0.0000    0.0000    0.0000 H   0  0  0  0  0  0  0  0  0  0  0  0
    0.0000    0.0000    0.0000 H   0  0  0  0  0  0  0  0  0  0  0  0
    0.0000    0.0000    0.0000 H   0  0  0  0  0  0  0  0  0  0  0  0
    0.0000    0.0000    0.0000 H   0  0  0  0  0  0  0  0  0  0  0  0
    0.0000    0.0000    0.0000 H   0  0  0  0  0  0  0  0  0  0  0  0
    0.0000    0.0000    0.0000 H   0  0  0  0  0  0  0  0  0  0  0  0
    0.0000    0.0000    0.0000 H   0  0  0  0  0  0  0  0  0  0  0  0
    0.0000    0.0000    0.0000 H   0  0  0  0  0  0  0  0  0  0  0  0
    0.0000    0.0000    0.0000 H   0  0  0  0  0  0  0  0  0  0  0  0
    6.9076   -1.5181   -0.3676 N   0  0  0  0  0  0  0  0  0  0  0  0
    7.1026   -0.3207    0.4344 C   0  0  0  0  0  0  0  0  0  0  0  0
    7.7572   -0.6021    1.7399 C   0  0  0  0  0  0  0  0  0  0  0  0
    7.0586   -1.4999    2.6114 N   0  0  0  0  0  0  0  0  0  0  0  0
    7.8755   -1.6816    3.7815 C   0  0  0  0  0  0  0  0  0  0  0  0
    7.1801   -2.0531    5.0195 C   0  0  0  0  0  0  0  0  0  0  0  0
    5.8880   -1.5720    5.1524 O   0  0  0  0  0  0  0  0  0  0  0  0
    5.6723   -0.5148    4.2728 C   0  0  0  0  0  0  0  0  0  0  0  0
    5.7043   -1.1627    2.8786 C   0  0  0  0  0  0  0  0  0  0  0  0
    6.8009   -1.1986   -1.3659 H   0  0  0  0  0  0  0  0  0  0  0  0
    7.7692    0.4119   -0.1120 H   0  0  0  0  0  0  0  0  0  0  0  0
    6.1302    0.1991    0.4980 H   0  0  0  0  0  0  0  0  0  0  0  0
    7.9084    0.3925    2.2532 H   0  0  0  0  0  0  0  0  0  0  0  0
    8.7871   -0.9772    1.5701 H   0  0  0  0  0  0  0  0  0  0  0  0
    8.5823   -2.5291    3.5232 H   0  0  0  0  0  0  0  0  0  0  0  0
    8.5539   -0.8136    3.9401 H   0  0  0  0  0  0  0  0  0  0  0  0
    7.1483   -3.1625    5.1814 H   0  0  0  0  0  0  0  0  0  0  0  0
    7.7449   -1.6584    5.9066 H   0  0  0  0  0  0  0  0  0  0  0  0
    6.4643    0.2263    4.3765 H   0  0  0  0  0  0  0  0  0  0  0  0
    4.7069   -0.0485    4.4804 H   0  0  0  0  0  0  0  0  0  0  0  0
    5.2353   -0.4844    2.1639 H   0  0  0  0  0  0  0  0  0  0  0  0
    5.1258   -2.1323    2.9304 H   0  0  0  0  0  0  0  0  0  0  0  0
  1  2  1  0
  2  3  1  0
  2 19  1  0
  3  4  1  0
  3  5  2  0
  5  6  1  0
  6  7  1  0
  6 19  1  0
  7  8  2  0
  7 18  1  0
  8  9  1  0
  9 10  2  0
 10 11  1  0
 11 12  1  0
 11 18  2  0
 12 13  2  0
 12 17  1  0
 13 14  1  0
 14 15  2  0
 15 16  1  0
 16 17  2  0
 19 20  2  0
  1 21  1  0
  1 22  1  0
  1 23  1  0
  4 24  1  0
  4 25  1  0
  5 26  1  0
  8 27  1  0
  9 28  1  0
 10 29  1  0
 13 30  1  0
 14 31  1  0
 15 32  1  0
 17 33  1  0
 18 34  1  0
 35 36  1  0
 36 37  1  0
 37 38  1  0
 38 39  1  0
 39 40  1  0
 40 41  1  0
 41 42  1  0
 42 43  1  0
 43 38  1  0
 35 44  1  0
 36 45  1  0
 36 46  1  0
 37 47  1  0
 37 48  1  0
 39 49  1  0
 39 50  1  0
 40 51  1  0
 40 52  1  0
 42 53  1  0
 42 54  1  0
 43 55  1  0
 43 56  1  0
  6 35  1  6
M  CHG  1   5   1
M  END
>  <attachment_point>  (445) 
26

>  <score>  (445) 
<NA>

$$$$
CAT-4j
     RDKit          3D

 50 53  0  0  1  0  0  0  0  0999 V2000
   11.7106   -2.3098    1.2658 C   0  0  0  0  0  0  0  0  0  0  0  0
   13.0313   -2.6523    0.7225 N   0  0  0  0  0  0  0  0  0  0  0  0
   14.2010   -2.6281    1.3773 C   0  0  0  0  0  0  0  0  0  0  0  0
   14.3777   -2.3568    2.6732 N   0  0  0  0  0  0  0  0  0  0  0  0
   15.2217   -2.9197    0.5738 N   0  0  0  0  0  0  0  0  0  0  0  0
   14.7965   -3.2519   -0.7875 C   0  0  1  0  0  0  0  0  0  0  0  0
   15.3794   -2.2443   -1.7949 C   0  0  0  0  0  0  0  0  0  0  0  0
   15.9522   -2.6550   -3.0208 C   0  0  0  0  0  0  0  0  0  0  0  0
   16.4340   -1.6937   -3.9273 C   0  0  0  0  0  0  0  0  0  0  0  0
   16.3364   -0.3224   -3.6308 C   0  0  0  0  0  0  0  0  0  0  0  0
   15.7943    0.1250   -2.4073 C   0  0  0  0  0  0  0  0  0  0  0  0
   15.6711    1.5693   -2.0915 C   0  0  0  0  0  0  0  0  0  0  0  0
   15.3832    2.0354   -0.7903 C   0  0  0  0  0  0  0  0  0  0  0  0
   15.3534    3.4188   -0.5357 C   0  0  0  0  0  0  0  0  0  0  0  0
   15.5968    4.3049   -1.5946 C   0  0  0  0  0  0  0  0  0  0  0  0
   15.8275    3.8920   -2.8511 N   0  0  0  0  0  0  0  0  0  0  0  0
   15.8598    2.5642   -3.0762 C   0  0  0  0  0  0  0  0  0  0  0  0
   15.3327   -0.8573   -1.5012 C   0  0  0  0  0  0  0  0  0  0  0  0
   13.2767   -3.0094   -0.6368 C   0  0  0  0  0  0  0  0  0  0  0  0
   12.3981   -3.0674   -1.5055 O   0  0  0  0  0  0  0  0  0  0  0  0
    0.0000    0.0000    0.0000 H   0  0  0  0  0  0  0  0  0  0  0  0
    0.0000    0.0000    0.0000 H   0  0  0  0  0  0  0  0  0  0  0  0
    0.0000    0.0000    0.0000 H   0  0  0  0  0  0  0  0  0  0  0  0
    0.0000    0.0000    0.0000 H   0  0  0  0  0  0  0  0  0  0  0  0
    0.0000    0.0000    0.0000 H   0  0  0  0  0  0  0  0  0  0  0  0
    0.0000    0.0000    0.0000 H   0  0  0  0  0  0  0  0  0  0  0  0
    0.0000    0.0000    0.0000 H   0  0  0  0  0  0  0  0  0  0  0  0
    0.0000    0.0000    0.0000 H   0  0  0  0  0  0  0  0  0  0  0  0
    0.0000    0.0000    0.0000 H   0  0  0  0  0  0  0  0  0  0  0  0
    0.0000    0.0000    0.0000 H   0  0  0  0  0  0  0  0  0  0  0  0
    0.0000    0.0000    0.0000 H   0  0  0  0  0  0  0  0  0  0  0  0
    0.0000    0.0000    0.0000 H   0  0  0  0  0  0  0  0  0  0  0  0
    0.0000    0.0000    0.0000 H   0  0  0  0  0  0  0  0  0  0  0  0
    0.0000    0.0000    0.0000 H   0  0  0  0  0  0  0  0  0  0  0  0
    7.0549   -1.5505   -0.3755 N   0  0  0  0  0  0  0  0  0  0  0  0
    6.5391   -0.2210   -0.5287 C   0  0  0  0  0  0  0  0  0  0  0  0
    6.3200    0.2044   -1.9381 C   0  0  0  0  0  0  0  0  0  0  0  0
    5.6796   -1.0730   -2.9780 S   0  0  0  0  0  6  0  0  0  0  0  0
    6.0418   -0.8133   -4.4008 O   0  0  0  0  0  0  0  0  0  0  0  0
    4.1835   -1.2366   -2.7954 O   0  0  0  0  0  0  0  0  0  0  0  0
    6.4037   -2.6149   -2.3963 C   0  0  0  0  0  0  0  0  0  0  0  0
    6.1940   -2.5753   -0.8754 C   0  0  0  0  0  0  0  0  0  0  0  0
    7.3245    0.4676   -0.0959 H   0  0  0  0  0  0  0  0  0  0  0  0
    5.6368   -0.0276    0.1187 H   0  0  0  0  0  0  0  0  0  0  0  0
    7.2885    0.5417   -2.4110 H   0  0  0  0  0  0  0  0  0  0  0  0
    5.5826    1.0497   -1.9278 H   0  0  0  0  0  0  0  0  0  0  0  0
    7.4986   -2.5360   -2.5667 H   0  0  0  0  0  0  0  0  0  0  0  0
    5.9312   -3.4782   -2.8590 H   0  0  0  0  0  0  0  0  0  0  0  0
    6.4893   -3.5554   -0.4900 H   0  0  0  0  0  0  0  0  0  0  0  0
    5.1141   -2.3920   -0.6759 H   0  0  0  0  0  0  0  0  0  0  0  0
  1  2  1  0
  2  3  1  0
  2 19  1  0
  3  4  1  0
  3  5  2  0
  5  6  1  0
  6  7  1  0
  6 19  1  0
  7  8  2  0
  7 18  1  0
  8  9  1  0
  9 10  2  0
 10 11  1  0
 11 12  1  0
 11 18  2  0
 12 13  2  0
 12 17  1  0
 13 14  1  0
 14 15  2  0
 15 16  1  0
 16 17  2  0
 19 20  2  0
  1 21  1  0
  1 22  1  0
  1 23  1  0
  4 24  1  0
  4 25  1  0
  5 26  1  0
  8 27  1  0
  9 28  1  0
 10 29  1  0
 13 30  1  0
 14 31  1  0
 15 32  1  0
 17 33  1  0
 18 34  1  0
 35 36  1  0
 36 37  1  0
 37 38  1  0
 38 39  2  0
 38 40  2  0
 38 41  1  0
 41 42  1  0
 42 35  1  0
 36 43  1  0
 36 44  1  0
 37 45  1  0
 37 46  1  0
 41 47  1  0
 41 48  1  0
 42 49  1  0
 42 50  1  0
  6 35  1  6
M  CHG  1   5   1
M  END
>  <attachment_point>  (446) 
26

>  <score>  (446) 
<NA>

$$$$
CAT-4j
     RDKit          3D

 54 57  0  0  1  0  0  0  0  0999 V2000
   11.7106   -2.3098    1.2658 C   0  0  0  0  0  0  0  0  0  0  0  0
   13.0313   -2.6523    0.7225 N   0  0  0  0  0  0  0  0  0  0  0  0
   14.2010   -2.6281    1.3773 C   0  0  0  0  0  0  0  0  0  0  0  0
   14.3777   -2.3568    2.6732 N   0  0  0  0  0  0  0  0  0  0  0  0
   15.2217   -2.9197    0.5738 N   0  0  0  0  0  0  0  0  0  0  0  0
   14.7965   -3.2519   -0.7875 C   0  0  1  0  0  0  0  0  0  0  0  0
   15.3794   -2.2443   -1.7949 C   0  0  0  0  0  0  0  0  0  0  0  0
   15.9522   -2.6550   -3.0208 C   0  0  0  0  0  0  0  0  0  0  0  0
   16.4340   -1.6937   -3.9273 C   0  0  0  0  0  0  0  0  0  0  0  0
   16.3364   -0.3224   -3.6308 C   0  0  0  0  0  0  0  0  0  0  0  0
   15.7943    0.1250   -2.4073 C   0  0  0  0  0  0  0  0  0  0  0  0
   15.6711    1.5693   -2.0915 C   0  0  0  0  0  0  0  0  0  0  0  0
   15.3832    2.0354   -0.7903 C   0  0  0  0  0  0  0  0  0  0  0  0
   15.3534    3.4188   -0.5357 C   0  0  0  0  0  0  0  0  0  0  0  0
   15.5968    4.3049   -1.5946 C   0  0  0  0  0  0  0  0  0  0  0  0
   15.8275    3.8920   -2.8511 N   0  0  0  0  0  0  0  0  0  0  0  0
   15.8598    2.5642   -3.0762 C   0  0  0  0  0  0  0  0  0  0  0  0
   15.3327   -0.8573   -1.5012 C   0  0  0  0  0  0  0  0  0  0  0  0
   13.2767   -3.0094   -0.6368 C   0  0  0  0  0  0  0  0  0  0  0  0
   12.3981   -3.0674   -1.5055 O   0  0  0  0  0  0  0  0  0  0  0  0
    0.0000    0.0000    0.0000 H   0  0  0  0  0  0  0  0  0  0  0  0
    0.0000    0.0000    0.0000 H   0  0  0  0  0  0  0  0  0  0  0  0
    0.0000    0.0000    0.0000 H   0  0  0  0  0  0  0  0  0  0  0  0
    0.0000    0.0000    0.0000 H   0  0  0  0  0  0  0  0  0  0  0  0
    0.0000    0.0000    0.0000 H   0  0  0  0  0  0  0  0  0  0  0  0
    0.0000    0.0000    0.0000 H   0  0  0  0  0  0  0  0  0  0  0  0
    0.0000    0.0000    0.0000 H   0  0  0  0  0  0  0  0  0  0  0  0
    0.0000    0.0000    0.0000 H   0  0  0  0  0  0  0  0  0  0  0  0
    0.0000    0.0000    0.0000 H   0  0  0  0  0  0  0  0  0  0  0  0
    0.0000    0.0000    0.0000 H   0  0  0  0  0  0  0  0  0  0  0  0
    0.0000    0.0000    0.0000 H   0  0  0  0  0  0  0  0  0  0  0  0
    0.0000    0.0000    0.0000 H   0  0  0  0  0  0  0  0  0  0  0  0
    0.0000    0.0000    0.0000 H   0  0  0  0  0  0  0  0  0  0  0  0
    0.0000    0.0000    0.0000 H   0  0  0  0  0  0  0  0  0  0  0  0
    6.9292   -1.5229   -0.3688 C   0  0  0  0  0  0  0  0  0  0  0  0
    6.0408   -2.5303   -0.1526 C   0  0  0  0  0  0  0  0  0  0  0  0
    4.6833   -2.1840   -0.0872 C   0  0  0  0  0  0  0  0  0  0  0  0
    4.3006   -0.8603   -0.2410 C   0  0  0  0  0  0  0  0  0  0  0  0
    2.9443   -0.5089   -0.1764 O   0  0  0  0  0  0  0  0  0  0  0  0
    2.6086    0.8474   -0.3389 C   0  0  0  0  0  0  0  0  0  0  0  0
    1.9810    1.3678    0.9428 C   0  0  0  0  0  0  0  0  0  0  0  0
    1.7049    1.0750   -1.5288 C   0  0  0  0  0  0  0  0  0  0  0  0
    5.2567    0.0620   -0.4510 N   0  0  0  0  0  0  0  0  0  0  0  0
    6.5765   -0.2252   -0.5216 C   0  0  0  0  0  0  0  0  0  0  0  0
    6.3365   -3.5514   -0.0339 H   0  0  0  0  0  0  0  0  0  0  0  0
    3.9476   -2.9559    0.0831 H   0  0  0  0  0  0  0  0  0  0  0  0
    3.5330    1.4317   -0.4987 H   0  0  0  0  0  0  0  0  0  0  0  0
    2.7927    1.6768    1.6579 H   0  0  0  0  0  0  0  0  0  0  0  0
    1.4008    2.2841    0.7360 H   0  0  0  0  0  0  0  0  0  0  0  0
    1.4033    0.5896    1.4722 H   0  0  0  0  0  0  0  0  0  0  0  0
    2.2483    1.5742   -2.3689 H   0  0  0  0  0  0  0  0  0  0  0  0
    0.8406    1.7209   -1.2752 H   0  0  0  0  0  0  0  0  0  0  0  0
    1.3415    0.0929   -1.9037 H   0  0  0  0  0  0  0  0  0  0  0  0
    7.3133    0.5457   -0.6918 H   0  0  0  0  0  0  0  0  0  0  0  0
  1  2  1  0
  2  3  1  0
  2 19  1  0
  3  4  1  0
  3  5  2  0
  5  6  1  0
  6  7  1  1
  6 19  1  0
  7  8  2  0
  7 18  1  0
  8  9  1  0
  9 10  2  0
 10 11  1  0
 11 12  1  0
 11 18  2  0
 12 13  2  0
 12 17  1  0
 13 14  1  0
 14 15  2  0
 15 16  1  0
 16 17  2  0
 19 20  2  0
  1 21  1  0
  1 22  1  0
  1 23  1  0
  4 24  1  0
  4 25  1  0
  5 26  1  0
  8 27  1  0
  9 28  1  0
 10 29  1  0
 13 30  1  0
 14 31  1  0
 15 32  1  0
 17 33  1  0
 18 34  1  0
 35 36  2  0
 36 37  1  0
 37 38  2  0
 38 39  1  0
 39 40  1  0
 40 41  1  0
 40 42  1  0
 38 43  1  0
 43 44  2  0
 44 35  1  0
 36 45  1  0
 37 46  1  0
 40 47  1  0
 41 48  1  0
 41 49  1  0
 41 50  1  0
 42 51  1  0
 42 52  1  0
 42 53  1  0
 44 54  1  0
  6 35  1  0
M  CHG  1   5   1
M  END
>  <attachment_point>  (447) 
26

>  <score>  (447) 
<NA>

$$$$
CAT-4j
     RDKit          3D

 43 46  0  0  1  0  0  0  0  0999 V2000
   11.7106   -2.3098    1.2658 C   0  0  0  0  0  0  0  0  0  0  0  0
   13.0313   -2.6523    0.7225 N   0  0  0  0  0  0  0  0  0  0  0  0
   14.2010   -2.6281    1.3773 C   0  0  0  0  0  0  0  0  0  0  0  0
   14.3777   -2.3568    2.6732 N   0  0  0  0  0  0  0  0  0  0  0  0
   15.2217   -2.9197    0.5738 N   0  0  0  0  0  0  0  0  0  0  0  0
   14.7965   -3.2519   -0.7875 C   0  0  1  0  0  0  0  0  0  0  0  0
   15.3794   -2.2443   -1.7949 C   0  0  0  0  0  0  0  0  0  0  0  0
   15.9522   -2.6550   -3.0208 C   0  0  0  0  0  0  0  0  0  0  0  0
   16.4340   -1.6937   -3.9273 C   0  0  0  0  0  0  0  0  0  0  0  0
   16.3364   -0.3224   -3.6308 C   0  0  0  0  0  0  0  0  0  0  0  0
   15.7943    0.1250   -2.4073 C   0  0  0  0  0  0  0  0  0  0  0  0
   15.6711    1.5693   -2.0915 C   0  0  0  0  0  0  0  0  0  0  0  0
   15.3832    2.0354   -0.7903 C   0  0  0  0  0  0  0  0  0  0  0  0
   15.3534    3.4188   -0.5357 C   0  0  0  0  0  0  0  0  0  0  0  0
   15.5968    4.3049   -1.5946 C   0  0  0  0  0  0  0  0  0  0  0  0
   15.8275    3.8920   -2.8511 N   0  0  0  0  0  0  0  0  0  0  0  0
   15.8598    2.5642   -3.0762 C   0  0  0  0  0  0  0  0  0  0  0  0
   15.3327   -0.8573   -1.5012 C   0  0  0  0  0  0  0  0  0  0  0  0
   13.2767   -3.0094   -0.6368 C   0  0  0  0  0  0  0  0  0  0  0  0
   12.3981   -3.0674   -1.5055 O   0  0  0  0  0  0  0  0  0  0  0  0
    0.0000    0.0000    0.0000 H   0  0  0  0  0  0  0  0  0  0  0  0
    0.0000    0.0000    0.0000 H   0  0  0  0  0  0  0  0  0  0  0  0
    0.0000    0.0000    0.0000 H   0  0  0  0  0  0  0  0  0  0  0  0
    0.0000    0.0000    0.0000 H   0  0  0  0  0  0  0  0  0  0  0  0
    0.0000    0.0000    0.0000 H   0  0  0  0  0  0  0  0  0  0  0  0
    0.0000    0.0000    0.0000 H   0  0  0  0  0  0  0  0  0  0  0  0
    0.0000    0.0000    0.0000 H   0  0  0  0  0  0  0  0  0  0  0  0
    0.0000    0.0000    0.0000 H   0  0  0  0  0  0  0  0  0  0  0  0
    0.0000    0.0000    0.0000 H   0  0  0  0  0  0  0  0  0  0  0  0
    0.0000    0.0000    0.0000 H   0  0  0  0  0  0  0  0  0  0  0  0
    0.0000    0.0000    0.0000 H   0  0  0  0  0  0  0  0  0  0  0  0
    0.0000    0.0000    0.0000 H   0  0  0  0  0  0  0  0  0  0  0  0
    0.0000    0.0000    0.0000 H   0  0  0  0  0  0  0  0  0  0  0  0
    0.0000    0.0000    0.0000 H   0  0  0  0  0  0  0  0  0  0  0  0
    6.9588   -1.5294   -0.3704 C   0  0  0  0  0  0  0  0  0  0  0  0
    6.5524   -0.2530    0.0216 C   0  0  0  0  0  0  0  0  0  0  0  0
    5.2136    0.0430    0.0934 C   0  0  0  0  0  0  0  0  0  0  0  0
    4.3437   -0.9233   -0.2214 N   0  0  0  0  0  0  0  0  0  0  0  0
    4.7327   -2.1392   -0.5946 N   0  0  0  0  0  0  0  0  0  0  0  0
    6.0238   -2.4865   -0.6832 C   0  0  0  0  0  0  0  0  0  0  0  0
    7.2987    0.4931    0.2658 H   0  0  0  0  0  0  0  0  0  0  0  0
    4.8436    0.9979    0.3856 H   0  0  0  0  0  0  0  0  0  0  0  0
    6.2656   -3.4858   -0.9913 H   0  0  0  0  0  0  0  0  0  0  0  0
  1  2  1  0
  2  3  1  0
  2 19  1  0
  3  4  1  0
  3  5  2  0
  5  6  1  0
  6  7  1  1
  6 19  1  0
  7  8  2  0
  7 18  1  0
  8  9  1  0
  9 10  2  0
 10 11  1  0
 11 12  1  0
 11 18  2  0
 12 13  2  0
 12 17  1  0
 13 14  1  0
 14 15  2  0
 15 16  1  0
 16 17  2  0
 19 20  2  0
  1 21  1  0
  1 22  1  0
  1 23  1  0
  4 24  1  0
  4 25  1  0
  5 26  1  0
  8 27  1  0
  9 28  1  0
 10 29  1  0
 13 30  1  0
 14 31  1  0
 15 32  1  0
 17 33  1  0
 18 34  1  0
 35 36  2  0
 36 37  1  0
 37 38  2  0
 38 39  1  0
 39 40  2  0
 40 35  1  0
 36 41  1  0
 37 42  1  0
 40 43  1  0
  6 35  1  0
M  CHG  1   5   1
M  END
>  <attachment_point>  (448) 
26

>  <score>  (448) 
<NA>

$$$$
CAT-4j
     RDKit          3D

 44 47  0  0  1  0  0  0  0  0999 V2000
   11.7106   -2.3098    1.2658 C   0  0  0  0  0  0  0  0  0  0  0  0
   13.0313   -2.6523    0.7225 N   0  0  0  0  0  0  0  0  0  0  0  0
   14.2010   -2.6281    1.3773 C   0  0  0  0  0  0  0  0  0  0  0  0
   14.3777   -2.3568    2.6732 N   0  0  0  0  0  0  0  0  0  0  0  0
   15.2217   -2.9197    0.5738 N   0  0  0  0  0  0  0  0  0  0  0  0
   14.7965   -3.2519   -0.7875 C   0  0  1  0  0  0  0  0  0  0  0  0
   15.3794   -2.2443   -1.7949 C   0  0  0  0  0  0  0  0  0  0  0  0
   15.9522   -2.6550   -3.0208 C   0  0  0  0  0  0  0  0  0  0  0  0
   16.4340   -1.6937   -3.9273 C   0  0  0  0  0  0  0  0  0  0  0  0
   16.3364   -0.3224   -3.6308 C   0  0  0  0  0  0  0  0  0  0  0  0
   15.7943    0.1250   -2.4073 C   0  0  0  0  0  0  0  0  0  0  0  0
   15.6711    1.5693   -2.0915 C   0  0  0  0  0  0  0  0  0  0  0  0
   15.3832    2.0354   -0.7903 C   0  0  0  0  0  0  0  0  0  0  0  0
   15.3534    3.4188   -0.5357 C   0  0  0  0  0  0  0  0  0  0  0  0
   15.5968    4.3049   -1.5946 C   0  0  0  0  0  0  0  0  0  0  0  0
   15.8275    3.8920   -2.8511 N   0  0  0  0  0  0  0  0  0  0  0  0
   15.8598    2.5642   -3.0762 C   0  0  0  0  0  0  0  0  0  0  0  0
   15.3327   -0.8573   -1.5012 C   0  0  0  0  0  0  0  0  0  0  0  0
   13.2767   -3.0094   -0.6368 C   0  0  0  0  0  0  0  0  0  0  0  0
   12.3981   -3.0674   -1.5055 O   0  0  0  0  0  0  0  0  0  0  0  0
    0.0000    0.0000    0.0000 H   0  0  0  0  0  0  0  0  0  0  0  0
    0.0000    0.0000    0.0000 H   0  0  0  0  0  0  0  0  0  0  0  0
    0.0000    0.0000    0.0000 H   0  0  0  0  0  0  0  0  0  0  0  0
    0.0000    0.0000    0.0000 H   0  0  0  0  0  0  0  0  0  0  0  0
    0.0000    0.0000    0.0000 H   0  0  0  0  0  0  0  0  0  0  0  0
    0.0000    0.0000    0.0000 H   0  0  0  0  0  0  0  0  0  0  0  0
    0.0000    0.0000    0.0000 H   0  0  0  0  0  0  0  0  0  0  0  0
    0.0000    0.0000    0.0000 H   0  0  0  0  0  0  0  0  0  0  0  0
    0.0000    0.0000    0.0000 H   0  0  0  0  0  0  0  0  0  0  0  0
    0.0000    0.0000    0.0000 H   0  0  0  0  0  0  0  0  0  0  0  0
    0.0000    0.0000    0.0000 H   0  0  0  0  0  0  0  0  0  0  0  0
    0.0000    0.0000    0.0000 H   0  0  0  0  0  0  0  0  0  0  0  0
    0.0000    0.0000    0.0000 H   0  0  0  0  0  0  0  0  0  0  0  0
    0.0000    0.0000    0.0000 H   0  0  0  0  0  0  0  0  0  0  0  0
    6.9717   -1.5322   -0.3710 C   0  0  0  0  0  0  0  0  0  0  0  0
    6.6106   -0.1999   -0.3872 C   0  0  0  0  0  0  0  0  0  0  0  0
    5.2564    0.0571   -0.3139 C   0  0  0  0  0  0  0  0  0  0  0  0
    4.3450   -0.9922   -0.2299 C   0  0  0  0  0  0  0  0  0  0  0  0
    3.0102   -0.7395   -0.1576 F   0  0  0  0  0  0  0  0  0  0  0  0
    4.7404   -2.3146   -0.2160 C   0  0  0  0  0  0  0  0  0  0  0  0
    6.0688   -2.5288   -0.2890 N   0  0  0  0  0  0  0  0  0  0  0  0
    7.3518    0.5854   -0.4536 H   0  0  0  0  0  0  0  0  0  0  0  0
    4.9339    1.0997   -0.3241 H   0  0  0  0  0  0  0  0  0  0  0  0
    4.0353   -3.1332   -0.1508 H   0  0  0  0  0  0  0  0  0  0  0  0
  1  2  1  0
  2  3  1  0
  2 19  1  0
  3  4  1  0
  3  5  2  0
  5  6  1  0
  6  7  1  1
  6 19  1  0
  7  8  2  0
  7 18  1  0
  8  9  1  0
  9 10  2  0
 10 11  1  0
 11 12  1  0
 11 18  2  0
 12 13  2  0
 12 17  1  0
 13 14  1  0
 14 15  2  0
 15 16  1  0
 16 17  2  0
 19 20  2  0
  1 21  1  0
  1 22  1  0
  1 23  1  0
  4 24  1  0
  4 25  1  0
  5 26  1  0
  8 27  1  0
  9 28  1  0
 10 29  1  0
 13 30  1  0
 14 31  1  0
 15 32  1  0
 17 33  1  0
 18 34  1  0
 35 36  2  0
 36 37  1  0
 37 38  2  0
 38 39  1  0
 38 40  1  0
 40 41  2  0
 41 35  1  0
 36 42  1  0
 37 43  1  0
 40 44  1  0
  6 35  1  0
M  CHG  1   5   1
M  END
>  <attachment_point>  (449) 
26

>  <score>  (449) 
<NA>

$$$$
CAT-4j
     RDKit          3D

 50 54  0  0  1  0  0  0  0  0999 V2000
   11.7106   -2.3098    1.2658 C   0  0  0  0  0  0  0  0  0  0  0  0
   13.0313   -2.6523    0.7225 N   0  0  0  0  0  0  0  0  0  0  0  0
   14.2010   -2.6281    1.3773 C   0  0  0  0  0  0  0  0  0  0  0  0
   14.3777   -2.3568    2.6732 N   0  0  0  0  0  0  0  0  0  0  0  0
   15.2217   -2.9197    0.5738 N   0  0  0  0  0  0  0  0  0  0  0  0
   14.7965   -3.2519   -0.7875 C   0  0  1  0  0  0  0  0  0  0  0  0
   15.3794   -2.2443   -1.7949 C   0  0  0  0  0  0  0  0  0  0  0  0
   15.9522   -2.6550   -3.0208 C   0  0  0  0  0  0  0  0  0  0  0  0
   16.4340   -1.6937   -3.9273 C   0  0  0  0  0  0  0  0  0  0  0  0
   16.3364   -0.3224   -3.6308 C   0  0  0  0  0  0  0  0  0  0  0  0
   15.7943    0.1250   -2.4073 C   0  0  0  0  0  0  0  0  0  0  0  0
   15.6711    1.5693   -2.0915 C   0  0  0  0  0  0  0  0  0  0  0  0
   15.3832    2.0354   -0.7903 C   0  0  0  0  0  0  0  0  0  0  0  0
   15.3534    3.4188   -0.5357 C   0  0  0  0  0  0  0  0  0  0  0  0
   15.5968    4.3049   -1.5946 C   0  0  0  0  0  0  0  0  0  0  0  0
   15.8275    3.8920   -2.8511 N   0  0  0  0  0  0  0  0  0  0  0  0
   15.8598    2.5642   -3.0762 C   0  0  0  0  0  0  0  0  0  0  0  0
   15.3327   -0.8573   -1.5012 C   0  0  0  0  0  0  0  0  0  0  0  0
   13.2767   -3.0094   -0.6368 C   0  0  0  0  0  0  0  0  0  0  0  0
   12.3981   -3.0674   -1.5055 O   0  0  0  0  0  0  0  0  0  0  0  0
    0.0000    0.0000    0.0000 H   0  0  0  0  0  0  0  0  0  0  0  0
    0.0000    0.0000    0.0000 H   0  0  0  0  0  0  0  0  0  0  0  0
    0.0000    0.0000    0.0000 H   0  0  0  0  0  0  0  0  0  0  0  0
    0.0000    0.0000    0.0000 H   0  0  0  0  0  0  0  0  0  0  0  0
    0.0000    0.0000    0.0000 H   0  0  0  0  0  0  0  0  0  0  0  0
    0.0000    0.0000    0.0000 H   0  0  0  0  0  0  0  0  0  0  0  0
    0.0000    0.0000    0.0000 H   0  0  0  0  0  0  0  0  0  0  0  0
    0.0000    0.0000    0.0000 H   0  0  0  0  0  0  0  0  0  0  0  0
    0.0000    0.0000    0.0000 H   0  0  0  0  0  0  0  0  0  0  0  0
    0.0000    0.0000    0.0000 H   0  0  0  0  0  0  0  0  0  0  0  0
    0.0000    0.0000    0.0000 H   0  0  0  0  0  0  0  0  0  0  0  0
    0.0000    0.0000    0.0000 H   0  0  0  0  0  0  0  0  0  0  0  0
    0.0000    0.0000    0.0000 H   0  0  0  0  0  0  0  0  0  0  0  0
    0.0000    0.0000    0.0000 H   0  0  0  0  0  0  0  0  0  0  0  0
    6.9257   -1.5221   -0.3686 C   0  0  0  0  0  0  0  0  0  0  0  0
    6.6322   -0.2656    0.0564 C   0  0  0  0  0  0  0  0  0  0  0  0
    5.3238    0.0586    0.1387 N   0  0  0  0  0  0  0  0  0  0  0  0
    4.3417   -0.8125   -0.1821 C   0  0  0  0  0  0  0  0  0  0  0  0
    4.6812   -2.0804   -0.6100 C   0  0  0  0  0  0  0  0  0  0  0  0
    3.7237   -3.0091   -0.9501 C   0  0  0  0  0  0  0  0  0  0  0  0
    4.0981   -4.2635   -1.3725 C   0  0  0  0  0  0  0  0  0  0  0  0
    5.4121   -4.6675   -1.4822 C   0  0  0  0  0  0  0  0  0  0  0  0
    6.3793   -3.7452   -1.1440 C   0  0  0  0  0  0  0  0  0  0  0  0
    6.0236   -2.4818   -0.7180 C   0  0  0  0  0  0  0  0  0  0  0  0
    7.4286    0.4355    0.3148 H   0  0  0  0  0  0  0  0  0  0  0  0
    3.3027   -0.4927   -0.0954 H   0  0  0  0  0  0  0  0  0  0  0  0
    2.6767   -2.7077   -0.8699 H   0  0  0  0  0  0  0  0  0  0  0  0
    3.3068   -4.9763   -1.6348 H   0  0  0  0  0  0  0  0  0  0  0  0
    5.6560   -5.6725   -1.8218 H   0  0  0  0  0  0  0  0  0  0  0  0
    7.4247   -4.0268   -1.2175 H   0  0  0  0  0  0  0  0  0  0  0  0
  1  2  1  0
  2  3  1  0
  2 19  1  0
  3  4  1  0
  3  5  2  0
  5  6  1  0
  6  7  1  1
  6 19  1  0
  7  8  2  0
  7 18  1  0
  8  9  1  0
  9 10  2  0
 10 11  1  0
 11 12  1  0
 11 18  2  0
 12 13  2  0
 12 17  1  0
 13 14  1  0
 14 15  2  0
 15 16  1  0
 16 17  2  0
 19 20  2  0
  1 21  1  0
  1 22  1  0
  1 23  1  0
  4 24  1  0
  4 25  1  0
  5 26  1  0
  8 27  1  0
  9 28  1  0
 10 29  1  0
 13 30  1  0
 14 31  1  0
 15 32  1  0
 17 33  1  0
 18 34  1  0
 35 36  2  0
 36 37  1  0
 37 38  2  0
 38 39  1  0
 39 40  2  0
 40 41  1  0
 41 42  2  0
 42 43  1  0
 43 44  2  0
 44 35  1  0
 44 39  1  0
 36 45  1  0
 38 46  1  0
 40 47  1  0
 41 48  1  0
 42 49  1  0
 43 50  1  0
  6 35  1  0
M  CHG  1   5   1
M  END
>  <attachment_point>  (450) 
26

>  <score>  (450) 
<NA>

$$$$
CAT-4j
     RDKit          3D

 47 50  0  0  1  0  0  0  0  0999 V2000
   11.7106   -2.3098    1.2658 C   0  0  0  0  0  0  0  0  0  0  0  0
   13.0313   -2.6523    0.7225 N   0  0  0  0  0  0  0  0  0  0  0  0
   14.2010   -2.6281    1.3773 C   0  0  0  0  0  0  0  0  0  0  0  0
   14.3777   -2.3568    2.6732 N   0  0  0  0  0  0  0  0  0  0  0  0
   15.2217   -2.9197    0.5738 N   0  0  0  0  0  0  0  0  0  0  0  0
   14.7965   -3.2519   -0.7875 C   0  0  1  0  0  0  0  0  0  0  0  0
   15.3794   -2.2443   -1.7949 C   0  0  0  0  0  0  0  0  0  0  0  0
   15.9522   -2.6550   -3.0208 C   0  0  0  0  0  0  0  0  0  0  0  0
   16.4340   -1.6937   -3.9273 C   0  0  0  0  0  0  0  0  0  0  0  0
   16.3364   -0.3224   -3.6308 C   0  0  0  0  0  0  0  0  0  0  0  0
   15.7943    0.1250   -2.4073 C   0  0  0  0  0  0  0  0  0  0  0  0
   15.6711    1.5693   -2.0915 C   0  0  0  0  0  0  0  0  0  0  0  0
   15.3832    2.0354   -0.7903 C   0  0  0  0  0  0  0  0  0  0  0  0
   15.3534    3.4188   -0.5357 C   0  0  0  0  0  0  0  0  0  0  0  0
   15.5968    4.3049   -1.5946 C   0  0  0  0  0  0  0  0  0  0  0  0
   15.8275    3.8920   -2.8511 N   0  0  0  0  0  0  0  0  0  0  0  0
   15.8598    2.5642   -3.0762 C   0  0  0  0  0  0  0  0  0  0  0  0
   15.3327   -0.8573   -1.5012 C   0  0  0  0  0  0  0  0  0  0  0  0
   13.2767   -3.0094   -0.6368 C   0  0  0  0  0  0  0  0  0  0  0  0
   12.3981   -3.0674   -1.5055 O   0  0  0  0  0  0  0  0  0  0  0  0
    0.0000    0.0000    0.0000 H   0  0  0  0  0  0  0  0  0  0  0  0
    0.0000    0.0000    0.0000 H   0  0  0  0  0  0  0  0  0  0  0  0
    0.0000    0.0000    0.0000 H   0  0  0  0  0  0  0  0  0  0  0  0
    0.0000    0.0000    0.0000 H   0  0  0  0  0  0  0  0  0  0  0  0
    0.0000    0.0000    0.0000 H   0  0  0  0  0  0  0  0  0  0  0  0
    0.0000    0.0000    0.0000 H   0  0  0  0  0  0  0  0  0  0  0  0
    0.0000    0.0000    0.0000 H   0  0  0  0  0  0  0  0  0  0  0  0
    0.0000    0.0000    0.0000 H   0  0  0  0  0  0  0  0  0  0  0  0
    0.0000    0.0000    0.0000 H   0  0  0  0  0  0  0  0  0  0  0  0
    0.0000    0.0000    0.0000 H   0  0  0  0  0  0  0  0  0  0  0  0
    0.0000    0.0000    0.0000 H   0  0  0  0  0  0  0  0  0  0  0  0
    0.0000    0.0000    0.0000 H   0  0  0  0  0  0  0  0  0  0  0  0
    0.0000    0.0000    0.0000 H   0  0  0  0  0  0  0  0  0  0  0  0
    0.0000    0.0000    0.0000 H   0  0  0  0  0  0  0  0  0  0  0  0
    6.9959   -1.5375   -0.3723 N   0  0  0  0  0  0  0  0  0  0  0  0
    6.0499   -2.6034   -0.5842 C   0  0  0  0  0  0  0  0  0  0  0  0
    5.4739   -2.8382   -1.8090 C   0  0  0  0  0  0  0  0  0  0  0  0
    4.5708   -3.8910   -1.9709 C   0  0  0  0  0  0  0  0  0  0  0  0
    4.2391   -4.7104   -0.9129 C   0  0  0  0  0  0  0  0  0  0  0  0
    3.1198   -6.0383   -1.0962 Cl  0  0  0  0  0  0  0  0  0  0  0  0
    4.8170   -4.4774    0.3274 C   0  0  0  0  0  0  0  0  0  0  0  0
    5.7068   -3.4335    0.4647 C   0  0  0  0  0  0  0  0  0  0  0  0
    6.7602   -0.5625   -0.1745 H   0  0  0  0  0  0  0  0  0  0  0  0
    5.6957   -2.2187   -2.6684 H   0  0  0  0  0  0  0  0  0  0  0  0
    4.0997   -4.0992   -2.9101 H   0  0  0  0  0  0  0  0  0  0  0  0
    4.5837   -5.0998    1.2018 H   0  0  0  0  0  0  0  0  0  0  0  0
    6.1409   -3.2657    1.4229 H   0  0  0  0  0  0  0  0  0  0  0  0
  1  2  1  0
  2  3  1  0
  2 19  1  0
  3  4  1  0
  3  5  2  0
  5  6  1  0
  6  7  1  0
  6 19  1  0
  7  8  2  0
  7 18  1  0
  8  9  1  0
  9 10  2  0
 10 11  1  0
 11 12  1  0
 11 18  2  0
 12 13  2  0
 12 17  1  0
 13 14  1  0
 14 15  2  0
 15 16  1  0
 16 17  2  0
 19 20  2  0
  1 21  1  0
  1 22  1  0
  1 23  1  0
  4 24  1  0
  4 25  1  0
  5 26  1  0
  8 27  1  0
  9 28  1  0
 10 29  1  0
 13 30  1  0
 14 31  1  0
 15 32  1  0
 17 33  1  0
 18 34  1  0
 35 36  1  0
 36 37  2  0
 37 38  1  0
 38 39  2  0
 39 40  1  0
 39 41  1  0
 41 42  2  0
 42 36  1  0
 35 43  1  0
 37 44  1  0
 38 45  1  0
 41 46  1  0
 42 47  1  0
  6 35  1  6
M  CHG  1   5   1
M  END
>  <attachment_point>  (451) 
26

>  <score>  (451) 
<NA>

$$$$
CAT-4j
     RDKit          3D

 46 49  0  0  1  0  0  0  0  0999 V2000
   11.7106   -2.3098    1.2658 C   0  0  0  0  0  0  0  0  0  0  0  0
   13.0313   -2.6523    0.7225 N   0  0  0  0  0  0  0  0  0  0  0  0
   14.2010   -2.6281    1.3773 C   0  0  0  0  0  0  0  0  0  0  0  0
   14.3777   -2.3568    2.6732 N   0  0  0  0  0  0  0  0  0  0  0  0
   15.2217   -2.9197    0.5738 N   0  0  0  0  0  0  0  0  0  0  0  0
   14.7965   -3.2519   -0.7875 C   0  0  1  0  0  0  0  0  0  0  0  0
   15.3794   -2.2443   -1.7949 C   0  0  0  0  0  0  0  0  0  0  0  0
   15.9522   -2.6550   -3.0208 C   0  0  0  0  0  0  0  0  0  0  0  0
   16.4340   -1.6937   -3.9273 C   0  0  0  0  0  0  0  0  0  0  0  0
   16.3364   -0.3224   -3.6308 C   0  0  0  0  0  0  0  0  0  0  0  0
   15.7943    0.1250   -2.4073 C   0  0  0  0  0  0  0  0  0  0  0  0
   15.6711    1.5693   -2.0915 C   0  0  0  0  0  0  0  0  0  0  0  0
   15.3832    2.0354   -0.7903 C   0  0  0  0  0  0  0  0  0  0  0  0
   15.3534    3.4188   -0.5357 C   0  0  0  0  0  0  0  0  0  0  0  0
   15.5968    4.3049   -1.5946 C   0  0  0  0  0  0  0  0  0  0  0  0
   15.8275    3.8920   -2.8511 N   0  0  0  0  0  0  0  0  0  0  0  0
   15.8598    2.5642   -3.0762 C   0  0  0  0  0  0  0  0  0  0  0  0
   15.3327   -0.8573   -1.5012 C   0  0  0  0  0  0  0  0  0  0  0  0
   13.2767   -3.0094   -0.6368 C   0  0  0  0  0  0  0  0  0  0  0  0
   12.3981   -3.0674   -1.5055 O   0  0  0  0  0  0  0  0  0  0  0  0
    0.0000    0.0000    0.0000 H   0  0  0  0  0  0  0  0  0  0  0  0
    0.0000    0.0000    0.0000 H   0  0  0  0  0  0  0  0  0  0  0  0
    0.0000    0.0000    0.0000 H   0  0  0  0  0  0  0  0  0  0  0  0
    0.0000    0.0000    0.0000 H   0  0  0  0  0  0  0  0  0  0  0  0
    0.0000    0.0000    0.0000 H   0  0  0  0  0  0  0  0  0  0  0  0
    0.0000    0.0000    0.0000 H   0  0  0  0  0  0  0  0  0  0  0  0
    0.0000    0.0000    0.0000 H   0  0  0  0  0  0  0  0  0  0  0  0
    0.0000    0.0000    0.0000 H   0  0  0  0  0  0  0  0  0  0  0  0
    0.0000    0.0000    0.0000 H   0  0  0  0  0  0  0  0  0  0  0  0
    0.0000    0.0000    0.0000 H   0  0  0  0  0  0  0  0  0  0  0  0
    0.0000    0.0000    0.0000 H   0  0  0  0  0  0  0  0  0  0  0  0
    0.0000    0.0000    0.0000 H   0  0  0  0  0  0  0  0  0  0  0  0
    0.0000    0.0000    0.0000 H   0  0  0  0  0  0  0  0  0  0  0  0
    0.0000    0.0000    0.0000 H   0  0  0  0  0  0  0  0  0  0  0  0
    6.9802   -1.5341   -0.3715 N   0  0  0  0  0  0  0  0  0  0  0  0
    6.4914   -0.1844   -0.2012 C   0  0  0  0  0  0  0  0  0  0  0  0
    5.0905   -0.3309   -0.8134 C   0  0  0  0  0  0  0  0  0  0  0  0
    4.6944   -1.6506   -0.1758 C   0  0  0  0  0  0  0  0  0  0  0  0
    5.9063   -2.4535   -0.4484 C   0  0  0  0  0  0  0  0  0  0  0  0
    6.0013   -3.6731   -0.6957 O   0  0  0  0  0  0  0  0  0  0  0  0
    7.0848    0.5683   -0.7108 H   0  0  0  0  0  0  0  0  0  0  0  0
    6.2967    0.0596    0.8756 H   0  0  0  0  0  0  0  0  0  0  0  0
    4.4359    0.4926   -0.5224 H   0  0  0  0  0  0  0  0  0  0  0  0
    5.1658   -0.4888   -1.9013 H   0  0  0  0  0  0  0  0  0  0  0  0
    3.7817   -2.0824   -0.6182 H   0  0  0  0  0  0  0  0  0  0  0  0
    4.5521   -1.4831    0.9232 H   0  0  0  0  0  0  0  0  0  0  0  0
  1  2  1  0
  2  3  1  0
  2 19  1  0
  3  4  1  0
  3  5  2  0
  5  6  1  0
  6  7  1  0
  6 19  1  0
  7  8  2  0
  7 18  1  0
  8  9  1  0
  9 10  2  0
 10 11  1  0
 11 12  1  0
 11 18  2  0
 12 13  2  0
 12 17  1  0
 13 14  1  0
 14 15  2  0
 15 16  1  0
 16 17  2  0
 19 20  2  0
  1 21  1  0
  1 22  1  0
  1 23  1  0
  4 24  1  0
  4 25  1  0
  5 26  1  0
  8 27  1  0
  9 28  1  0
 10 29  1  0
 13 30  1  0
 14 31  1  0
 15 32  1  0
 17 33  1  0
 18 34  1  0
 35 36  1  0
 36 37  1  0
 37 38  1  0
 38 39  1  0
 39 40  2  0
 39 35  1  0
 36 41  1  0
 36 42  1  0
 37 43  1  0
 37 44  1  0
 38 45  1  0
 38 46  1  0
  6 35  1  6
M  CHG  1   5   1
M  END
>  <attachment_point>  (452) 
26

>  <score>  (452) 
<NA>

$$$$
CAT-4j
     RDKit          3D

 56 60  0  0  1  0  0  0  0  0999 V2000
   11.7106   -2.3098    1.2658 C   0  0  0  0  0  0  0  0  0  0  0  0
   13.0313   -2.6523    0.7225 N   0  0  0  0  0  0  0  0  0  0  0  0
   14.2010   -2.6281    1.3773 C   0  0  0  0  0  0  0  0  0  0  0  0
   14.3777   -2.3568    2.6732 N   0  0  0  0  0  0  0  0  0  0  0  0
   15.2217   -2.9197    0.5738 N   0  0  0  0  0  0  0  0  0  0  0  0
   14.7965   -3.2519   -0.7875 C   0  0  1  0  0  0  0  0  0  0  0  0
   15.3794   -2.2443   -1.7949 C   0  0  0  0  0  0  0  0  0  0  0  0
   15.9522   -2.6550   -3.0208 C   0  0  0  0  0  0  0  0  0  0  0  0
   16.4340   -1.6937   -3.9273 C   0  0  0  0  0  0  0  0  0  0  0  0
   16.3364   -0.3224   -3.6308 C   0  0  0  0  0  0  0  0  0  0  0  0
   15.7943    0.1250   -2.4073 C   0  0  0  0  0  0  0  0  0  0  0  0
   15.6711    1.5693   -2.0915 C   0  0  0  0  0  0  0  0  0  0  0  0
   15.3832    2.0354   -0.7903 C   0  0  0  0  0  0  0  0  0  0  0  0
   15.3534    3.4188   -0.5357 C   0  0  0  0  0  0  0  0  0  0  0  0
   15.5968    4.3049   -1.5946 C   0  0  0  0  0  0  0  0  0  0  0  0
   15.8275    3.8920   -2.8511 N   0  0  0  0  0  0  0  0  0  0  0  0
   15.8598    2.5642   -3.0762 C   0  0  0  0  0  0  0  0  0  0  0  0
   15.3327   -0.8573   -1.5012 C   0  0  0  0  0  0  0  0  0  0  0  0
   13.2767   -3.0094   -0.6368 C   0  0  0  0  0  0  0  0  0  0  0  0
   12.3981   -3.0674   -1.5055 O   0  0  0  0  0  0  0  0  0  0  0  0
    0.0000    0.0000    0.0000 H   0  0  0  0  0  0  0  0  0  0  0  0
    0.0000    0.0000    0.0000 H   0  0  0  0  0  0  0  0  0  0  0  0
    0.0000    0.0000    0.0000 H   0  0  0  0  0  0  0  0  0  0  0  0
    0.0000    0.0000    0.0000 H   0  0  0  0  0  0  0  0  0  0  0  0
    0.0000    0.0000    0.0000 H   0  0  0  0  0  0  0  0  0  0  0  0
    0.0000    0.0000    0.0000 H   0  0  0  0  0  0  0  0  0  0  0  0
    0.0000    0.0000    0.0000 H   0  0  0  0  0  0  0  0  0  0  0  0
    0.0000    0.0000    0.0000 H   0  0  0  0  0  0  0  0  0  0  0  0
    0.0000    0.0000    0.0000 H   0  0  0  0  0  0  0  0  0  0  0  0
    0.0000    0.0000    0.0000 H   0  0  0  0  0  0  0  0  0  0  0  0
    0.0000    0.0000    0.0000 H   0  0  0  0  0  0  0  0  0  0  0  0
    0.0000    0.0000    0.0000 H   0  0  0  0  0  0  0  0  0  0  0  0
    0.0000    0.0000    0.0000 H   0  0  0  0  0  0  0  0  0  0  0  0
    0.0000    0.0000    0.0000 H   0  0  0  0  0  0  0  0  0  0  0  0
    6.9994   -1.5383   -0.3725 N   0  0  0  0  0  0  0  0  0  0  0  0
    6.7481   -0.7782    0.8581 C   0  0  0  0  0  0  0  0  0  0  0  0
    7.1288   -1.7868    1.9256 C   0  0  0  0  0  0  0  0  0  0  0  0
    6.9158   -3.1272    1.2839 C   0  0  2  0  0  0  0  0  0  0  0  0
    8.1786   -3.7746    0.8029 C   0  0  0  0  0  0  0  0  0  0  0  0
    7.8736   -4.3945   -0.4676 N   0  0  0  0  0  0  0  0  0  0  0  0
    7.9757   -5.8265   -0.4231 C   0  0  0  0  0  0  0  0  0  0  0  0
    6.6147   -3.9000   -0.9153 C   0  0  0  0  0  0  0  0  0  0  0  0
    6.2553   -2.7587   -0.0453 C   0  0  2  0  0  0  0  0  0  0  0  0
    7.3071    0.1493    0.9075 H   0  0  0  0  0  0  0  0  0  0  0  0
    5.6438   -0.6385    0.9033 H   0  0  0  0  0  0  0  0  0  0  0  0
    6.3804   -1.7066    2.7567 H   0  0  0  0  0  0  0  0  0  0  0  0
    8.1315   -1.6286    2.3300 H   0  0  0  0  0  0  0  0  0  0  0  0
    6.2831   -3.7870    1.8784 H   0  0  0  0  0  0  0  0  0  0  0  0
    8.4939   -4.5107    1.5731 H   0  0  0  0  0  0  0  0  0  0  0  0
    9.0024   -3.0622    0.6387 H   0  0  0  0  0  0  0  0  0  0  0  0
    8.5819   -6.1892    0.4367 H   0  0  0  0  0  0  0  0  0  0  0  0
    8.4868   -6.1825   -1.3544 H   0  0  0  0  0  0  0  0  0  0  0  0
    6.9735   -6.3256   -0.4427 H   0  0  0  0  0  0  0  0  0  0  0  0
    6.7397   -3.6137   -2.0005 H   0  0  0  0  0  0  0  0  0  0  0  0
    5.8458   -4.6839   -0.8314 H   0  0  0  0  0  0  0  0  0  0  0  0
    5.2044   -2.5248    0.0533 H   0  0  0  0  0  0  0  0  0  0  0  0
  1  2  1  0
  2  3  1  0
  2 19  1  0
  3  4  1  0
  3  5  2  0
  5  6  1  0
  6  7  1  0
  6 19  1  0
  7  8  2  0
  7 18  1  0
  8  9  1  0
  9 10  2  0
 10 11  1  0
 11 12  1  0
 11 18  2  0
 12 13  2  0
 12 17  1  0
 13 14  1  0
 14 15  2  0
 15 16  1  0
 16 17  2  0
 19 20  2  0
  1 21  1  0
  1 22  1  0
  1 23  1  0
  4 24  1  0
  4 25  1  0
  5 26  1  0
  8 27  1  0
  9 28  1  0
 10 29  1  0
 13 30  1  0
 14 31  1  0
 15 32  1  0
 17 33  1  0
 18 34  1  0
 35 36  1  0
 36 37  1  0
 37 38  1  0
 38 39  1  0
 39 40  1  0
 40 41  1  0
 40 42  1  0
 42 43  1  0
 43 35  1  0
 43 38  1  0
 36 44  1  0
 36 45  1  0
 37 46  1  0
 37 47  1  0
 38 48  1  1
 39 49  1  0
 39 50  1  0
 41 51  1  0
 41 52  1  0
 41 53  1  0
 42 54  1  0
 42 55  1  0
 43 56  1  1
  6 35  1  6
M  CHG  1   5   1
M  END
>  <attachment_point>  (453) 
26

>  <score>  (453) 
<NA>

$$$$
CAT-4j
     RDKit          3D

 53 56  0  0  1  0  0  0  0  0999 V2000
   11.7106   -2.3098    1.2658 C   0  0  0  0  0  0  0  0  0  0  0  0
   13.0313   -2.6523    0.7225 N   0  0  0  0  0  0  0  0  0  0  0  0
   14.2010   -2.6281    1.3773 C   0  0  0  0  0  0  0  0  0  0  0  0
   14.3777   -2.3568    2.6732 N   0  0  0  0  0  0  0  0  0  0  0  0
   15.2217   -2.9197    0.5738 N   0  0  0  0  0  0  0  0  0  0  0  0
   14.7965   -3.2519   -0.7875 C   0  0  1  0  0  0  0  0  0  0  0  0
   15.3794   -2.2443   -1.7949 C   0  0  0  0  0  0  0  0  0  0  0  0
   15.9522   -2.6550   -3.0208 C   0  0  0  0  0  0  0  0  0  0  0  0
   16.4340   -1.6937   -3.9273 C   0  0  0  0  0  0  0  0  0  0  0  0
   16.3364   -0.3224   -3.6308 C   0  0  0  0  0  0  0  0  0  0  0  0
   15.7943    0.1250   -2.4073 C   0  0  0  0  0  0  0  0  0  0  0  0
   15.6711    1.5693   -2.0915 C   0  0  0  0  0  0  0  0  0  0  0  0
   15.3832    2.0354   -0.7903 C   0  0  0  0  0  0  0  0  0  0  0  0
   15.3534    3.4188   -0.5357 C   0  0  0  0  0  0  0  0  0  0  0  0
   15.5968    4.3049   -1.5946 C   0  0  0  0  0  0  0  0  0  0  0  0
   15.8275    3.8920   -2.8511 N   0  0  0  0  0  0  0  0  0  0  0  0
   15.8598    2.5642   -3.0762 C   0  0  0  0  0  0  0  0  0  0  0  0
   15.3327   -0.8573   -1.5012 C   0  0  0  0  0  0  0  0  0  0  0  0
   13.2767   -3.0094   -0.6368 C   0  0  0  0  0  0  0  0  0  0  0  0
   12.3981   -3.0674   -1.5055 O   0  0  0  0  0  0  0  0  0  0  0  0
    0.0000    0.0000    0.0000 H   0  0  0  0  0  0  0  0  0  0  0  0
    0.0000    0.0000    0.0000 H   0  0  0  0  0  0  0  0  0  0  0  0
    0.0000    0.0000    0.0000 H   0  0  0  0  0  0  0  0  0  0  0  0
    0.0000    0.0000    0.0000 H   0  0  0  0  0  0  0  0  0  0  0  0
    0.0000    0.0000    0.0000 H   0  0  0  0  0  0  0  0  0  0  0  0
    0.0000    0.0000    0.0000 H   0  0  0  0  0  0  0  0  0  0  0  0
    0.0000    0.0000    0.0000 H   0  0  0  0  0  0  0  0  0  0  0  0
    0.0000    0.0000    0.0000 H   0  0  0  0  0  0  0  0  0  0  0  0
    0.0000    0.0000    0.0000 H   0  0  0  0  0  0  0  0  0  0  0  0
    0.0000    0.0000    0.0000 H   0  0  0  0  0  0  0  0  0  0  0  0
    0.0000    0.0000    0.0000 H   0  0  0  0  0  0  0  0  0  0  0  0
    0.0000    0.0000    0.0000 H   0  0  0  0  0  0  0  0  0  0  0  0
    0.0000    0.0000    0.0000 H   0  0  0  0  0  0  0  0  0  0  0  0
    0.0000    0.0000    0.0000 H   0  0  0  0  0  0  0  0  0  0  0  0
    6.9437   -1.5261   -0.3696 N   0  0  0  0  0  0  0  0  0  0  0  0
    6.5507   -0.3403    0.2425 C   0  0  0  0  0  0  0  0  0  0  0  0
    7.4133    0.4598    0.7287 O   0  0  0  0  0  0  0  0  0  0  0  0
    5.1304   -0.0253    0.3197 C   0  0  0  0  0  0  0  0  0  0  0  0
    4.7608    1.1662    0.9364 C   0  0  0  0  0  0  0  0  0  0  0  0
    3.4228    1.4724    1.0142 C   0  0  0  0  0  0  0  0  0  0  0  0
    2.4475    0.6369    0.5017 C   0  0  0  0  0  0  0  0  0  0  0  0
    1.0898    0.9741    0.5949 O   0  0  0  0  0  0  0  0  0  0  0  0
    0.6637    2.1600    1.2050 C   0  0  0  0  0  0  0  0  0  0  0  0
    2.8441   -0.5362   -0.1034 C   0  0  0  0  0  0  0  0  0  0  0  0
    4.1847   -0.8615   -0.1913 C   0  0  0  0  0  0  0  0  0  0  0  0
    6.3812   -2.2498   -0.7951 H   0  0  0  0  0  0  0  0  0  0  0  0
    5.5012    1.8317    1.3423 H   0  0  0  0  0  0  0  0  0  0  0  0
    3.1110    2.3910    1.4879 H   0  0  0  0  0  0  0  0  0  0  0  0
    1.2000    2.2827    2.1917 H   0  0  0  0  0  0  0  0  0  0  0  0
    0.8829    3.0529    0.5791 H   0  0  0  0  0  0  0  0  0  0  0  0
   -0.4096    2.0971    1.4774 H   0  0  0  0  0  0  0  0  0  0  0  0
    2.0848   -1.2128   -0.5165 H   0  0  0  0  0  0  0  0  0  0  0  0
    4.4174   -1.7939   -0.6776 H   0  0  0  0  0  0  0  0  0  0  0  0
  1  2  1  0
  2  3  1  0
  2 19  1  0
  3  4  1  0
  3  5  2  0
  5  6  1  0
  6  7  1  0
  6 19  1  0
  7  8  2  0
  7 18  1  0
  8  9  1  0
  9 10  2  0
 10 11  1  0
 11 12  1  0
 11 18  2  0
 12 13  2  0
 12 17  1  0
 13 14  1  0
 14 15  2  0
 15 16  1  0
 16 17  2  0
 19 20  2  0
  1 21  1  0
  1 22  1  0
  1 23  1  0
  4 24  1  0
  4 25  1  0
  5 26  1  0
  8 27  1  0
  9 28  1  0
 10 29  1  0
 13 30  1  0
 14 31  1  0
 15 32  1  0
 17 33  1  0
 18 34  1  0
 35 36  1  0
 36 37  2  0
 36 38  1  0
 38 39  2  0
 39 40  1  0
 40 41  2  0
 41 42  1  0
 42 43  1  0
 41 44  1  0
 44 45  2  0
 45 38  1  0
 35 46  1  0
 39 47  1  0
 40 48  1  0
 43 49  1  0
 43 50  1  0
 43 51  1  0
 44 52  1  0
 45 53  1  0
  6 35  1  6
M  CHG  1   5   1
M  END
>  <attachment_point>  (454) 
26

>  <score>  (454) 
<NA>

$$$$
CAT-4j
     RDKit          3D

 47 50  0  0  1  0  0  0  0  0999 V2000
   11.7106   -2.3098    1.2658 C   0  0  0  0  0  0  0  0  0  0  0  0
   13.0313   -2.6523    0.7225 N   0  0  0  0  0  0  0  0  0  0  0  0
   14.2010   -2.6281    1.3773 C   0  0  0  0  0  0  0  0  0  0  0  0
   14.3777   -2.3568    2.6732 N   0  0  0  0  0  0  0  0  0  0  0  0
   15.2217   -2.9197    0.5738 N   0  0  0  0  0  0  0  0  0  0  0  0
   14.7965   -3.2519   -0.7875 C   0  0  1  0  0  0  0  0  0  0  0  0
   15.3794   -2.2443   -1.7949 C   0  0  0  0  0  0  0  0  0  0  0  0
   15.9522   -2.6550   -3.0208 C   0  0  0  0  0  0  0  0  0  0  0  0
   16.4340   -1.6937   -3.9273 C   0  0  0  0  0  0  0  0  0  0  0  0
   16.3364   -0.3224   -3.6308 C   0  0  0  0  0  0  0  0  0  0  0  0
   15.7943    0.1250   -2.4073 C   0  0  0  0  0  0  0  0  0  0  0  0
   15.6711    1.5693   -2.0915 C   0  0  0  0  0  0  0  0  0  0  0  0
   15.3832    2.0354   -0.7903 C   0  0  0  0  0  0  0  0  0  0  0  0
   15.3534    3.4188   -0.5357 C   0  0  0  0  0  0  0  0  0  0  0  0
   15.5968    4.3049   -1.5946 C   0  0  0  0  0  0  0  0  0  0  0  0
   15.8275    3.8920   -2.8511 N   0  0  0  0  0  0  0  0  0  0  0  0
   15.8598    2.5642   -3.0762 C   0  0  0  0  0  0  0  0  0  0  0  0
   15.3327   -0.8573   -1.5012 C   0  0  0  0  0  0  0  0  0  0  0  0
   13.2767   -3.0094   -0.6368 C   0  0  0  0  0  0  0  0  0  0  0  0
   12.3981   -3.0674   -1.5055 O   0  0  0  0  0  0  0  0  0  0  0  0
    0.0000    0.0000    0.0000 H   0  0  0  0  0  0  0  0  0  0  0  0
    0.0000    0.0000    0.0000 H   0  0  0  0  0  0  0  0  0  0  0  0
    0.0000    0.0000    0.0000 H   0  0  0  0  0  0  0  0  0  0  0  0
    0.0000    0.0000    0.0000 H   0  0  0  0  0  0  0  0  0  0  0  0
    0.0000    0.0000    0.0000 H   0  0  0  0  0  0  0  0  0  0  0  0
    0.0000    0.0000    0.0000 H   0  0  0  0  0  0  0  0  0  0  0  0
    0.0000    0.0000    0.0000 H   0  0  0  0  0  0  0  0  0  0  0  0
    0.0000    0.0000    0.0000 H   0  0  0  0  0  0  0  0  0  0  0  0
    0.0000    0.0000    0.0000 H   0  0  0  0  0  0  0  0  0  0  0  0
    0.0000    0.0000    0.0000 H   0  0  0  0  0  0  0  0  0  0  0  0
    0.0000    0.0000    0.0000 H   0  0  0  0  0  0  0  0  0  0  0  0
    0.0000    0.0000    0.0000 H   0  0  0  0  0  0  0  0  0  0  0  0
    0.0000    0.0000    0.0000 H   0  0  0  0  0  0  0  0  0  0  0  0
    0.0000    0.0000    0.0000 H   0  0  0  0  0  0  0  0  0  0  0  0
    6.9208   -1.5210   -0.3683 C   0  0  0  0  0  0  0  0  0  0  0  0
    6.6171   -0.2057   -0.5342 C   0  0  0  0  0  0  0  0  0  0  0  0
    5.2772    0.2202   -0.4821 C   0  0  0  0  0  0  0  0  0  0  0  0
    4.3337   -0.7438   -0.2610 C   0  0  0  0  0  0  0  0  0  0  0  0
    2.8847   -0.4168   -0.1852 C   0  0  0  0  0  0  0  0  0  0  0  0
    4.7151   -2.0474   -0.1036 C   0  0  0  0  0  0  0  0  0  0  0  0
    6.0300   -2.4461   -0.1575 N   0  0  0  0  0  0  0  0  0  0  0  0
    7.3870    0.5014   -0.7029 H   0  0  0  0  0  0  0  0  0  0  0  0
    4.9949    1.2413   -0.6068 H   0  0  0  0  0  0  0  0  0  0  0  0
    2.5347   -0.7705    0.8068 H   0  0  0  0  0  0  0  0  0  0  0  0
    2.3376   -1.0452   -0.9410 H   0  0  0  0  0  0  0  0  0  0  0  0
    2.6591    0.6225   -0.4077 H   0  0  0  0  0  0  0  0  0  0  0  0
    3.9499   -2.8007    0.0715 H   0  0  0  0  0  0  0  0  0  0  0  0
  1  2  1  0
  2  3  1  0
  2 19  1  0
  3  4  1  0
  3  5  2  0
  5  6  1  0
  6  7  1  1
  6 19  1  0
  7  8  2  0
  7 18  1  0
  8  9  1  0
  9 10  2  0
 10 11  1  0
 11 12  1  0
 11 18  2  0
 12 13  2  0
 12 17  1  0
 13 14  1  0
 14 15  2  0
 15 16  1  0
 16 17  2  0
 19 20  2  0
  1 21  1  0
  1 22  1  0
  1 23  1  0
  4 24  1  0
  4 25  1  0
  5 26  1  0
  8 27  1  0
  9 28  1  0
 10 29  1  0
 13 30  1  0
 14 31  1  0
 15 32  1  0
 17 33  1  0
 18 34  1  0
 35 36  2  0
 36 37  1  0
 37 38  2  0
 38 39  1  0
 38 40  1  0
 40 41  2  0
 41 35  1  0
 36 42  1  0
 37 43  1  0
 39 44  1  0
 39 45  1  0
 39 46  1  0
 40 47  1  0
  6 35  1  0
M  CHG  1   5   1
M  END
>  <attachment_point>  (455) 
26

>  <score>  (455) 
<NA>

$$$$
CAT-4j
     RDKit          3D

 49 52  0  0  1  0  0  0  0  0999 V2000
   11.7106   -2.3098    1.2658 C   0  0  0  0  0  0  0  0  0  0  0  0
   13.0313   -2.6523    0.7225 N   0  0  0  0  0  0  0  0  0  0  0  0
   14.2010   -2.6281    1.3773 C   0  0  0  0  0  0  0  0  0  0  0  0
   14.3777   -2.3568    2.6732 N   0  0  0  0  0  0  0  0  0  0  0  0
   15.2217   -2.9197    0.5738 N   0  0  0  0  0  0  0  0  0  0  0  0
   14.7965   -3.2519   -0.7875 C   0  0  1  0  0  0  0  0  0  0  0  0
   15.3794   -2.2443   -1.7949 C   0  0  0  0  0  0  0  0  0  0  0  0
   15.9522   -2.6550   -3.0208 C   0  0  0  0  0  0  0  0  0  0  0  0
   16.4340   -1.6937   -3.9273 C   0  0  0  0  0  0  0  0  0  0  0  0
   16.3364   -0.3224   -3.6308 C   0  0  0  0  0  0  0  0  0  0  0  0
   15.7943    0.1250   -2.4073 C   0  0  0  0  0  0  0  0  0  0  0  0
   15.6711    1.5693   -2.0915 C   0  0  0  0  0  0  0  0  0  0  0  0
   15.3832    2.0354   -0.7903 C   0  0  0  0  0  0  0  0  0  0  0  0
   15.3534    3.4188   -0.5357 C   0  0  0  0  0  0  0  0  0  0  0  0
   15.5968    4.3049   -1.5946 C   0  0  0  0  0  0  0  0  0  0  0  0
   15.8275    3.8920   -2.8511 N   0  0  0  0  0  0  0  0  0  0  0  0
   15.8598    2.5642   -3.0762 C   0  0  0  0  0  0  0  0  0  0  0  0
   15.3327   -0.8573   -1.5012 C   0  0  0  0  0  0  0  0  0  0  0  0
   13.2767   -3.0094   -0.6368 C   0  0  0  0  0  0  0  0  0  0  0  0
   12.3981   -3.0674   -1.5055 O   0  0  0  0  0  0  0  0  0  0  0  0
    0.0000    0.0000    0.0000 H   0  0  0  0  0  0  0  0  0  0  0  0
    0.0000    0.0000    0.0000 H   0  0  0  0  0  0  0  0  0  0  0  0
    0.0000    0.0000    0.0000 H   0  0  0  0  0  0  0  0  0  0  0  0
    0.0000    0.0000    0.0000 H   0  0  0  0  0  0  0  0  0  0  0  0
    0.0000    0.0000    0.0000 H   0  0  0  0  0  0  0  0  0  0  0  0
    0.0000    0.0000    0.0000 H   0  0  0  0  0  0  0  0  0  0  0  0
    0.0000    0.0000    0.0000 H   0  0  0  0  0  0  0  0  0  0  0  0
    0.0000    0.0000    0.0000 H   0  0  0  0  0  0  0  0  0  0  0  0
    0.0000    0.0000    0.0000 H   0  0  0  0  0  0  0  0  0  0  0  0
    0.0000    0.0000    0.0000 H   0  0  0  0  0  0  0  0  0  0  0  0
    0.0000    0.0000    0.0000 H   0  0  0  0  0  0  0  0  0  0  0  0
    0.0000    0.0000    0.0000 H   0  0  0  0  0  0  0  0  0  0  0  0
    0.0000    0.0000    0.0000 H   0  0  0  0  0  0  0  0  0  0  0  0
    0.0000    0.0000    0.0000 H   0  0  0  0  0  0  0  0  0  0  0  0
    6.8275   -1.5005   -0.3634 O   0  0  0  0  0  0  0  0  0  0  0  0
    6.8802   -0.5969    0.6810 C   0  0  0  0  0  0  0  0  0  0  0  0
    6.5838    0.7226    0.4090 C   0  0  0  0  0  0  0  0  0  0  0  0
    6.6384    1.6199    1.4569 C   0  0  0  0  0  0  0  0  0  0  0  0
    6.9780    1.2250    2.7455 C   0  0  0  0  0  0  0  0  0  0  0  0
    7.2742   -0.0940    3.0168 C   0  0  0  0  0  0  0  0  0  0  0  0
    7.6440   -0.5726    4.3774 C   0  0  0  0  0  0  0  0  0  0  0  0
    7.2197   -0.9901    1.9704 C   0  0  0  0  0  0  0  0  0  0  0  0
    6.3149    1.0641   -0.5862 H   0  0  0  0  0  0  0  0  0  0  0  0
    6.4062    2.6544    1.2447 H   0  0  0  0  0  0  0  0  0  0  0  0
    7.0212    1.9180    3.5600 H   0  0  0  0  0  0  0  0  0  0  0  0
    7.6485    0.2430    5.1013 H   0  0  0  0  0  0  0  0  0  0  0  0
    8.6850   -1.0044    4.3876 H   0  0  0  0  0  0  0  0  0  0  0  0
    6.9786   -1.4086    4.7144 H   0  0  0  0  0  0  0  0  0  0  0  0
    7.4523   -2.0287    2.1806 H   0  0  0  0  0  0  0  0  0  0  0  0
  1  2  1  0
  2  3  1  0
  2 19  1  0
  3  4  1  0
  3  5  2  0
  5  6  1  0
  6  7  1  0
  6 19  1  0
  7  8  2  0
  7 18  1  0
  8  9  1  0
  9 10  2  0
 10 11  1  0
 11 12  1  0
 11 18  2  0
 12 13  2  0
 12 17  1  0
 13 14  1  0
 14 15  2  0
 15 16  1  0
 16 17  2  0
 19 20  2  0
  1 21  1  0
  1 22  1  0
  1 23  1  0
  4 24  1  0
  4 25  1  0
  5 26  1  0
  8 27  1  0
  9 28  1  0
 10 29  1  0
 13 30  1  0
 14 31  1  0
 15 32  1  0
 17 33  1  0
 18 34  1  0
 35 36  1  0
 36 37  2  0
 37 38  1  0
 38 39  2  0
 39 40  1  0
 40 41  1  0
 40 42  2  0
 42 36  1  0
 37 43  1  0
 38 44  1  0
 39 45  1  0
 41 46  1  0
 41 47  1  0
 41 48  1  0
 42 49  1  0
  6 35  1  6
M  CHG  1   5   1
M  END
>  <attachment_point>  (456) 
26

>  <score>  (456) 
<NA>

$$$$
CAT-4j
     RDKit          3D

 55 58  0  0  1  0  0  0  0  0999 V2000
   11.7106   -2.3098    1.2658 C   0  0  0  0  0  0  0  0  0  0  0  0
   13.0313   -2.6523    0.7225 N   0  0  0  0  0  0  0  0  0  0  0  0
   14.2010   -2.6281    1.3773 C   0  0  0  0  0  0  0  0  0  0  0  0
   14.3777   -2.3568    2.6732 N   0  0  0  0  0  0  0  0  0  0  0  0
   15.2217   -2.9197    0.5738 N   0  0  0  0  0  0  0  0  0  0  0  0
   14.7965   -3.2519   -0.7875 C   0  0  1  0  0  0  0  0  0  0  0  0
   15.3794   -2.2443   -1.7949 C   0  0  0  0  0  0  0  0  0  0  0  0
   15.9522   -2.6550   -3.0208 C   0  0  0  0  0  0  0  0  0  0  0  0
   16.4340   -1.6937   -3.9273 C   0  0  0  0  0  0  0  0  0  0  0  0
   16.3364   -0.3224   -3.6308 C   0  0  0  0  0  0  0  0  0  0  0  0
   15.7943    0.1250   -2.4073 C   0  0  0  0  0  0  0  0  0  0  0  0
   15.6711    1.5693   -2.0915 C   0  0  0  0  0  0  0  0  0  0  0  0
   15.3832    2.0354   -0.7903 C   0  0  0  0  0  0  0  0  0  0  0  0
   15.3534    3.4188   -0.5357 C   0  0  0  0  0  0  0  0  0  0  0  0
   15.5968    4.3049   -1.5946 C   0  0  0  0  0  0  0  0  0  0  0  0
   15.8275    3.8920   -2.8511 N   0  0  0  0  0  0  0  0  0  0  0  0
   15.8598    2.5642   -3.0762 C   0  0  0  0  0  0  0  0  0  0  0  0
   15.3327   -0.8573   -1.5012 C   0  0  0  0  0  0  0  0  0  0  0  0
   13.2767   -3.0094   -0.6368 C   0  0  0  0  0  0  0  0  0  0  0  0
   12.3981   -3.0674   -1.5055 O   0  0  0  0  0  0  0  0  0  0  0  0
    0.0000    0.0000    0.0000 H   0  0  0  0  0  0  0  0  0  0  0  0
    0.0000    0.0000    0.0000 H   0  0  0  0  0  0  0  0  0  0  0  0
    0.0000    0.0000    0.0000 H   0  0  0  0  0  0  0  0  0  0  0  0
    0.0000    0.0000    0.0000 H   0  0  0  0  0  0  0  0  0  0  0  0
    0.0000    0.0000    0.0000 H   0  0  0  0  0  0  0  0  0  0  0  0
    0.0000    0.0000    0.0000 H   0  0  0  0  0  0  0  0  0  0  0  0
    0.0000    0.0000    0.0000 H   0  0  0  0  0  0  0  0  0  0  0  0
    0.0000    0.0000    0.0000 H   0  0  0  0  0  0  0  0  0  0  0  0
    0.0000    0.0000    0.0000 H   0  0  0  0  0  0  0  0  0  0  0  0
    0.0000    0.0000    0.0000 H   0  0  0  0  0  0  0  0  0  0  0  0
    0.0000    0.0000    0.0000 H   0  0  0  0  0  0  0  0  0  0  0  0
    0.0000    0.0000    0.0000 H   0  0  0  0  0  0  0  0  0  0  0  0
    0.0000    0.0000    0.0000 H   0  0  0  0  0  0  0  0  0  0  0  0
    0.0000    0.0000    0.0000 H   0  0  0  0  0  0  0  0  0  0  0  0
    6.7411   -1.4815   -0.3588 B   0  0  0  0  0  0  0  0  0  0  0  0
    6.7053   -1.2730    1.0992 O   0  0  0  0  0  0  0  0  0  0  0  0
    5.8553   -2.3335    1.4768 C   0  0  0  0  0  0  0  0  0  0  0  0
    4.4818   -1.9749    0.9695 C   0  0  0  0  0  0  0  0  0  0  0  0
    5.9101   -2.6420    2.9264 C   0  0  0  0  0  0  0  0  0  0  0  0
    6.4100   -3.4463    0.5979 C   0  0  0  0  0  0  0  0  0  0  0  0
    5.6273   -4.7099    0.7330 C   0  0  0  0  0  0  0  0  0  0  0  0
    7.8923   -3.6378    0.7959 C   0  0  0  0  0  0  0  0  0  0  0  0
    6.2526   -2.8407   -0.6636 O   0  0  0  0  0  0  0  0  0  0  0  0
    4.5871   -1.8681   -0.1456 H   0  0  0  0  0  0  0  0  0  0  0  0
    4.1676   -0.9706    1.3513 H   0  0  0  0  0  0  0  0  0  0  0  0
    3.7002   -2.6849    1.2548 H   0  0  0  0  0  0  0  0  0  0  0  0
    6.6624   -3.4090    3.1601 H   0  0  0  0  0  0  0  0  0  0  0  0
    5.9947   -1.7274    3.5447 H   0  0  0  0  0  0  0  0  0  0  0  0
    4.9143   -3.0915    3.2122 H   0  0  0  0  0  0  0  0  0  0  0  0
    4.5677   -4.5051    0.9460 H   0  0  0  0  0  0  0  0  0  0  0  0
    6.0243   -5.2544    1.6218 H   0  0  0  0  0  0  0  0  0  0  0  0
    5.6656   -5.3534   -0.1590 H   0  0  0  0  0  0  0  0  0  0  0  0
    8.1665   -4.0566    1.7647 H   0  0  0  0  0  0  0  0  0  0  0  0
    8.3734   -2.6490    0.5793 H   0  0  0  0  0  0  0  0  0  0  0  0
    8.2354   -4.3423    0.0172 H   0  0  0  0  0  0  0  0  0  0  0  0
  1  2  1  0
  2  3  1  0
  2 19  1  0
  3  4  1  0
  3  5  2  0
  5  6  1  0
  6  7  1  0
  6 19  1  0
  7  8  2  0
  7 18  1  0
  8  9  1  0
  9 10  2  0
 10 11  1  0
 11 12  1  0
 11 18  2  0
 12 13  2  0
 12 17  1  0
 13 14  1  0
 14 15  2  0
 15 16  1  0
 16 17  2  0
 19 20  2  0
  1 21  1  0
  1 22  1  0
  1 23  1  0
  4 24  1  0
  4 25  1  0
  5 26  1  0
  8 27  1  0
  9 28  1  0
 10 29  1  0
 13 30  1  0
 14 31  1  0
 15 32  1  0
 17 33  1  0
 18 34  1  0
 35 36  1  0
 36 37  1  0
 37 38  1  0
 37 39  1  0
 37 40  1  0
 40 41  1  0
 40 42  1  0
 40 43  1  0
 43 35  1  0
 38 44  1  0
 38 45  1  0
 38 46  1  0
 39 47  1  0
 39 48  1  0
 39 49  1  0
 41 50  1  0
 41 51  1  0
 41 52  1  0
 42 53  1  0
 42 54  1  0
 42 55  1  0
  6 35  1  6
M  CHG  1   5   1
M  END
>  <attachment_point>  (457) 
26

>  <score>  (457) 
<NA>

$$$$
CAT-4j
     RDKit          3D

 51 53  0  0  1  0  0  0  0  0999 V2000
   11.7106   -2.3098    1.2658 C   0  0  0  0  0  0  0  0  0  0  0  0
   13.0313   -2.6523    0.7225 N   0  0  0  0  0  0  0  0  0  0  0  0
   14.2010   -2.6281    1.3773 C   0  0  0  0  0  0  0  0  0  0  0  0
   14.3777   -2.3568    2.6732 N   0  0  0  0  0  0  0  0  0  0  0  0
   15.2217   -2.9197    0.5738 N   0  0  0  0  0  0  0  0  0  0  0  0
   14.7965   -3.2519   -0.7875 C   0  0  1  0  0  0  0  0  0  0  0  0
   15.3794   -2.2443   -1.7949 C   0  0  0  0  0  0  0  0  0  0  0  0
   15.9522   -2.6550   -3.0208 C   0  0  0  0  0  0  0  0  0  0  0  0
   16.4340   -1.6937   -3.9273 C   0  0  0  0  0  0  0  0  0  0  0  0
   16.3364   -0.3224   -3.6308 C   0  0  0  0  0  0  0  0  0  0  0  0
   15.7943    0.1250   -2.4073 C   0  0  0  0  0  0  0  0  0  0  0  0
   15.6711    1.5693   -2.0915 C   0  0  0  0  0  0  0  0  0  0  0  0
   15.3832    2.0354   -0.7903 C   0  0  0  0  0  0  0  0  0  0  0  0
   15.3534    3.4188   -0.5357 C   0  0  0  0  0  0  0  0  0  0  0  0
   15.5968    4.3049   -1.5946 C   0  0  0  0  0  0  0  0  0  0  0  0
   15.8275    3.8920   -2.8511 N   0  0  0  0  0  0  0  0  0  0  0  0
   15.8598    2.5642   -3.0762 C   0  0  0  0  0  0  0  0  0  0  0  0
   15.3327   -0.8573   -1.5012 C   0  0  0  0  0  0  0  0  0  0  0  0
   13.2767   -3.0094   -0.6368 C   0  0  0  0  0  0  0  0  0  0  0  0
   12.3981   -3.0674   -1.5055 O   0  0  0  0  0  0  0  0  0  0  0  0
    0.0000    0.0000    0.0000 H   0  0  0  0  0  0  0  0  0  0  0  0
    0.0000    0.0000    0.0000 H   0  0  0  0  0  0  0  0  0  0  0  0
    0.0000    0.0000    0.0000 H   0  0  0  0  0  0  0  0  0  0  0  0
    0.0000    0.0000    0.0000 H   0  0  0  0  0  0  0  0  0  0  0  0
    0.0000    0.0000    0.0000 H   0  0  0  0  0  0  0  0  0  0  0  0
    0.0000    0.0000    0.0000 H   0  0  0  0  0  0  0  0  0  0  0  0
    0.0000    0.0000    0.0000 H   0  0  0  0  0  0  0  0  0  0  0  0
    0.0000    0.0000    0.0000 H   0  0  0  0  0  0  0  0  0  0  0  0
    0.0000    0.0000    0.0000 H   0  0  0  0  0  0  0  0  0  0  0  0
    0.0000    0.0000    0.0000 H   0  0  0  0  0  0  0  0  0  0  0  0
    0.0000    0.0000    0.0000 H   0  0  0  0  0  0  0  0  0  0  0  0
    0.0000    0.0000    0.0000 H   0  0  0  0  0  0  0  0  0  0  0  0
    0.0000    0.0000    0.0000 H   0  0  0  0  0  0  0  0  0  0  0  0
    0.0000    0.0000    0.0000 H   0  0  0  0  0  0  0  0  0  0  0  0
    6.9736   -1.5326   -0.3712 N   0  0  0  0  0  0  0  0  0  0  0  0
    6.7072   -1.0876    0.9777 C   0  0  0  0  0  0  0  0  0  0  0  0
    7.4941    0.1893    1.1950 C   0  0  0  0  0  0  0  0  0  0  0  0
    7.3406    0.7399    2.5261 N   0  0  0  0  0  0  0  0  0  0  0  0
    7.9188    2.0966    2.4745 C   0  0  0  0  0  0  0  0  0  0  0  0
    8.3210   -0.0115    3.3503 C   0  0  0  0  0  0  0  0  0  0  0  0
    6.4991   -2.3839   -0.6649 H   0  0  0  0  0  0  0  0  0  0  0  0
    7.0418   -1.8964    1.6743 H   0  0  0  0  0  0  0  0  0  0  0  0
    5.5966   -0.9227    1.0264 H   0  0  0  0  0  0  0  0  0  0  0  0
    8.5723   -0.0967    1.0289 H   0  0  0  0  0  0  0  0  0  0  0  0
    7.1693    0.9135    0.4386 H   0  0  0  0  0  0  0  0  0  0  0  0
    8.1319    2.4125    1.4428 H   0  0  0  0  0  0  0  0  0  0  0  0
    8.8231    2.1978    3.0904 H   0  0  0  0  0  0  0  0  0  0  0  0
    7.1545    2.7613    2.9679 H   0  0  0  0  0  0  0  0  0  0  0  0
    7.8118   -0.8104    3.8644 H   0  0  0  0  0  0  0  0  0  0  0  0
    8.8626    0.7068    4.0469 H   0  0  0  0  0  0  0  0  0  0  0  0
    9.1033   -0.4654    2.6879 H   0  0  0  0  0  0  0  0  0  0  0  0
  1  2  1  0
  2  3  1  0
  2 19  1  0
  3  4  1  0
  3  5  2  0
  5  6  1  0
  6  7  1  0
  6 19  1  0
  7  8  2  0
  7 18  1  0
  8  9  1  0
  9 10  2  0
 10 11  1  0
 11 12  1  0
 11 18  2  0
 12 13  2  0
 12 17  1  0
 13 14  1  0
 14 15  2  0
 15 16  1  0
 16 17  2  0
 19 20  2  0
  1 21  1  0
  1 22  1  0
  1 23  1  0
  4 24  1  0
  4 25  1  0
  5 26  1  0
  8 27  1  0
  9 28  1  0
 10 29  1  0
 13 30  1  0
 14 31  1  0
 15 32  1  0
 17 33  1  0
 18 34  1  0
 35 36  1  0
 36 37  1  0
 37 38  1  0
 38 39  1  0
 38 40  1  0
 35 41  1  0
 36 42  1  0
 36 43  1  0
 37 44  1  0
 37 45  1  0
 39 46  1  0
 39 47  1  0
 39 48  1  0
 40 49  1  0
 40 50  1  0
 40 51  1  0
  6 35  1  6
M  CHG  1   5   1
M  END
>  <attachment_point>  (458) 
26

>  <score>  (458) 
<NA>

$$$$
CAT-4j
     RDKit          3D

 51 54  0  0  1  0  0  0  0  0999 V2000
   11.7106   -2.3098    1.2658 C   0  0  0  0  0  0  0  0  0  0  0  0
   13.0313   -2.6523    0.7225 N   0  0  0  0  0  0  0  0  0  0  0  0
   14.2010   -2.6281    1.3773 C   0  0  0  0  0  0  0  0  0  0  0  0
   14.3777   -2.3568    2.6732 N   0  0  0  0  0  0  0  0  0  0  0  0
   15.2217   -2.9197    0.5738 N   0  0  0  0  0  0  0  0  0  0  0  0
   14.7965   -3.2519   -0.7875 C   0  0  1  0  0  0  0  0  0  0  0  0
   15.3794   -2.2443   -1.7949 C   0  0  0  0  0  0  0  0  0  0  0  0
   15.9522   -2.6550   -3.0208 C   0  0  0  0  0  0  0  0  0  0  0  0
   16.4340   -1.6937   -3.9273 C   0  0  0  0  0  0  0  0  0  0  0  0
   16.3364   -0.3224   -3.6308 C   0  0  0  0  0  0  0  0  0  0  0  0
   15.7943    0.1250   -2.4073 C   0  0  0  0  0  0  0  0  0  0  0  0
   15.6711    1.5693   -2.0915 C   0  0  0  0  0  0  0  0  0  0  0  0
   15.3832    2.0354   -0.7903 C   0  0  0  0  0  0  0  0  0  0  0  0
   15.3534    3.4188   -0.5357 C   0  0  0  0  0  0  0  0  0  0  0  0
   15.5968    4.3049   -1.5946 C   0  0  0  0  0  0  0  0  0  0  0  0
   15.8275    3.8920   -2.8511 N   0  0  0  0  0  0  0  0  0  0  0  0
   15.8598    2.5642   -3.0762 C   0  0  0  0  0  0  0  0  0  0  0  0
   15.3327   -0.8573   -1.5012 C   0  0  0  0  0  0  0  0  0  0  0  0
   13.2767   -3.0094   -0.6368 C   0  0  0  0  0  0  0  0  0  0  0  0
   12.3981   -3.0674   -1.5055 O   0  0  0  0  0  0  0  0  0  0  0  0
    0.0000    0.0000    0.0000 H   0  0  0  0  0  0  0  0  0  0  0  0
    0.0000    0.0000    0.0000 H   0  0  0  0  0  0  0  0  0  0  0  0
    0.0000    0.0000    0.0000 H   0  0  0  0  0  0  0  0  0  0  0  0
    0.0000    0.0000    0.0000 H   0  0  0  0  0  0  0  0  0  0  0  0
    0.0000    0.0000    0.0000 H   0  0  0  0  0  0  0  0  0  0  0  0
    0.0000    0.0000    0.0000 H   0  0  0  0  0  0  0  0  0  0  0  0
    0.0000    0.0000    0.0000 H   0  0  0  0  0  0  0  0  0  0  0  0
    0.0000    0.0000    0.0000 H   0  0  0  0  0  0  0  0  0  0  0  0
    0.0000    0.0000    0.0000 H   0  0  0  0  0  0  0  0  0  0  0  0
    0.0000    0.0000    0.0000 H   0  0  0  0  0  0  0  0  0  0  0  0
    0.0000    0.0000    0.0000 H   0  0  0  0  0  0  0  0  0  0  0  0
    0.0000    0.0000    0.0000 H   0  0  0  0  0  0  0  0  0  0  0  0
    0.0000    0.0000    0.0000 H   0  0  0  0  0  0  0  0  0  0  0  0
    0.0000    0.0000    0.0000 H   0  0  0  0  0  0  0  0  0  0  0  0
    6.9183   -1.5205   -0.3682 N   0  0  0  0  0  0  0  0  0  0  0  0
    6.0796   -2.5128   -0.8530 C   0  0  0  0  0  0  0  0  0  0  0  0
    6.7730   -3.8935   -1.4513 S   0  0  0  0  0  0  0  0  0  0  0  0
    4.6781   -2.4492   -0.8857 N   0  0  0  0  0  0  0  0  0  0  0  0
    4.0417   -1.2843   -0.3918 C   0  0  0  0  0  0  0  0  0  0  0  0
    3.6676   -0.2166   -1.2142 C   0  0  0  0  0  0  0  0  0  0  0  0
    3.0566    0.9020   -0.7143 C   0  0  0  0  0  0  0  0  0  0  0  0
    2.7909    1.0067    0.6289 C   0  0  0  0  0  0  0  0  0  0  0  0
    3.1549   -0.0469    1.4725 C   0  0  0  0  0  0  0  0  0  0  0  0
    3.7790   -1.1872    0.9560 C   0  0  0  0  0  0  0  0  0  0  0  0
    6.7709   -0.6143    0.0329 H   0  0  0  0  0  0  0  0  0  0  0  0
    4.1026   -3.2259   -1.2603 H   0  0  0  0  0  0  0  0  0  0  0  0
    3.8995   -0.3527   -2.2595 H   0  0  0  0  0  0  0  0  0  0  0  0
    2.7864    1.6971   -1.3830 H   0  0  0  0  0  0  0  0  0  0  0  0
    2.3106    1.8662    1.0746 H   0  0  0  0  0  0  0  0  0  0  0  0
    2.9660   -0.0107    2.5405 H   0  0  0  0  0  0  0  0  0  0  0  0
    4.0440   -1.9813    1.6512 H   0  0  0  0  0  0  0  0  0  0  0  0
  1  2  1  0
  2  3  1  0
  2 19  1  0
  3  4  1  0
  3  5  2  0
  5  6  1  0
  6  7  1  0
  6 19  1  0
  7  8  2  0
  7 18  1  0
  8  9  1  0
  9 10  2  0
 10 11  1  0
 11 12  1  0
 11 18  2  0
 12 13  2  0
 12 17  1  0
 13 14  1  0
 14 15  2  0
 15 16  1  0
 16 17  2  0
 19 20  2  0
  1 21  1  0
  1 22  1  0
  1 23  1  0
  4 24  1  0
  4 25  1  0
  5 26  1  0
  8 27  1  0
  9 28  1  0
 10 29  1  0
 13 30  1  0
 14 31  1  0
 15 32  1  0
 17 33  1  0
 18 34  1  0
 35 36  1  0
 36 37  2  0
 36 38  1  0
 38 39  1  0
 39 40  2  0
 40 41  1  0
 41 42  2  0
 42 43  1  0
 43 44  2  0
 44 39  1  0
 35 45  1  0
 38 46  1  0
 40 47  1  0
 41 48  1  0
 42 49  1  0
 43 50  1  0
 44 51  1  0
  6 35  1  6
M  CHG  1   5   1
M  END
>  <attachment_point>  (459) 
26

>  <score>  (459) 
<NA>

$$$$
CAT-4j
     RDKit          3D

 51 54  0  0  1  0  0  0  0  0999 V2000
   11.7106   -2.3098    1.2658 C   0  0  0  0  0  0  0  0  0  0  0  0
   13.0313   -2.6523    0.7225 N   0  0  0  0  0  0  0  0  0  0  0  0
   14.2010   -2.6281    1.3773 C   0  0  0  0  0  0  0  0  0  0  0  0
   14.3777   -2.3568    2.6732 N   0  0  0  0  0  0  0  0  0  0  0  0
   15.2217   -2.9197    0.5738 N   0  0  0  0  0  0  0  0  0  0  0  0
   14.7965   -3.2519   -0.7875 C   0  0  1  0  0  0  0  0  0  0  0  0
   15.3794   -2.2443   -1.7949 C   0  0  0  0  0  0  0  0  0  0  0  0
   15.9522   -2.6550   -3.0208 C   0  0  0  0  0  0  0  0  0  0  0  0
   16.4340   -1.6937   -3.9273 C   0  0  0  0  0  0  0  0  0  0  0  0
   16.3364   -0.3224   -3.6308 C   0  0  0  0  0  0  0  0  0  0  0  0
   15.7943    0.1250   -2.4073 C   0  0  0  0  0  0  0  0  0  0  0  0
   15.6711    1.5693   -2.0915 C   0  0  0  0  0  0  0  0  0  0  0  0
   15.3832    2.0354   -0.7903 C   0  0  0  0  0  0  0  0  0  0  0  0
   15.3534    3.4188   -0.5357 C   0  0  0  0  0  0  0  0  0  0  0  0
   15.5968    4.3049   -1.5946 C   0  0  0  0  0  0  0  0  0  0  0  0
   15.8275    3.8920   -2.8511 N   0  0  0  0  0  0  0  0  0  0  0  0
   15.8598    2.5642   -3.0762 C   0  0  0  0  0  0  0  0  0  0  0  0
   15.3327   -0.8573   -1.5012 C   0  0  0  0  0  0  0  0  0  0  0  0
   13.2767   -3.0094   -0.6368 C   0  0  0  0  0  0  0  0  0  0  0  0
   12.3981   -3.0674   -1.5055 O   0  0  0  0  0  0  0  0  0  0  0  0
    0.0000    0.0000    0.0000 H   0  0  0  0  0  0  0  0  0  0  0  0
    0.0000    0.0000    0.0000 H   0  0  0  0  0  0  0  0  0  0  0  0
    0.0000    0.0000    0.0000 H   0  0  0  0  0  0  0  0  0  0  0  0
    0.0000    0.0000    0.0000 H   0  0  0  0  0  0  0  0  0  0  0  0
    0.0000    0.0000    0.0000 H   0  0  0  0  0  0  0  0  0  0  0  0
    0.0000    0.0000    0.0000 H   0  0  0  0  0  0  0  0  0  0  0  0
    0.0000    0.0000    0.0000 H   0  0  0  0  0  0  0  0  0  0  0  0
    0.0000    0.0000    0.0000 H   0  0  0  0  0  0  0  0  0  0  0  0
    0.0000    0.0000    0.0000 H   0  0  0  0  0  0  0  0  0  0  0  0
    0.0000    0.0000    0.0000 H   0  0  0  0  0  0  0  0  0  0  0  0
    0.0000    0.0000    0.0000 H   0  0  0  0  0  0  0  0  0  0  0  0
    0.0000    0.0000    0.0000 H   0  0  0  0  0  0  0  0  0  0  0  0
    0.0000    0.0000    0.0000 H   0  0  0  0  0  0  0  0  0  0  0  0
    0.0000    0.0000    0.0000 H   0  0  0  0  0  0  0  0  0  0  0  0
    6.9777   -1.5335   -0.3714 C   0  0  0  0  0  0  0  0  0  0  0  0
    6.8344   -0.0705   -0.1294 C   0  0  0  0  0  0  0  0  0  0  0  0
    6.7447    0.8312   -1.1700 C   0  0  0  0  0  0  0  0  0  0  0  0
    6.6117    2.1883   -0.9361 C   0  0  0  0  0  0  0  0  0  0  0  0
    6.5628    2.7007    0.3443 C   0  0  0  0  0  0  0  0  0  0  0  0
    6.4193    4.1646    0.5696 C   0  0  0  0  0  0  0  0  0  0  0  0
    5.0835    4.5104    0.5006 F   0  0  0  0  0  0  0  0  0  0  0  0
    7.1920    4.8744   -0.3283 F   0  0  0  0  0  0  0  0  0  0  0  0
    6.8650    4.4032    1.8645 F   0  0  0  0  0  0  0  0  0  0  0  0
    6.6521    1.8017    1.3887 C   0  0  0  0  0  0  0  0  0  0  0  0
    6.7848    0.4482    1.1492 C   0  0  0  0  0  0  0  0  0  0  0  0
    6.6195   -2.0564    0.5367 H   0  0  0  0  0  0  0  0  0  0  0  0
    6.4798   -1.8622   -1.2991 H   0  0  0  0  0  0  0  0  0  0  0  0
    6.7793    0.4678   -2.1987 H   0  0  0  0  0  0  0  0  0  0  0  0
    6.5403    2.9072   -1.7517 H   0  0  0  0  0  0  0  0  0  0  0  0
    6.6124    2.2175    2.4040 H   0  0  0  0  0  0  0  0  0  0  0  0
    6.8538   -0.2452    1.9810 H   0  0  0  0  0  0  0  0  0  0  0  0
  1  2  1  0
  2  3  1  0
  2 19  1  0
  3  4  1  0
  3  5  2  0
  5  6  1  0
  6  7  1  0
  6 19  1  0
  7  8  2  0
  7 18  1  0
  8  9  1  0
  9 10  2  0
 10 11  1  0
 11 12  1  0
 11 18  2  0
 12 13  2  0
 12 17  1  0
 13 14  1  0
 14 15  2  0
 15 16  1  0
 16 17  2  0
 19 20  2  0
  1 21  1  0
  1 22  1  0
  1 23  1  0
  4 24  1  0
  4 25  1  0
  5 26  1  0
  8 27  1  0
  9 28  1  0
 10 29  1  0
 13 30  1  0
 14 31  1  0
 15 32  1  0
 17 33  1  0
 18 34  1  0
 35 36  1  0
 36 37  2  0
 37 38  1  0
 38 39  2  0
 39 40  1  0
 40 41  1  0
 40 42  1  0
 40 43  1  0
 39 44  1  0
 44 45  2  0
 45 36  1  0
 35 46  1  0
 35 47  1  0
 37 48  1  0
 38 49  1  0
 44 50  1  0
 45 51  1  0
  6 35  1  6
M  CHG  1   5   1
M  END
>  <attachment_point>  (460) 
26

>  <score>  (460) 
<NA>

$$$$
CAT-4j
     RDKit          3D

 54 57  0  0  1  0  0  0  0  0999 V2000
   11.7106   -2.3098    1.2658 C   0  0  0  0  0  0  0  0  0  0  0  0
   13.0313   -2.6523    0.7225 N   0  0  0  0  0  0  0  0  0  0  0  0
   14.2010   -2.6281    1.3773 C   0  0  0  0  0  0  0  0  0  0  0  0
   14.3777   -2.3568    2.6732 N   0  0  0  0  0  0  0  0  0  0  0  0
   15.2217   -2.9197    0.5738 N   0  0  0  0  0  0  0  0  0  0  0  0
   14.7965   -3.2519   -0.7875 C   0  0  1  0  0  0  0  0  0  0  0  0
   15.3794   -2.2443   -1.7949 C   0  0  0  0  0  0  0  0  0  0  0  0
   15.9522   -2.6550   -3.0208 C   0  0  0  0  0  0  0  0  0  0  0  0
   16.4340   -1.6937   -3.9273 C   0  0  0  0  0  0  0  0  0  0  0  0
   16.3364   -0.3224   -3.6308 C   0  0  0  0  0  0  0  0  0  0  0  0
   15.7943    0.1250   -2.4073 C   0  0  0  0  0  0  0  0  0  0  0  0
   15.6711    1.5693   -2.0915 C   0  0  0  0  0  0  0  0  0  0  0  0
   15.3832    2.0354   -0.7903 C   0  0  0  0  0  0  0  0  0  0  0  0
   15.3534    3.4188   -0.5357 C   0  0  0  0  0  0  0  0  0  0  0  0
   15.5968    4.3049   -1.5946 C   0  0  0  0  0  0  0  0  0  0  0  0
   15.8275    3.8920   -2.8511 N   0  0  0  0  0  0  0  0  0  0  0  0
   15.8598    2.5642   -3.0762 C   0  0  0  0  0  0  0  0  0  0  0  0
   15.3327   -0.8573   -1.5012 C   0  0  0  0  0  0  0  0  0  0  0  0
   13.2767   -3.0094   -0.6368 C   0  0  0  0  0  0  0  0  0  0  0  0
   12.3981   -3.0674   -1.5055 O   0  0  0  0  0  0  0  0  0  0  0  0
    0.0000    0.0000    0.0000 H   0  0  0  0  0  0  0  0  0  0  0  0
    0.0000    0.0000    0.0000 H   0  0  0  0  0  0  0  0  0  0  0  0
    0.0000    0.0000    0.0000 H   0  0  0  0  0  0  0  0  0  0  0  0
    0.0000    0.0000    0.0000 H   0  0  0  0  0  0  0  0  0  0  0  0
    0.0000    0.0000    0.0000 H   0  0  0  0  0  0  0  0  0  0  0  0
    0.0000    0.0000    0.0000 H   0  0  0  0  0  0  0  0  0  0  0  0
    0.0000    0.0000    0.0000 H   0  0  0  0  0  0  0  0  0  0  0  0
    0.0000    0.0000    0.0000 H   0  0  0  0  0  0  0  0  0  0  0  0
    0.0000    0.0000    0.0000 H   0  0  0  0  0  0  0  0  0  0  0  0
    0.0000    0.0000    0.0000 H   0  0  0  0  0  0  0  0  0  0  0  0
    0.0000    0.0000    0.0000 H   0  0  0  0  0  0  0  0  0  0  0  0
    0.0000    0.0000    0.0000 H   0  0  0  0  0  0  0  0  0  0  0  0
    0.0000    0.0000    0.0000 H   0  0  0  0  0  0  0  0  0  0  0  0
    0.0000    0.0000    0.0000 H   0  0  0  0  0  0  0  0  0  0  0  0
    6.9743   -1.5328   -0.3712 N   0  0  0  0  0  0  0  0  0  0  0  0
    6.7090   -0.8834    0.9000 C   0  0  0  0  0  0  0  0  0  0  0  0
    7.9423   -0.0826    1.2401 C   0  0  0  0  0  0  0  0  0  0  0  0
    8.3652    0.7863    0.1158 C   0  0  0  0  0  0  0  0  0  0  0  0
    8.3759    2.1150    0.5960 O   0  0  0  0  0  0  0  0  0  0  0  0
    9.6668    2.6392    0.5697 C   0  0  0  0  0  0  0  0  0  0  0  0
    7.5275    0.7523   -1.1007 C   0  0  0  0  0  0  0  0  0  0  0  0
    6.8301   -0.5150   -1.3955 C   0  0  0  0  0  0  0  0  0  0  0  0
    5.8751   -0.1630    0.7061 H   0  0  0  0  0  0  0  0  0  0  0  0
    6.4480   -1.5730    1.7008 H   0  0  0  0  0  0  0  0  0  0  0  0
    8.7296   -0.8411    1.5219 H   0  0  0  0  0  0  0  0  0  0  0  0
    7.7220    0.4595    2.1829 H   0  0  0  0  0  0  0  0  0  0  0  0
    9.4206    0.5272   -0.1552 H   0  0  0  0  0  0  0  0  0  0  0  0
    9.9917    2.6035   -0.5078 H   0  0  0  0  0  0  0  0  0  0  0  0
   10.3724    2.0136    1.1554 H   0  0  0  0  0  0  0  0  0  0  0  0
    9.5981    3.6746    0.9378 H   0  0  0  0  0  0  0  0  0  0  0  0
    6.7704    1.5887   -1.0747 H   0  0  0  0  0  0  0  0  0  0  0  0
    8.1828    1.0177   -1.9824 H   0  0  0  0  0  0  0  0  0  0  0  0
    7.1364   -0.9497   -2.3920 H   0  0  0  0  0  0  0  0  0  0  0  0
    5.7193   -0.3584   -1.5078 H   0  0  0  0  0  0  0  0  0  0  0  0
  1  2  1  0
  2  3  1  0
  2 19  1  0
  3  4  1  0
  3  5  2  0
  5  6  1  0
  6  7  1  0
  6 19  1  0
  7  8  2  0
  7 18  1  0
  8  9  1  0
  9 10  2  0
 10 11  1  0
 11 12  1  0
 11 18  2  0
 12 13  2  0
 12 17  1  0
 13 14  1  0
 14 15  2  0
 15 16  1  0
 16 17  2  0
 19 20  2  0
  1 21  1  0
  1 22  1  0
  1 23  1  0
  4 24  1  0
  4 25  1  0
  5 26  1  0
  8 27  1  0
  9 28  1  0
 10 29  1  0
 13 30  1  0
 14 31  1  0
 15 32  1  0
 17 33  1  0
 18 34  1  0
 35 36  1  0
 36 37  1  0
 37 38  1  0
 38 39  1  0
 39 40  1  0
 38 41  1  0
 41 42  1  0
 42 35  1  0
 36 43  1  0
 36 44  1  0
 37 45  1  0
 37 46  1  0
 38 47  1  0
 40 48  1  0
 40 49  1  0
 40 50  1  0
 41 51  1  0
 41 52  1  0
 42 53  1  0
 42 54  1  0
  6 35  1  6
M  CHG  1   5   1
M  END
>  <attachment_point>  (461) 
26

>  <score>  (461) 
<NA>

$$$$
CAT-4j
     RDKit          3D

 55 58  0  0  1  0  0  0  0  0999 V2000
   11.7106   -2.3098    1.2658 C   0  0  0  0  0  0  0  0  0  0  0  0
   13.0313   -2.6523    0.7225 N   0  0  0  0  0  0  0  0  0  0  0  0
   14.2010   -2.6281    1.3773 C   0  0  0  0  0  0  0  0  0  0  0  0
   14.3777   -2.3568    2.6732 N   0  0  0  0  0  0  0  0  0  0  0  0
   15.2217   -2.9197    0.5738 N   0  0  0  0  0  0  0  0  0  0  0  0
   14.7965   -3.2519   -0.7875 C   0  0  1  0  0  0  0  0  0  0  0  0
   15.3794   -2.2443   -1.7949 C   0  0  0  0  0  0  0  0  0  0  0  0
   15.9522   -2.6550   -3.0208 C   0  0  0  0  0  0  0  0  0  0  0  0
   16.4340   -1.6937   -3.9273 C   0  0  0  0  0  0  0  0  0  0  0  0
   16.3364   -0.3224   -3.6308 C   0  0  0  0  0  0  0  0  0  0  0  0
   15.7943    0.1250   -2.4073 C   0  0  0  0  0  0  0  0  0  0  0  0
   15.6711    1.5693   -2.0915 C   0  0  0  0  0  0  0  0  0  0  0  0
   15.3832    2.0354   -0.7903 C   0  0  0  0  0  0  0  0  0  0  0  0
   15.3534    3.4188   -0.5357 C   0  0  0  0  0  0  0  0  0  0  0  0
   15.5968    4.3049   -1.5946 C   0  0  0  0  0  0  0  0  0  0  0  0
   15.8275    3.8920   -2.8511 N   0  0  0  0  0  0  0  0  0  0  0  0
   15.8598    2.5642   -3.0762 C   0  0  0  0  0  0  0  0  0  0  0  0
   15.3327   -0.8573   -1.5012 C   0  0  0  0  0  0  0  0  0  0  0  0
   13.2767   -3.0094   -0.6368 C   0  0  0  0  0  0  0  0  0  0  0  0
   12.3981   -3.0674   -1.5055 O   0  0  0  0  0  0  0  0  0  0  0  0
    0.0000    0.0000    0.0000 H   0  0  0  0  0  0  0  0  0  0  0  0
    0.0000    0.0000    0.0000 H   0  0  0  0  0  0  0  0  0  0  0  0
    0.0000    0.0000    0.0000 H   0  0  0  0  0  0  0  0  0  0  0  0
    0.0000    0.0000    0.0000 H   0  0  0  0  0  0  0  0  0  0  0  0
    0.0000    0.0000    0.0000 H   0  0  0  0  0  0  0  0  0  0  0  0
    0.0000    0.0000    0.0000 H   0  0  0  0  0  0  0  0  0  0  0  0
    0.0000    0.0000    0.0000 H   0  0  0  0  0  0  0  0  0  0  0  0
    0.0000    0.0000    0.0000 H   0  0  0  0  0  0  0  0  0  0  0  0
    0.0000    0.0000    0.0000 H   0  0  0  0  0  0  0  0  0  0  0  0
    0.0000    0.0000    0.0000 H   0  0  0  0  0  0  0  0  0  0  0  0
    0.0000    0.0000    0.0000 H   0  0  0  0  0  0  0  0  0  0  0  0
    0.0000    0.0000    0.0000 H   0  0  0  0  0  0  0  0  0  0  0  0
    0.0000    0.0000    0.0000 H   0  0  0  0  0  0  0  0  0  0  0  0
    0.0000    0.0000    0.0000 H   0  0  0  0  0  0  0  0  0  0  0  0
    6.9249   -1.5219   -0.3686 C   0  0  0  0  0  0  0  0  0  0  0  0
    6.5591   -0.2507   -0.1879 C   0  0  0  0  0  0  0  0  0  0  0  0
    5.1951    0.0147   -0.1199 C   0  0  0  0  0  0  0  0  0  0  0  0
    4.2404   -0.9995   -0.2348 C   0  0  0  0  0  0  0  0  0  0  0  0
    2.8964   -0.6674   -0.1581 O   0  0  0  0  0  0  0  0  0  0  0  0
    1.8090   -1.5206   -0.2481 C   0  0  0  0  0  0  0  0  0  0  0  0
    0.9157   -1.4067    0.9890 C   0  0  0  0  0  0  0  0  0  0  0  0
    0.9674   -1.0016   -1.4271 C   0  0  0  0  0  0  0  0  0  0  0  0
    4.6706   -2.2962   -0.4204 C   0  0  0  0  0  0  0  0  0  0  0  0
    6.0587   -2.5565   -0.4883 C   0  0  0  0  0  0  0  0  0  0  0  0
    7.2434    0.5961   -0.0894 H   0  0  0  0  0  0  0  0  0  0  0  0
    4.8127    1.0111    0.0240 H   0  0  0  0  0  0  0  0  0  0  0  0
    2.0979   -2.5638   -0.3961 H   0  0  0  0  0  0  0  0  0  0  0  0
    1.5785   -1.3510    1.8600 H   0  0  0  0  0  0  0  0  0  0  0  0
    0.2717   -2.3223    0.9796 H   0  0  0  0  0  0  0  0  0  0  0  0
    0.2423   -0.5468    0.9260 H   0  0  0  0  0  0  0  0  0  0  0  0
    0.3480   -1.8382   -1.7618 H   0  0  0  0  0  0  0  0  0  0  0  0
    1.7150   -0.7274   -2.2167 H   0  0  0  0  0  0  0  0  0  0  0  0
    0.4110   -0.1315   -1.0467 H   0  0  0  0  0  0  0  0  0  0  0  0
    3.9860   -3.1251   -0.5164 H   0  0  0  0  0  0  0  0  0  0  0  0
    6.4117   -3.5572   -0.6320 H   0  0  0  0  0  0  0  0  0  0  0  0
  1  2  1  0
  2  3  1  0
  2 19  1  0
  3  4  1  0
  3  5  2  0
  5  6  1  0
  6  7  1  1
  6 19  1  0
  7  8  2  0
  7 18  1  0
  8  9  1  0
  9 10  2  0
 10 11  1  0
 11 12  1  0
 11 18  2  0
 12 13  2  0
 12 17  1  0
 13 14  1  0
 14 15  2  0
 15 16  1  0
 16 17  2  0
 19 20  2  0
  1 21  1  0
  1 22  1  0
  1 23  1  0
  4 24  1  0
  4 25  1  0
  5 26  1  0
  8 27  1  0
  9 28  1  0
 10 29  1  0
 13 30  1  0
 14 31  1  0
 15 32  1  0
 17 33  1  0
 18 34  1  0
 35 36  2  0
 36 37  1  0
 37 38  2  0
 38 39  1  0
 39 40  1  0
 40 41  1  0
 40 42  1  0
 38 43  1  0
 43 44  2  0
 44 35  1  0
 36 45  1  0
 37 46  1  0
 40 47  1  0
 41 48  1  0
 41 49  1  0
 41 50  1  0
 42 51  1  0
 42 52  1  0
 42 53  1  0
 43 54  1  0
 44 55  1  0
  6 35  1  0
M  CHG  1   5   1
M  END
>  <attachment_point>  (462) 
26

>  <score>  (462) 
<NA>

$$$$
CAT-4j
     RDKit          3D

 46 49  0  0  1  0  0  0  0  0999 V2000
   11.7106   -2.3098    1.2658 C   0  0  0  0  0  0  0  0  0  0  0  0
   13.0313   -2.6523    0.7225 N   0  0  0  0  0  0  0  0  0  0  0  0
   14.2010   -2.6281    1.3773 C   0  0  0  0  0  0  0  0  0  0  0  0
   14.3777   -2.3568    2.6732 N   0  0  0  0  0  0  0  0  0  0  0  0
   15.2217   -2.9197    0.5738 N   0  0  0  0  0  0  0  0  0  0  0  0
   14.7965   -3.2519   -0.7875 C   0  0  1  0  0  0  0  0  0  0  0  0
   15.3794   -2.2443   -1.7949 C   0  0  0  0  0  0  0  0  0  0  0  0
   15.9522   -2.6550   -3.0208 C   0  0  0  0  0  0  0  0  0  0  0  0
   16.4340   -1.6937   -3.9273 C   0  0  0  0  0  0  0  0  0  0  0  0
   16.3364   -0.3224   -3.6308 C   0  0  0  0  0  0  0  0  0  0  0  0
   15.7943    0.1250   -2.4073 C   0  0  0  0  0  0  0  0  0  0  0  0
   15.6711    1.5693   -2.0915 C   0  0  0  0  0  0  0  0  0  0  0  0
   15.3832    2.0354   -0.7903 C   0  0  0  0  0  0  0  0  0  0  0  0
   15.3534    3.4188   -0.5357 C   0  0  0  0  0  0  0  0  0  0  0  0
   15.5968    4.3049   -1.5946 C   0  0  0  0  0  0  0  0  0  0  0  0
   15.8275    3.8920   -2.8511 N   0  0  0  0  0  0  0  0  0  0  0  0
   15.8598    2.5642   -3.0762 C   0  0  0  0  0  0  0  0  0  0  0  0
   15.3327   -0.8573   -1.5012 C   0  0  0  0  0  0  0  0  0  0  0  0
   13.2767   -3.0094   -0.6368 C   0  0  0  0  0  0  0  0  0  0  0  0
   12.3981   -3.0674   -1.5055 O   0  0  0  0  0  0  0  0  0  0  0  0
    0.0000    0.0000    0.0000 H   0  0  0  0  0  0  0  0  0  0  0  0
    0.0000    0.0000    0.0000 H   0  0  0  0  0  0  0  0  0  0  0  0
    0.0000    0.0000    0.0000 H   0  0  0  0  0  0  0  0  0  0  0  0
    0.0000    0.0000    0.0000 H   0  0  0  0  0  0  0  0  0  0  0  0
    0.0000    0.0000    0.0000 H   0  0  0  0  0  0  0  0  0  0  0  0
    0.0000    0.0000    0.0000 H   0  0  0  0  0  0  0  0  0  0  0  0
    0.0000    0.0000    0.0000 H   0  0  0  0  0  0  0  0  0  0  0  0
    0.0000    0.0000    0.0000 H   0  0  0  0  0  0  0  0  0  0  0  0
    0.0000    0.0000    0.0000 H   0  0  0  0  0  0  0  0  0  0  0  0
    0.0000    0.0000    0.0000 H   0  0  0  0  0  0  0  0  0  0  0  0
    0.0000    0.0000    0.0000 H   0  0  0  0  0  0  0  0  0  0  0  0
    0.0000    0.0000    0.0000 H   0  0  0  0  0  0  0  0  0  0  0  0
    0.0000    0.0000    0.0000 H   0  0  0  0  0  0  0  0  0  0  0  0
    0.0000    0.0000    0.0000 H   0  0  0  0  0  0  0  0  0  0  0  0
    6.9989   -1.5382   -0.3725 C   0  0  2  0  0  0  0  0  0  0  0  0
    6.4166   -1.8605   -1.7564 C   0  0  0  0  0  0  0  0  0  0  0  0
    7.1199   -0.7398   -2.5357 C   0  0  0  0  0  0  0  0  0  0  0  0
    7.1158    0.3572   -1.7272 O   0  0  0  0  0  0  0  0  0  0  0  0
    6.8790   -0.0176   -0.4308 C   0  0  0  0  0  0  0  0  0  0  0  0
    6.4219   -1.9816    0.4361 H   0  0  0  0  0  0  0  0  0  0  0  0
    5.3401   -1.6517   -1.7892 H   0  0  0  0  0  0  0  0  0  0  0  0
    6.7036   -2.8457   -2.1106 H   0  0  0  0  0  0  0  0  0  0  0  0
    8.1825   -1.1011   -2.6383 H   0  0  0  0  0  0  0  0  0  0  0  0
    6.6094   -0.6469   -3.4889 H   0  0  0  0  0  0  0  0  0  0  0  0
    5.8321    0.2762   -0.1459 H   0  0  0  0  0  0  0  0  0  0  0  0
    7.6230    0.3764    0.2922 H   0  0  0  0  0  0  0  0  0  0  0  0
  1  2  1  0
  2  3  1  0
  2 19  1  0
  3  4  1  0
  3  5  2  0
  5  6  1  0
  6  7  1  1
  6 19  1  0
  7  8  2  0
  7 18  1  0
  8  9  1  0
  9 10  2  0
 10 11  1  0
 11 12  1  0
 11 18  2  0
 12 13  2  0
 12 17  1  0
 13 14  1  0
 14 15  2  0
 15 16  1  0
 16 17  2  0
 19 20  2  0
  1 21  1  0
  1 22  1  0
  1 23  1  0
  4 24  1  0
  4 25  1  0
  5 26  1  0
  8 27  1  0
  9 28  1  0
 10 29  1  0
 13 30  1  0
 14 31  1  0
 15 32  1  0
 17 33  1  0
 18 34  1  0
 35 36  1  0
 36 37  1  0
 37 38  1  0
 38 39  1  0
 39 35  1  0
 35 40  1  6
 36 41  1  0
 36 42  1  0
 37 43  1  0
 37 44  1  0
 39 45  1  0
 39 46  1  0
  6 35  1  0
M  CHG  1   5   1
M  END
>  <attachment_point>  (463) 
26

>  <score>  (463) 
<NA>

$$$$
CAT-4j
     RDKit          3D

 45 47  0  0  1  0  0  0  0  0999 V2000
   11.7106   -2.3098    1.2658 C   0  0  0  0  0  0  0  0  0  0  0  0
   13.0313   -2.6523    0.7225 N   0  0  0  0  0  0  0  0  0  0  0  0
   14.2010   -2.6281    1.3773 C   0  0  0  0  0  0  0  0  0  0  0  0
   14.3777   -2.3568    2.6732 N   0  0  0  0  0  0  0  0  0  0  0  0
   15.2217   -2.9197    0.5738 N   0  0  0  0  0  0  0  0  0  0  0  0
   14.7965   -3.2519   -0.7875 C   0  0  1  0  0  0  0  0  0  0  0  0
   15.3794   -2.2443   -1.7949 C   0  0  0  0  0  0  0  0  0  0  0  0
   15.9522   -2.6550   -3.0208 C   0  0  0  0  0  0  0  0  0  0  0  0
   16.4340   -1.6937   -3.9273 C   0  0  0  0  0  0  0  0  0  0  0  0
   16.3364   -0.3224   -3.6308 C   0  0  0  0  0  0  0  0  0  0  0  0
   15.7943    0.1250   -2.4073 C   0  0  0  0  0  0  0  0  0  0  0  0
   15.6711    1.5693   -2.0915 C   0  0  0  0  0  0  0  0  0  0  0  0
   15.3832    2.0354   -0.7903 C   0  0  0  0  0  0  0  0  0  0  0  0
   15.3534    3.4188   -0.5357 C   0  0  0  0  0  0  0  0  0  0  0  0
   15.5968    4.3049   -1.5946 C   0  0  0  0  0  0  0  0  0  0  0  0
   15.8275    3.8920   -2.8511 N   0  0  0  0  0  0  0  0  0  0  0  0
   15.8598    2.5642   -3.0762 C   0  0  0  0  0  0  0  0  0  0  0  0
   15.3327   -0.8573   -1.5012 C   0  0  0  0  0  0  0  0  0  0  0  0
   13.2767   -3.0094   -0.6368 C   0  0  0  0  0  0  0  0  0  0  0  0
   12.3981   -3.0674   -1.5055 O   0  0  0  0  0  0  0  0  0  0  0  0
    0.0000    0.0000    0.0000 H   0  0  0  0  0  0  0  0  0  0  0  0
    0.0000    0.0000    0.0000 H   0  0  0  0  0  0  0  0  0  0  0  0
    0.0000    0.0000    0.0000 H   0  0  0  0  0  0  0  0  0  0  0  0
    0.0000    0.0000    0.0000 H   0  0  0  0  0  0  0  0  0  0  0  0
    0.0000    0.0000    0.0000 H   0  0  0  0  0  0  0  0  0  0  0  0
    0.0000    0.0000    0.0000 H   0  0  0  0  0  0  0  0  0  0  0  0
    0.0000    0.0000    0.0000 H   0  0  0  0  0  0  0  0  0  0  0  0
    0.0000    0.0000    0.0000 H   0  0  0  0  0  0  0  0  0  0  0  0
    0.0000    0.0000    0.0000 H   0  0  0  0  0  0  0  0  0  0  0  0
    0.0000    0.0000    0.0000 H   0  0  0  0  0  0  0  0  0  0  0  0
    0.0000    0.0000    0.0000 H   0  0  0  0  0  0  0  0  0  0  0  0
    0.0000    0.0000    0.0000 H   0  0  0  0  0  0  0  0  0  0  0  0
    0.0000    0.0000    0.0000 H   0  0  0  0  0  0  0  0  0  0  0  0
    0.0000    0.0000    0.0000 H   0  0  0  0  0  0  0  0  0  0  0  0
    6.7804   -1.4902   -0.3609 C   0  0  0  0  0  0  0  0  0  0  0  0
    6.9615   -0.5059    0.5316 O   0  0  0  0  0  0  0  0  0  0  0  0
    7.7771    0.5454    0.1112 C   0  0  0  0  0  0  0  0  0  0  0  0
    9.1334   -0.0436   -0.2058 C   0  0  0  0  0  0  0  0  0  0  0  0
    6.8329   -1.2850   -1.4044 H   0  0  0  0  0  0  0  0  0  0  0  0
    6.6945   -2.5061   -0.0171 H   0  0  0  0  0  0  0  0  0  0  0  0
    7.2969    0.9897   -0.7977 H   0  0  0  0  0  0  0  0  0  0  0  0
    7.8087    1.3041    0.8977 H   0  0  0  0  0  0  0  0  0  0  0  0
    9.9348    0.7160   -0.1963 H   0  0  0  0  0  0  0  0  0  0  0  0
    9.1085   -0.5351   -1.1966 H   0  0  0  0  0  0  0  0  0  0  0  0
    9.3958   -0.7959    0.5576 H   0  0  0  0  0  0  0  0  0  0  0  0
  1  2  1  0
  2  3  1  0
  2 19  1  0
  3  4  1  0
  3  5  2  0
  5  6  1  0
  6  7  1  0
  6 19  1  0
  7  8  2  0
  7 18  1  0
  8  9  1  0
  9 10  2  0
 10 11  1  0
 11 12  1  0
 11 18  2  0
 12 13  2  0
 12 17  1  0
 13 14  1  0
 14 15  2  0
 15 16  1  0
 16 17  2  0
 19 20  2  0
  1 21  1  0
  1 22  1  0
  1 23  1  0
  4 24  1  0
  4 25  1  0
  5 26  1  0
  8 27  1  0
  9 28  1  0
 10 29  1  0
 13 30  1  0
 14 31  1  0
 15 32  1  0
 17 33  1  0
 18 34  1  0
 35 36  1  0
 36 37  1  0
 37 38  1  0
 35 39  1  0
 35 40  1  0
 37 41  1  0
 37 42  1  0
 38 43  1  0
 38 44  1  0
 38 45  1  0
  6 35  1  6
M  CHG  1   5   1
M  END
>  <attachment_point>  (464) 
26

>  <score>  (464) 
<NA>

$$$$
CAT-4j
     RDKit          3D

 43 46  0  0  1  0  0  0  0  0999 V2000
   11.7106   -2.3098    1.2658 C   0  0  0  0  0  0  0  0  0  0  0  0
   13.0313   -2.6523    0.7225 N   0  0  0  0  0  0  0  0  0  0  0  0
   14.2010   -2.6281    1.3773 C   0  0  0  0  0  0  0  0  0  0  0  0
   14.3777   -2.3568    2.6732 N   0  0  0  0  0  0  0  0  0  0  0  0
   15.2217   -2.9197    0.5738 N   0  0  0  0  0  0  0  0  0  0  0  0
   14.7965   -3.2519   -0.7875 C   0  0  1  0  0  0  0  0  0  0  0  0
   15.3794   -2.2443   -1.7949 C   0  0  0  0  0  0  0  0  0  0  0  0
   15.9522   -2.6550   -3.0208 C   0  0  0  0  0  0  0  0  0  0  0  0
   16.4340   -1.6937   -3.9273 C   0  0  0  0  0  0  0  0  0  0  0  0
   16.3364   -0.3224   -3.6308 C   0  0  0  0  0  0  0  0  0  0  0  0
   15.7943    0.1250   -2.4073 C   0  0  0  0  0  0  0  0  0  0  0  0
   15.6711    1.5693   -2.0915 C   0  0  0  0  0  0  0  0  0  0  0  0
   15.3832    2.0354   -0.7903 C   0  0  0  0  0  0  0  0  0  0  0  0
   15.3534    3.4188   -0.5357 C   0  0  0  0  0  0  0  0  0  0  0  0
   15.5968    4.3049   -1.5946 C   0  0  0  0  0  0  0  0  0  0  0  0
   15.8275    3.8920   -2.8511 N   0  0  0  0  0  0  0  0  0  0  0  0
   15.8598    2.5642   -3.0762 C   0  0  0  0  0  0  0  0  0  0  0  0
   15.3327   -0.8573   -1.5012 C   0  0  0  0  0  0  0  0  0  0  0  0
   13.2767   -3.0094   -0.6368 C   0  0  0  0  0  0  0  0  0  0  0  0
   12.3981   -3.0674   -1.5055 O   0  0  0  0  0  0  0  0  0  0  0  0
    0.0000    0.0000    0.0000 H   0  0  0  0  0  0  0  0  0  0  0  0
    0.0000    0.0000    0.0000 H   0  0  0  0  0  0  0  0  0  0  0  0
    0.0000    0.0000    0.0000 H   0  0  0  0  0  0  0  0  0  0  0  0
    0.0000    0.0000    0.0000 H   0  0  0  0  0  0  0  0  0  0  0  0
    0.0000    0.0000    0.0000 H   0  0  0  0  0  0  0  0  0  0  0  0
    0.0000    0.0000    0.0000 H   0  0  0  0  0  0  0  0  0  0  0  0
    0.0000    0.0000    0.0000 H   0  0  0  0  0  0  0  0  0  0  0  0
    0.0000    0.0000    0.0000 H   0  0  0  0  0  0  0  0  0  0  0  0
    0.0000    0.0000    0.0000 H   0  0  0  0  0  0  0  0  0  0  0  0
    0.0000    0.0000    0.0000 H   0  0  0  0  0  0  0  0  0  0  0  0
    0.0000    0.0000    0.0000 H   0  0  0  0  0  0  0  0  0  0  0  0
    0.0000    0.0000    0.0000 H   0  0  0  0  0  0  0  0  0  0  0  0
    0.0000    0.0000    0.0000 H   0  0  0  0  0  0  0  0  0  0  0  0
    0.0000    0.0000    0.0000 H   0  0  0  0  0  0  0  0  0  0  0  0
    6.8530   -1.5061   -0.3647 N   0  0  0  0  0  0  0  0  0  0  0  0
    6.1804   -2.7009   -0.4523 C   0  0  0  0  0  0  0  0  0  0  0  0
    4.8880   -2.9189   -0.4296 N   0  0  0  0  0  0  0  0  0  0  0  0
    4.3963   -4.1070   -0.5225 C   0  0  0  0  0  0  0  0  0  0  0  0
    5.2695   -5.1540   -0.6475 C   0  0  0  0  0  0  0  0  0  0  0  0
    6.7690   -4.3366   -0.6220 S   0  0  0  0  0  0  0  0  0  0  0  0
    6.8425   -0.5828   -0.2796 H   0  0  0  0  0  0  0  0  0  0  0  0
    3.3027   -4.2920   -0.5034 H   0  0  0  0  0  0  0  0  0  0  0  0
    5.0177   -6.2108   -0.7363 H   0  0  0  0  0  0  0  0  0  0  0  0
  1  2  1  0
  2  3  1  0
  2 19  1  0
  3  4  1  0
  3  5  2  0
  5  6  1  0
  6  7  1  0
  6 19  1  0
  7  8  2  0
  7 18  1  0
  8  9  1  0
  9 10  2  0
 10 11  1  0
 11 12  1  0
 11 18  2  0
 12 13  2  0
 12 17  1  0
 13 14  1  0
 14 15  2  0
 15 16  1  0
 16 17  2  0
 19 20  2  0
  1 21  1  0
  1 22  1  0
  1 23  1  0
  4 24  1  0
  4 25  1  0
  5 26  1  0
  8 27  1  0
  9 28  1  0
 10 29  1  0
 13 30  1  0
 14 31  1  0
 15 32  1  0
 17 33  1  0
 18 34  1  0
 35 36  1  0
 36 37  2  0
 37 38  1  0
 38 39  2  0
 39 40  1  0
 40 36  1  0
 35 41  1  0
 38 42  1  0
 39 43  1  0
  6 35  1  6
M  CHG  1   5   1
M  END
>  <attachment_point>  (465) 
26

>  <score>  (465) 
<NA>

$$$$
CAT-4j
     RDKit          3D

 51 54  0  0  1  0  0  0  0  0999 V2000
   11.7106   -2.3098    1.2658 C   0  0  0  0  0  0  0  0  0  0  0  0
   13.0313   -2.6523    0.7225 N   0  0  0  0  0  0  0  0  0  0  0  0
   14.2010   -2.6281    1.3773 C   0  0  0  0  0  0  0  0  0  0  0  0
   14.3777   -2.3568    2.6732 N   0  0  0  0  0  0  0  0  0  0  0  0
   15.2217   -2.9197    0.5738 N   0  0  0  0  0  0  0  0  0  0  0  0
   14.7965   -3.2519   -0.7875 C   0  0  1  0  0  0  0  0  0  0  0  0
   15.3794   -2.2443   -1.7949 C   0  0  0  0  0  0  0  0  0  0  0  0
   15.9522   -2.6550   -3.0208 C   0  0  0  0  0  0  0  0  0  0  0  0
   16.4340   -1.6937   -3.9273 C   0  0  0  0  0  0  0  0  0  0  0  0
   16.3364   -0.3224   -3.6308 C   0  0  0  0  0  0  0  0  0  0  0  0
   15.7943    0.1250   -2.4073 C   0  0  0  0  0  0  0  0  0  0  0  0
   15.6711    1.5693   -2.0915 C   0  0  0  0  0  0  0  0  0  0  0  0
   15.3832    2.0354   -0.7903 C   0  0  0  0  0  0  0  0  0  0  0  0
   15.3534    3.4188   -0.5357 C   0  0  0  0  0  0  0  0  0  0  0  0
   15.5968    4.3049   -1.5946 C   0  0  0  0  0  0  0  0  0  0  0  0
   15.8275    3.8920   -2.8511 N   0  0  0  0  0  0  0  0  0  0  0  0
   15.8598    2.5642   -3.0762 C   0  0  0  0  0  0  0  0  0  0  0  0
   15.3327   -0.8573   -1.5012 C   0  0  0  0  0  0  0  0  0  0  0  0
   13.2767   -3.0094   -0.6368 C   0  0  0  0  0  0  0  0  0  0  0  0
   12.3981   -3.0674   -1.5055 O   0  0  0  0  0  0  0  0  0  0  0  0
    0.0000    0.0000    0.0000 H   0  0  0  0  0  0  0  0  0  0  0  0
    0.0000    0.0000    0.0000 H   0  0  0  0  0  0  0  0  0  0  0  0
    0.0000    0.0000    0.0000 H   0  0  0  0  0  0  0  0  0  0  0  0
    0.0000    0.0000    0.0000 H   0  0  0  0  0  0  0  0  0  0  0  0
    0.0000    0.0000    0.0000 H   0  0  0  0  0  0  0  0  0  0  0  0
    0.0000    0.0000    0.0000 H   0  0  0  0  0  0  0  0  0  0  0  0
    0.0000    0.0000    0.0000 H   0  0  0  0  0  0  0  0  0  0  0  0
    0.0000    0.0000    0.0000 H   0  0  0  0  0  0  0  0  0  0  0  0
    0.0000    0.0000    0.0000 H   0  0  0  0  0  0  0  0  0  0  0  0
    0.0000    0.0000    0.0000 H   0  0  0  0  0  0  0  0  0  0  0  0
    0.0000    0.0000    0.0000 H   0  0  0  0  0  0  0  0  0  0  0  0
    0.0000    0.0000    0.0000 H   0  0  0  0  0  0  0  0  0  0  0  0
    0.0000    0.0000    0.0000 H   0  0  0  0  0  0  0  0  0  0  0  0
    0.0000    0.0000    0.0000 H   0  0  0  0  0  0  0  0  0  0  0  0
    6.8706   -1.5100   -0.3657 N   0  0  0  0  0  0  0  0  0  0  0  0
    6.6462   -0.1676   -0.4462 C   0  0  0  0  0  0  0  0  0  0  0  0
    7.5578    0.7168   -0.5722 O   0  0  0  0  0  0  0  0  0  0  0  0
    5.2918    0.3513   -0.3898 N   0  0  0  0  0  0  0  0  0  0  0  0
    4.9990    1.7209   -0.4676 C   0  0  0  0  0  0  0  0  0  0  0  0
    4.7773    2.2796   -1.7196 C   0  0  0  0  0  0  0  0  0  0  0  0
    4.4832    3.6177   -1.8961 C   0  0  0  0  0  0  0  0  0  0  0  0
    4.4080    4.4188   -0.7985 C   0  0  0  0  0  0  0  0  0  0  0  0
    4.0341    6.1135   -1.0392 Cl  0  0  0  0  0  0  0  0  0  0  0  0
    4.6262    3.8782    0.4548 C   0  0  0  0  0  0  0  0  0  0  0  0
    4.9156    2.5584    0.6208 C   0  0  0  0  0  0  0  0  0  0  0  0
    6.3265   -2.2846   -0.2728 H   0  0  0  0  0  0  0  0  0  0  0  0
    4.5637   -0.3815   -0.2872 H   0  0  0  0  0  0  0  0  0  0  0  0
    4.8397    1.6313   -2.5892 H   0  0  0  0  0  0  0  0  0  0  0  0
    4.3229    3.9743   -2.9189 H   0  0  0  0  0  0  0  0  0  0  0  0
    4.5542    4.5618    1.2982 H   0  0  0  0  0  0  0  0  0  0  0  0
    5.0855    2.1337    1.5896 H   0  0  0  0  0  0  0  0  0  0  0  0
  1  2  1  0
  2  3  1  0
  2 19  1  0
  3  4  1  0
  3  5  2  0
  5  6  1  0
  6  7  1  0
  6 19  1  0
  7  8  2  0
  7 18  1  0
  8  9  1  0
  9 10  2  0
 10 11  1  0
 11 12  1  0
 11 18  2  0
 12 13  2  0
 12 17  1  0
 13 14  1  0
 14 15  2  0
 15 16  1  0
 16 17  2  0
 19 20  2  0
  1 21  1  0
  1 22  1  0
  1 23  1  0
  4 24  1  0
  4 25  1  0
  5 26  1  0
  8 27  1  0
  9 28  1  0
 10 29  1  0
 13 30  1  0
 14 31  1  0
 15 32  1  0
 17 33  1  0
 18 34  1  0
 35 36  1  0
 36 37  2  0
 36 38  1  0
 38 39  1  0
 39 40  2  0
 40 41  1  0
 41 42  2  0
 42 43  1  0
 42 44  1  0
 44 45  2  0
 45 39  1  0
 35 46  1  0
 38 47  1  0
 40 48  1  0
 41 49  1  0
 44 50  1  0
 45 51  1  0
  6 35  1  6
M  CHG  1   5   1
M  END
>  <attachment_point>  (466) 
26

>  <score>  (466) 
<NA>

$$$$
CAT-4j
     RDKit          3D

 48 51  0  0  1  0  0  0  0  0999 V2000
   11.7106   -2.3098    1.2658 C   0  0  0  0  0  0  0  0  0  0  0  0
   13.0313   -2.6523    0.7225 N   0  0  0  0  0  0  0  0  0  0  0  0
   14.2010   -2.6281    1.3773 C   0  0  0  0  0  0  0  0  0  0  0  0
   14.3777   -2.3568    2.6732 N   0  0  0  0  0  0  0  0  0  0  0  0
   15.2217   -2.9197    0.5738 N   0  0  0  0  0  0  0  0  0  0  0  0
   14.7965   -3.2519   -0.7875 C   0  0  1  0  0  0  0  0  0  0  0  0
   15.3794   -2.2443   -1.7949 C   0  0  0  0  0  0  0  0  0  0  0  0
   15.9522   -2.6550   -3.0208 C   0  0  0  0  0  0  0  0  0  0  0  0
   16.4340   -1.6937   -3.9273 C   0  0  0  0  0  0  0  0  0  0  0  0
   16.3364   -0.3224   -3.6308 C   0  0  0  0  0  0  0  0  0  0  0  0
   15.7943    0.1250   -2.4073 C   0  0  0  0  0  0  0  0  0  0  0  0
   15.6711    1.5693   -2.0915 C   0  0  0  0  0  0  0  0  0  0  0  0
   15.3832    2.0354   -0.7903 C   0  0  0  0  0  0  0  0  0  0  0  0
   15.3534    3.4188   -0.5357 C   0  0  0  0  0  0  0  0  0  0  0  0
   15.5968    4.3049   -1.5946 C   0  0  0  0  0  0  0  0  0  0  0  0
   15.8275    3.8920   -2.8511 N   0  0  0  0  0  0  0  0  0  0  0  0
   15.8598    2.5642   -3.0762 C   0  0  0  0  0  0  0  0  0  0  0  0
   15.3327   -0.8573   -1.5012 C   0  0  0  0  0  0  0  0  0  0  0  0
   13.2767   -3.0094   -0.6368 C   0  0  0  0  0  0  0  0  0  0  0  0
   12.3981   -3.0674   -1.5055 O   0  0  0  0  0  0  0  0  0  0  0  0
    0.0000    0.0000    0.0000 H   0  0  0  0  0  0  0  0  0  0  0  0
    0.0000    0.0000    0.0000 H   0  0  0  0  0  0  0  0  0  0  0  0
    0.0000    0.0000    0.0000 H   0  0  0  0  0  0  0  0  0  0  0  0
    0.0000    0.0000    0.0000 H   0  0  0  0  0  0  0  0  0  0  0  0
    0.0000    0.0000    0.0000 H   0  0  0  0  0  0  0  0  0  0  0  0
    0.0000    0.0000    0.0000 H   0  0  0  0  0  0  0  0  0  0  0  0
    0.0000    0.0000    0.0000 H   0  0  0  0  0  0  0  0  0  0  0  0
    0.0000    0.0000    0.0000 H   0  0  0  0  0  0  0  0  0  0  0  0
    0.0000    0.0000    0.0000 H   0  0  0  0  0  0  0  0  0  0  0  0
    0.0000    0.0000    0.0000 H   0  0  0  0  0  0  0  0  0  0  0  0
    0.0000    0.0000    0.0000 H   0  0  0  0  0  0  0  0  0  0  0  0
    0.0000    0.0000    0.0000 H   0  0  0  0  0  0  0  0  0  0  0  0
    0.0000    0.0000    0.0000 H   0  0  0  0  0  0  0  0  0  0  0  0
    0.0000    0.0000    0.0000 H   0  0  0  0  0  0  0  0  0  0  0  0
    6.9611   -1.5299   -0.3705 C   0  0  0  0  0  0  0  0  0  0  0  0
    6.5585   -1.6908    1.0436 C   0  0  0  0  0  0  0  0  0  0  0  0
    6.6445   -0.6022    1.8852 C   0  0  0  0  0  0  0  0  0  0  0  0
    6.2636   -0.7765    3.1996 C   0  0  0  0  0  0  0  0  0  0  0  0
    5.8112   -2.0152    3.6408 C   0  0  0  0  0  0  0  0  0  0  0  0
    5.3209   -2.2529    5.3180 Cl  0  0  0  0  0  0  0  0  0  0  0  0
    5.7323   -3.0898    2.7863 C   0  0  0  0  0  0  0  0  0  0  0  0
    5.1529   -4.6382    3.3932 Cl  0  0  0  0  0  0  0  0  0  0  0  0
    6.1101   -2.9293    1.4696 C   0  0  0  0  0  0  0  0  0  0  0  0
    6.8936   -0.4795   -0.6497 H   0  0  0  0  0  0  0  0  0  0  0  0
    6.4246   -2.2252   -1.0484 H   0  0  0  0  0  0  0  0  0  0  0  0
    6.9935    0.3674    1.5597 H   0  0  0  0  0  0  0  0  0  0  0  0
    6.3154    0.0544    3.8964 H   0  0  0  0  0  0  0  0  0  0  0  0
    6.0440   -3.7800    0.8081 H   0  0  0  0  0  0  0  0  0  0  0  0
  1  2  1  0
  2  3  1  0
  2 19  1  0
  3  4  1  0
  3  5  2  0
  5  6  1  0
  6  7  1  0
  6 19  1  0
  7  8  2  0
  7 18  1  0
  8  9  1  0
  9 10  2  0
 10 11  1  0
 11 12  1  0
 11 18  2  0
 12 13  2  0
 12 17  1  0
 13 14  1  0
 14 15  2  0
 15 16  1  0
 16 17  2  0
 19 20  2  0
  1 21  1  0
  1 22  1  0
  1 23  1  0
  4 24  1  0
  4 25  1  0
  5 26  1  0
  8 27  1  0
  9 28  1  0
 10 29  1  0
 13 30  1  0
 14 31  1  0
 15 32  1  0
 17 33  1  0
 18 34  1  0
 35 36  1  0
 36 37  2  0
 37 38  1  0
 38 39  2  0
 39 40  1  0
 39 41  1  0
 41 42  1  0
 41 43  2  0
 43 36  1  0
 35 44  1  0
 35 45  1  0
 37 46  1  0
 38 47  1  0
 43 48  1  0
  6 35  1  6
M  CHG  1   5   1
M  END
>  <attachment_point>  (467) 
26

>  <score>  (467) 
<NA>

$$$$
CAT-4j
     RDKit          3D

 50 54  0  0  1  0  0  0  0  0999 V2000
   11.7106   -2.3098    1.2658 C   0  0  0  0  0  0  0  0  0  0  0  0
   13.0313   -2.6523    0.7225 N   0  0  0  0  0  0  0  0  0  0  0  0
   14.2010   -2.6281    1.3773 C   0  0  0  0  0  0  0  0  0  0  0  0
   14.3777   -2.3568    2.6732 N   0  0  0  0  0  0  0  0  0  0  0  0
   15.2217   -2.9197    0.5738 N   0  0  0  0  0  0  0  0  0  0  0  0
   14.7965   -3.2519   -0.7875 C   0  0  1  0  0  0  0  0  0  0  0  0
   15.3794   -2.2443   -1.7949 C   0  0  0  0  0  0  0  0  0  0  0  0
   15.9522   -2.6550   -3.0208 C   0  0  0  0  0  0  0  0  0  0  0  0
   16.4340   -1.6937   -3.9273 C   0  0  0  0  0  0  0  0  0  0  0  0
   16.3364   -0.3224   -3.6308 C   0  0  0  0  0  0  0  0  0  0  0  0
   15.7943    0.1250   -2.4073 C   0  0  0  0  0  0  0  0  0  0  0  0
   15.6711    1.5693   -2.0915 C   0  0  0  0  0  0  0  0  0  0  0  0
   15.3832    2.0354   -0.7903 C   0  0  0  0  0  0  0  0  0  0  0  0
   15.3534    3.4188   -0.5357 C   0  0  0  0  0  0  0  0  0  0  0  0
   15.5968    4.3049   -1.5946 C   0  0  0  0  0  0  0  0  0  0  0  0
   15.8275    3.8920   -2.8511 N   0  0  0  0  0  0  0  0  0  0  0  0
   15.8598    2.5642   -3.0762 C   0  0  0  0  0  0  0  0  0  0  0  0
   15.3327   -0.8573   -1.5012 C   0  0  0  0  0  0  0  0  0  0  0  0
   13.2767   -3.0094   -0.6368 C   0  0  0  0  0  0  0  0  0  0  0  0
   12.3981   -3.0674   -1.5055 O   0  0  0  0  0  0  0  0  0  0  0  0
    0.0000    0.0000    0.0000 H   0  0  0  0  0  0  0  0  0  0  0  0
    0.0000    0.0000    0.0000 H   0  0  0  0  0  0  0  0  0  0  0  0
    0.0000    0.0000    0.0000 H   0  0  0  0  0  0  0  0  0  0  0  0
    0.0000    0.0000    0.0000 H   0  0  0  0  0  0  0  0  0  0  0  0
    0.0000    0.0000    0.0000 H   0  0  0  0  0  0  0  0  0  0  0  0
    0.0000    0.0000    0.0000 H   0  0  0  0  0  0  0  0  0  0  0  0
    0.0000    0.0000    0.0000 H   0  0  0  0  0  0  0  0  0  0  0  0
    0.0000    0.0000    0.0000 H   0  0  0  0  0  0  0  0  0  0  0  0
    0.0000    0.0000    0.0000 H   0  0  0  0  0  0  0  0  0  0  0  0
    0.0000    0.0000    0.0000 H   0  0  0  0  0  0  0  0  0  0  0  0
    0.0000    0.0000    0.0000 H   0  0  0  0  0  0  0  0  0  0  0  0
    0.0000    0.0000    0.0000 H   0  0  0  0  0  0  0  0  0  0  0  0
    0.0000    0.0000    0.0000 H   0  0  0  0  0  0  0  0  0  0  0  0
    0.0000    0.0000    0.0000 H   0  0  0  0  0  0  0  0  0  0  0  0
    6.9526   -1.5280   -0.3700 C   0  0  0  0  0  0  0  0  0  0  0  0
    6.3866   -1.2962    0.8665 C   0  0  0  0  0  0  0  0  0  0  0  0
    5.0425   -0.9980    0.9696 C   0  0  0  0  0  0  0  0  0  0  0  0
    4.3052   -0.9436   -0.1988 C   0  0  0  0  0  0  0  0  0  0  0  0
    4.8775   -1.1774   -1.4418 C   0  0  0  0  0  0  0  0  0  0  0  0
    4.1364   -1.1219   -2.6063 C   0  0  0  0  0  0  0  0  0  0  0  0
    4.7506   -1.3620   -3.8179 C   0  0  0  0  0  0  0  0  0  0  0  0
    6.0959   -1.6582   -3.8971 C   0  0  0  0  0  0  0  0  0  0  0  0
    6.7975   -1.7067   -2.7497 N   0  0  0  0  0  0  0  0  0  0  0  0
    6.2351   -1.4778   -1.5379 C   0  0  0  0  0  0  0  0  0  0  0  0
    6.9714   -1.3390    1.7970 H   0  0  0  0  0  0  0  0  0  0  0  0
    4.5891   -0.8146    1.9334 H   0  0  0  0  0  0  0  0  0  0  0  0
    3.2552   -0.7130   -0.1449 H   0  0  0  0  0  0  0  0  0  0  0  0
    3.0836   -0.8878   -2.5180 H   0  0  0  0  0  0  0  0  0  0  0  0
    4.1760   -1.3201   -4.7344 H   0  0  0  0  0  0  0  0  0  0  0  0
    6.5226   -1.8359   -4.8619 H   0  0  0  0  0  0  0  0  0  0  0  0
  1  2  1  0
  2  3  1  0
  2 19  1  0
  3  4  1  0
  3  5  2  0
  5  6  1  0
  6  7  1  1
  6 19  1  0
  7  8  2  0
  7 18  1  0
  8  9  1  0
  9 10  2  0
 10 11  1  0
 11 12  1  0
 11 18  2  0
 12 13  2  0
 12 17  1  0
 13 14  1  0
 14 15  2  0
 15 16  1  0
 16 17  2  0
 19 20  2  0
  1 21  1  0
  1 22  1  0
  1 23  1  0
  4 24  1  0
  4 25  1  0
  5 26  1  0
  8 27  1  0
  9 28  1  0
 10 29  1  0
 13 30  1  0
 14 31  1  0
 15 32  1  0
 17 33  1  0
 18 34  1  0
 35 36  2  0
 36 37  1  0
 37 38  2  0
 38 39  1  0
 39 40  2  0
 40 41  1  0
 41 42  2  0
 42 43  1  0
 43 44  2  0
 44 35  1  0
 44 39  1  0
 36 45  1  0
 37 46  1  0
 38 47  1  0
 40 48  1  0
 41 49  1  0
 42 50  1  0
  6 35  1  0
M  CHG  1   5   1
M  END
>  <attachment_point>  (468) 
26

>  <score>  (468) 
<NA>

$$$$
CAT-4j
     RDKit          3D

 51 54  0  0  1  0  0  0  0  0999 V2000
   11.7106   -2.3098    1.2658 C   0  0  0  0  0  0  0  0  0  0  0  0
   13.0313   -2.6523    0.7225 N   0  0  0  0  0  0  0  0  0  0  0  0
   14.2010   -2.6281    1.3773 C   0  0  0  0  0  0  0  0  0  0  0  0
   14.3777   -2.3568    2.6732 N   0  0  0  0  0  0  0  0  0  0  0  0
   15.2217   -2.9197    0.5738 N   0  0  0  0  0  0  0  0  0  0  0  0
   14.7965   -3.2519   -0.7875 C   0  0  1  0  0  0  0  0  0  0  0  0
   15.3794   -2.2443   -1.7949 C   0  0  0  0  0  0  0  0  0  0  0  0
   15.9522   -2.6550   -3.0208 C   0  0  0  0  0  0  0  0  0  0  0  0
   16.4340   -1.6937   -3.9273 C   0  0  0  0  0  0  0  0  0  0  0  0
   16.3364   -0.3224   -3.6308 C   0  0  0  0  0  0  0  0  0  0  0  0
   15.7943    0.1250   -2.4073 C   0  0  0  0  0  0  0  0  0  0  0  0
   15.6711    1.5693   -2.0915 C   0  0  0  0  0  0  0  0  0  0  0  0
   15.3832    2.0354   -0.7903 C   0  0  0  0  0  0  0  0  0  0  0  0
   15.3534    3.4188   -0.5357 C   0  0  0  0  0  0  0  0  0  0  0  0
   15.5968    4.3049   -1.5946 C   0  0  0  0  0  0  0  0  0  0  0  0
   15.8275    3.8920   -2.8511 N   0  0  0  0  0  0  0  0  0  0  0  0
   15.8598    2.5642   -3.0762 C   0  0  0  0  0  0  0  0  0  0  0  0
   15.3327   -0.8573   -1.5012 C   0  0  0  0  0  0  0  0  0  0  0  0
   13.2767   -3.0094   -0.6368 C   0  0  0  0  0  0  0  0  0  0  0  0
   12.3981   -3.0674   -1.5055 O   0  0  0  0  0  0  0  0  0  0  0  0
    0.0000    0.0000    0.0000 H   0  0  0  0  0  0  0  0  0  0  0  0
    0.0000    0.0000    0.0000 H   0  0  0  0  0  0  0  0  0  0  0  0
    0.0000    0.0000    0.0000 H   0  0  0  0  0  0  0  0  0  0  0  0
    0.0000    0.0000    0.0000 H   0  0  0  0  0  0  0  0  0  0  0  0
    0.0000    0.0000    0.0000 H   0  0  0  0  0  0  0  0  0  0  0  0
    0.0000    0.0000    0.0000 H   0  0  0  0  0  0  0  0  0  0  0  0
    0.0000    0.0000    0.0000 H   0  0  0  0  0  0  0  0  0  0  0  0
    0.0000    0.0000    0.0000 H   0  0  0  0  0  0  0  0  0  0  0  0
    0.0000    0.0000    0.0000 H   0  0  0  0  0  0  0  0  0  0  0  0
    0.0000    0.0000    0.0000 H   0  0  0  0  0  0  0  0  0  0  0  0
    0.0000    0.0000    0.0000 H   0  0  0  0  0  0  0  0  0  0  0  0
    0.0000    0.0000    0.0000 H   0  0  0  0  0  0  0  0  0  0  0  0
    0.0000    0.0000    0.0000 H   0  0  0  0  0  0  0  0  0  0  0  0
    0.0000    0.0000    0.0000 H   0  0  0  0  0  0  0  0  0  0  0  0
    6.9900   -1.5362   -0.3720 C   0  0  0  0  0  0  0  0  0  0  0  0
    6.5655   -0.2364   -0.6580 C   0  0  0  0  0  0  0  0  0  0  0  0
    5.2384    0.0877   -0.5956 C   0  0  0  0  0  0  0  0  0  0  0  0
    4.3341   -0.9069   -0.2423 C   0  0  0  0  0  0  0  0  0  0  0  0
    2.8838   -0.6135   -0.1585 C   0  0  0  0  0  0  0  0  0  0  0  0
    4.7485   -2.1907    0.0407 C   0  0  0  0  0  0  0  0  0  0  0  0
    3.7466   -3.2209    0.4138 C   0  0  0  0  0  0  0  0  0  0  0  0
    6.0818   -2.5312   -0.0181 C   0  0  0  0  0  0  0  0  0  0  0  0
    7.2956    0.5366   -0.9356 H   0  0  0  0  0  0  0  0  0  0  0  0
    4.8663    1.0785   -0.8083 H   0  0  0  0  0  0  0  0  0  0  0  0
    2.2840   -1.5318   -0.2627 H   0  0  0  0  0  0  0  0  0  0  0  0
    2.5694    0.1718   -0.8730 H   0  0  0  0  0  0  0  0  0  0  0  0
    2.6946   -0.2361    0.8873 H   0  0  0  0  0  0  0  0  0  0  0  0
    4.2207   -4.1995    0.6244 H   0  0  0  0  0  0  0  0  0  0  0  0
    3.0429   -3.4171   -0.4432 H   0  0  0  0  0  0  0  0  0  0  0  0
    3.1054   -2.8817    1.2648 H   0  0  0  0  0  0  0  0  0  0  0  0
    6.4088   -3.5377    0.2035 H   0  0  0  0  0  0  0  0  0  0  0  0
  1  2  1  0
  2  3  1  0
  2 19  1  0
  3  4  1  0
  3  5  2  0
  5  6  1  0
  6  7  1  1
  6 19  1  0
  7  8  2  0
  7 18  1  0
  8  9  1  0
  9 10  2  0
 10 11  1  0
 11 12  1  0
 11 18  2  0
 12 13  2  0
 12 17  1  0
 13 14  1  0
 14 15  2  0
 15 16  1  0
 16 17  2  0
 19 20  2  0
  1 21  1  0
  1 22  1  0
  1 23  1  0
  4 24  1  0
  4 25  1  0
  5 26  1  0
  8 27  1  0
  9 28  1  0
 10 29  1  0
 13 30  1  0
 14 31  1  0
 15 32  1  0
 17 33  1  0
 18 34  1  0
 35 36  2  0
 36 37  1  0
 37 38  2  0
 38 39  1  0
 38 40  1  0
 40 41  1  0
 40 42  2  0
 42 35  1  0
 36 43  1  0
 37 44  1  0
 39 45  1  0
 39 46  1  0
 39 47  1  0
 41 48  1  0
 41 49  1  0
 41 50  1  0
 42 51  1  0
  6 35  1  0
M  CHG  1   5   1
M  END
>  <attachment_point>  (469) 
26

>  <score>  (469) 
<NA>

$$$$
CAT-4j
     RDKit          3D

 52 55  0  0  1  0  0  0  0  0999 V2000
   11.7106   -2.3098    1.2658 C   0  0  0  0  0  0  0  0  0  0  0  0
   13.0313   -2.6523    0.7225 N   0  0  0  0  0  0  0  0  0  0  0  0
   14.2010   -2.6281    1.3773 C   0  0  0  0  0  0  0  0  0  0  0  0
   14.3777   -2.3568    2.6732 N   0  0  0  0  0  0  0  0  0  0  0  0
   15.2217   -2.9197    0.5738 N   0  0  0  0  0  0  0  0  0  0  0  0
   14.7965   -3.2519   -0.7875 C   0  0  1  0  0  0  0  0  0  0  0  0
   15.3794   -2.2443   -1.7949 C   0  0  0  0  0  0  0  0  0  0  0  0
   15.9522   -2.6550   -3.0208 C   0  0  0  0  0  0  0  0  0  0  0  0
   16.4340   -1.6937   -3.9273 C   0  0  0  0  0  0  0  0  0  0  0  0
   16.3364   -0.3224   -3.6308 C   0  0  0  0  0  0  0  0  0  0  0  0
   15.7943    0.1250   -2.4073 C   0  0  0  0  0  0  0  0  0  0  0  0
   15.6711    1.5693   -2.0915 C   0  0  0  0  0  0  0  0  0  0  0  0
   15.3832    2.0354   -0.7903 C   0  0  0  0  0  0  0  0  0  0  0  0
   15.3534    3.4188   -0.5357 C   0  0  0  0  0  0  0  0  0  0  0  0
   15.5968    4.3049   -1.5946 C   0  0  0  0  0  0  0  0  0  0  0  0
   15.8275    3.8920   -2.8511 N   0  0  0  0  0  0  0  0  0  0  0  0
   15.8598    2.5642   -3.0762 C   0  0  0  0  0  0  0  0  0  0  0  0
   15.3327   -0.8573   -1.5012 C   0  0  0  0  0  0  0  0  0  0  0  0
   13.2767   -3.0094   -0.6368 C   0  0  0  0  0  0  0  0  0  0  0  0
   12.3981   -3.0674   -1.5055 O   0  0  0  0  0  0  0  0  0  0  0  0
    0.0000    0.0000    0.0000 H   0  0  0  0  0  0  0  0  0  0  0  0
    0.0000    0.0000    0.0000 H   0  0  0  0  0  0  0  0  0  0  0  0
    0.0000    0.0000    0.0000 H   0  0  0  0  0  0  0  0  0  0  0  0
    0.0000    0.0000    0.0000 H   0  0  0  0  0  0  0  0  0  0  0  0
    0.0000    0.0000    0.0000 H   0  0  0  0  0  0  0  0  0  0  0  0
    0.0000    0.0000    0.0000 H   0  0  0  0  0  0  0  0  0  0  0  0
    0.0000    0.0000    0.0000 H   0  0  0  0  0  0  0  0  0  0  0  0
    0.0000    0.0000    0.0000 H   0  0  0  0  0  0  0  0  0  0  0  0
    0.0000    0.0000    0.0000 H   0  0  0  0  0  0  0  0  0  0  0  0
    0.0000    0.0000    0.0000 H   0  0  0  0  0  0  0  0  0  0  0  0
    0.0000    0.0000    0.0000 H   0  0  0  0  0  0  0  0  0  0  0  0
    0.0000    0.0000    0.0000 H   0  0  0  0  0  0  0  0  0  0  0  0
    0.0000    0.0000    0.0000 H   0  0  0  0  0  0  0  0  0  0  0  0
    0.0000    0.0000    0.0000 H   0  0  0  0  0  0  0  0  0  0  0  0
    6.9945   -1.5372   -0.3723 C   0  0  0  0  0  0  0  0  0  0  0  0
    6.5161   -0.4853   -1.1312 C   0  0  0  0  0  0  0  0  0  0  0  0
    5.1924   -0.1743   -1.0774 C   0  0  0  0  0  0  0  0  0  0  0  0
    4.3481   -0.9287   -0.2536 C   0  0  0  0  0  0  0  0  0  0  0  0
    4.7804   -1.9783    0.5142 C   0  0  0  0  0  0  0  0  0  0  0  0
    3.9591   -2.7559    1.3520 N   0  0  0  0  0  0  0  0  0  0  0  0
    2.5823   -2.6233    1.5662 C   0  0  0  0  0  0  0  0  0  0  0  0
    1.8849   -3.5567    2.5038 C   0  0  0  0  0  0  0  0  0  0  0  0
    1.9202   -1.7385    0.9891 O   0  0  0  0  0  0  0  0  0  0  0  0
    6.1545   -2.2621    0.4260 C   0  0  0  0  0  0  0  0  0  0  0  0
    7.1675    0.1059   -1.7744 H   0  0  0  0  0  0  0  0  0  0  0  0
    4.7281    0.6258   -1.6310 H   0  0  0  0  0  0  0  0  0  0  0  0
    3.2879   -0.6451   -0.2391 H   0  0  0  0  0  0  0  0  0  0  0  0
    4.4310   -3.5453    1.8948 H   0  0  0  0  0  0  0  0  0  0  0  0
    1.4955   -4.4030    1.9125 H   0  0  0  0  0  0  0  0  0  0  0  0
    1.0686   -2.9776    2.9935 H   0  0  0  0  0  0  0  0  0  0  0  0
    2.6258   -3.8635    3.2551 H   0  0  0  0  0  0  0  0  0  0  0  0
    6.5167   -3.1033    1.0377 H   0  0  0  0  0  0  0  0  0  0  0  0
  1  2  1  0
  2  3  1  0
  2 19  1  0
  3  4  1  0
  3  5  2  0
  5  6  1  0
  6  7  1  1
  6 19  1  0
  7  8  2  0
  7 18  1  0
  8  9  1  0
  9 10  2  0
 10 11  1  0
 11 12  1  0
 11 18  2  0
 12 13  2  0
 12 17  1  0
 13 14  1  0
 14 15  2  0
 15 16  1  0
 16 17  2  0
 19 20  2  0
  1 21  1  0
  1 22  1  0
  1 23  1  0
  4 24  1  0
  4 25  1  0
  5 26  1  0
  8 27  1  0
  9 28  1  0
 10 29  1  0
 13 30  1  0
 14 31  1  0
 15 32  1  0
 17 33  1  0
 18 34  1  0
 35 36  2  0
 36 37  1  0
 37 38  2  0
 38 39  1  0
 39 40  1  0
 40 41  1  0
 41 42  1  0
 41 43  2  0
 39 44  2  0
 44 35  1  0
 36 45  1  0
 37 46  1  0
 38 47  1  0
 40 48  1  0
 42 49  1  0
 42 50  1  0
 42 51  1  0
 44 52  1  0
  6 35  1  0
M  CHG  1   5   1
M  END
>  <attachment_point>  (470) 
26

>  <score>  (470) 
<NA>

$$$$
CAT-4j
     RDKit          3D

 43 46  0  0  1  0  0  0  0  0999 V2000
   11.7106   -2.3098    1.2658 C   0  0  0  0  0  0  0  0  0  0  0  0
   13.0313   -2.6523    0.7225 N   0  0  0  0  0  0  0  0  0  0  0  0
   14.2010   -2.6281    1.3773 C   0  0  0  0  0  0  0  0  0  0  0  0
   14.3777   -2.3568    2.6732 N   0  0  0  0  0  0  0  0  0  0  0  0
   15.2217   -2.9197    0.5738 N   0  0  0  0  0  0  0  0  0  0  0  0
   14.7965   -3.2519   -0.7875 C   0  0  1  0  0  0  0  0  0  0  0  0
   15.3794   -2.2443   -1.7949 C   0  0  0  0  0  0  0  0  0  0  0  0
   15.9522   -2.6550   -3.0208 C   0  0  0  0  0  0  0  0  0  0  0  0
   16.4340   -1.6937   -3.9273 C   0  0  0  0  0  0  0  0  0  0  0  0
   16.3364   -0.3224   -3.6308 C   0  0  0  0  0  0  0  0  0  0  0  0
   15.7943    0.1250   -2.4073 C   0  0  0  0  0  0  0  0  0  0  0  0
   15.6711    1.5693   -2.0915 C   0  0  0  0  0  0  0  0  0  0  0  0
   15.3832    2.0354   -0.7903 C   0  0  0  0  0  0  0  0  0  0  0  0
   15.3534    3.4188   -0.5357 C   0  0  0  0  0  0  0  0  0  0  0  0
   15.5968    4.3049   -1.5946 C   0  0  0  0  0  0  0  0  0  0  0  0
   15.8275    3.8920   -2.8511 N   0  0  0  0  0  0  0  0  0  0  0  0
   15.8598    2.5642   -3.0762 C   0  0  0  0  0  0  0  0  0  0  0  0
   15.3327   -0.8573   -1.5012 C   0  0  0  0  0  0  0  0  0  0  0  0
   13.2767   -3.0094   -0.6368 C   0  0  0  0  0  0  0  0  0  0  0  0
   12.3981   -3.0674   -1.5055 O   0  0  0  0  0  0  0  0  0  0  0  0
    0.0000    0.0000    0.0000 H   0  0  0  0  0  0  0  0  0  0  0  0
    0.0000    0.0000    0.0000 H   0  0  0  0  0  0  0  0  0  0  0  0
    0.0000    0.0000    0.0000 H   0  0  0  0  0  0  0  0  0  0  0  0
    0.0000    0.0000    0.0000 H   0  0  0  0  0  0  0  0  0  0  0  0
    0.0000    0.0000    0.0000 H   0  0  0  0  0  0  0  0  0  0  0  0
    0.0000    0.0000    0.0000 H   0  0  0  0  0  0  0  0  0  0  0  0
    0.0000    0.0000    0.0000 H   0  0  0  0  0  0  0  0  0  0  0  0
    0.0000    0.0000    0.0000 H   0  0  0  0  0  0  0  0  0  0  0  0
    0.0000    0.0000    0.0000 H   0  0  0  0  0  0  0  0  0  0  0  0
    0.0000    0.0000    0.0000 H   0  0  0  0  0  0  0  0  0  0  0  0
    0.0000    0.0000    0.0000 H   0  0  0  0  0  0  0  0  0  0  0  0
    0.0000    0.0000    0.0000 H   0  0  0  0  0  0  0  0  0  0  0  0
    0.0000    0.0000    0.0000 H   0  0  0  0  0  0  0  0  0  0  0  0
    0.0000    0.0000    0.0000 H   0  0  0  0  0  0  0  0  0  0  0  0
    6.9395   -1.5251   -0.3693 C   0  0  0  0  0  0  0  0  0  0  0  0
    6.4102   -0.3177   -0.2697 N   0  0  0  0  0  0  0  0  0  0  0  0
    5.0776   -0.4730   -0.2281 N   0  0  0  0  0  0  0  0  0  0  0  0
    4.8215   -1.7871   -0.3043 C   0  0  0  0  0  0  0  0  0  0  0  0
    3.4756   -2.3996   -0.2922 C   0  0  0  0  0  0  0  0  0  0  0  0
    5.9817   -2.3879   -0.3887 O   0  0  0  0  0  0  0  0  0  0  0  0
    3.1465   -2.4161    0.7860 H   0  0  0  0  0  0  0  0  0  0  0  0
    3.5806   -3.4371   -0.6907 H   0  0  0  0  0  0  0  0  0  0  0  0
    2.7954   -1.7800   -0.9008 H   0  0  0  0  0  0  0  0  0  0  0  0
  1  2  1  0
  2  3  1  0
  2 19  1  0
  3  4  1  0
  3  5  2  0
  5  6  1  0
  6  7  1  1
  6 19  1  0
  7  8  2  0
  7 18  1  0
  8  9  1  0
  9 10  2  0
 10 11  1  0
 11 12  1  0
 11 18  2  0
 12 13  2  0
 12 17  1  0
 13 14  1  0
 14 15  2  0
 15 16  1  0
 16 17  2  0
 19 20  2  0
  1 21  1  0
  1 22  1  0
  1 23  1  0
  4 24  1  0
  4 25  1  0
  5 26  1  0
  8 27  1  0
  9 28  1  0
 10 29  1  0
 13 30  1  0
 14 31  1  0
 15 32  1  0
 17 33  1  0
 18 34  1  0
 35 36  2  0
 36 37  1  0
 37 38  2  0
 38 39  1  0
 38 40  1  0
 40 35  1  0
 39 41  1  0
 39 42  1  0
 39 43  1  0
  6 35  1  0
M  CHG  1   5   1
M  END
>  <attachment_point>  (471) 
26

>  <score>  (471) 
<NA>

$$$$
CAT-4j
     RDKit          3D

 48 51  0  0  1  0  0  0  0  0999 V2000
   11.7106   -2.3098    1.2658 C   0  0  0  0  0  0  0  0  0  0  0  0
   13.0313   -2.6523    0.7225 N   0  0  0  0  0  0  0  0  0  0  0  0
   14.2010   -2.6281    1.3773 C   0  0  0  0  0  0  0  0  0  0  0  0
   14.3777   -2.3568    2.6732 N   0  0  0  0  0  0  0  0  0  0  0  0
   15.2217   -2.9197    0.5738 N   0  0  0  0  0  0  0  0  0  0  0  0
   14.7965   -3.2519   -0.7875 C   0  0  1  0  0  0  0  0  0  0  0  0
   15.3794   -2.2443   -1.7949 C   0  0  0  0  0  0  0  0  0  0  0  0
   15.9522   -2.6550   -3.0208 C   0  0  0  0  0  0  0  0  0  0  0  0
   16.4340   -1.6937   -3.9273 C   0  0  0  0  0  0  0  0  0  0  0  0
   16.3364   -0.3224   -3.6308 C   0  0  0  0  0  0  0  0  0  0  0  0
   15.7943    0.1250   -2.4073 C   0  0  0  0  0  0  0  0  0  0  0  0
   15.6711    1.5693   -2.0915 C   0  0  0  0  0  0  0  0  0  0  0  0
   15.3832    2.0354   -0.7903 C   0  0  0  0  0  0  0  0  0  0  0  0
   15.3534    3.4188   -0.5357 C   0  0  0  0  0  0  0  0  0  0  0  0
   15.5968    4.3049   -1.5946 C   0  0  0  0  0  0  0  0  0  0  0  0
   15.8275    3.8920   -2.8511 N   0  0  0  0  0  0  0  0  0  0  0  0
   15.8598    2.5642   -3.0762 C   0  0  0  0  0  0  0  0  0  0  0  0
   15.3327   -0.8573   -1.5012 C   0  0  0  0  0  0  0  0  0  0  0  0
   13.2767   -3.0094   -0.6368 C   0  0  0  0  0  0  0  0  0  0  0  0
   12.3981   -3.0674   -1.5055 O   0  0  0  0  0  0  0  0  0  0  0  0
    0.0000    0.0000    0.0000 H   0  0  0  0  0  0  0  0  0  0  0  0
    0.0000    0.0000    0.0000 H   0  0  0  0  0  0  0  0  0  0  0  0
    0.0000    0.0000    0.0000 H   0  0  0  0  0  0  0  0  0  0  0  0
    0.0000    0.0000    0.0000 H   0  0  0  0  0  0  0  0  0  0  0  0
    0.0000    0.0000    0.0000 H   0  0  0  0  0  0  0  0  0  0  0  0
    0.0000    0.0000    0.0000 H   0  0  0  0  0  0  0  0  0  0  0  0
    0.0000    0.0000    0.0000 H   0  0  0  0  0  0  0  0  0  0  0  0
    0.0000    0.0000    0.0000 H   0  0  0  0  0  0  0  0  0  0  0  0
    0.0000    0.0000    0.0000 H   0  0  0  0  0  0  0  0  0  0  0  0
    0.0000    0.0000    0.0000 H   0  0  0  0  0  0  0  0  0  0  0  0
    0.0000    0.0000    0.0000 H   0  0  0  0  0  0  0  0  0  0  0  0
    0.0000    0.0000    0.0000 H   0  0  0  0  0  0  0  0  0  0  0  0
    0.0000    0.0000    0.0000 H   0  0  0  0  0  0  0  0  0  0  0  0
    0.0000    0.0000    0.0000 H   0  0  0  0  0  0  0  0  0  0  0  0
    6.9875   -1.5357   -0.3719 C   0  0  0  0  0  0  0  0  0  0  0  0
    6.1118   -2.6601   -0.7978 C   0  0  0  0  0  0  0  0  0  0  0  0
    5.6561   -3.6053    0.0988 C   0  0  0  0  0  0  0  0  0  0  0  0
    4.8421   -4.6546   -0.2844 C   0  0  0  0  0  0  0  0  0  0  0  0
    4.4464   -4.8019   -1.5969 C   0  0  0  0  0  0  0  0  0  0  0  0
    4.8975   -3.8621   -2.4974 C   0  0  0  0  0  0  0  0  0  0  0  0
    4.5322   -3.9642   -3.8145 F   0  0  0  0  0  0  0  0  0  0  0  0
    5.7103   -2.8155   -2.1111 C   0  0  0  0  0  0  0  0  0  0  0  0
    6.7017   -1.1558    0.6510 H   0  0  0  0  0  0  0  0  0  0  0  0
    6.8310   -0.6383   -1.0388 H   0  0  0  0  0  0  0  0  0  0  0  0
    5.9779   -3.4749    1.1333 H   0  0  0  0  0  0  0  0  0  0  0  0
    4.5096   -5.3719    0.4555 H   0  0  0  0  0  0  0  0  0  0  0  0
    3.8099   -5.6101   -1.9352 H   0  0  0  0  0  0  0  0  0  0  0  0
    6.0720   -2.0631   -2.8291 H   0  0  0  0  0  0  0  0  0  0  0  0
  1  2  1  0
  2  3  1  0
  2 19  1  0
  3  4  1  0
  3  5  2  0
  5  6  1  0
  6  7  1  0
  6 19  1  0
  7  8  2  0
  7 18  1  0
  8  9  1  0
  9 10  2  0
 10 11  1  0
 11 12  1  0
 11 18  2  0
 12 13  2  0
 12 17  1  0
 13 14  1  0
 14 15  2  0
 15 16  1  0
 16 17  2  0
 19 20  2  0
  1 21  1  0
  1 22  1  0
  1 23  1  0
  4 24  1  0
  4 25  1  0
  5 26  1  0
  8 27  1  0
  9 28  1  0
 10 29  1  0
 13 30  1  0
 14 31  1  0
 15 32  1  0
 17 33  1  0
 18 34  1  0
 35 36  1  0
 36 37  2  0
 37 38  1  0
 38 39  2  0
 39 40  1  0
 40 41  1  0
 40 42  2  0
 42 36  1  0
 35 43  1  0
 35 44  1  0
 37 45  1  0
 38 46  1  0
 39 47  1  0
 42 48  1  0
  6 35  1  6
M  CHG  1   5   1
M  END
>  <attachment_point>  (472) 
26

>  <score>  (472) 
<NA>

$$$$
CAT-4j
     RDKit          3D

 54 57  0  0  1  0  0  0  0  0999 V2000
   11.7106   -2.3098    1.2658 C   0  0  0  0  0  0  0  0  0  0  0  0
   13.0313   -2.6523    0.7225 N   0  0  0  0  0  0  0  0  0  0  0  0
   14.2010   -2.6281    1.3773 C   0  0  0  0  0  0  0  0  0  0  0  0
   14.3777   -2.3568    2.6732 N   0  0  0  0  0  0  0  0  0  0  0  0
   15.2217   -2.9197    0.5738 N   0  0  0  0  0  0  0  0  0  0  0  0
   14.7965   -3.2519   -0.7875 C   0  0  1  0  0  0  0  0  0  0  0  0
   15.3794   -2.2443   -1.7949 C   0  0  0  0  0  0  0  0  0  0  0  0
   15.9522   -2.6550   -3.0208 C   0  0  0  0  0  0  0  0  0  0  0  0
   16.4340   -1.6937   -3.9273 C   0  0  0  0  0  0  0  0  0  0  0  0
   16.3364   -0.3224   -3.6308 C   0  0  0  0  0  0  0  0  0  0  0  0
   15.7943    0.1250   -2.4073 C   0  0  0  0  0  0  0  0  0  0  0  0
   15.6711    1.5693   -2.0915 C   0  0  0  0  0  0  0  0  0  0  0  0
   15.3832    2.0354   -0.7903 C   0  0  0  0  0  0  0  0  0  0  0  0
   15.3534    3.4188   -0.5357 C   0  0  0  0  0  0  0  0  0  0  0  0
   15.5968    4.3049   -1.5946 C   0  0  0  0  0  0  0  0  0  0  0  0
   15.8275    3.8920   -2.8511 N   0  0  0  0  0  0  0  0  0  0  0  0
   15.8598    2.5642   -3.0762 C   0  0  0  0  0  0  0  0  0  0  0  0
   15.3327   -0.8573   -1.5012 C   0  0  0  0  0  0  0  0  0  0  0  0
   13.2767   -3.0094   -0.6368 C   0  0  0  0  0  0  0  0  0  0  0  0
   12.3981   -3.0674   -1.5055 O   0  0  0  0  0  0  0  0  0  0  0  0
    0.0000    0.0000    0.0000 H   0  0  0  0  0  0  0  0  0  0  0  0
    0.0000    0.0000    0.0000 H   0  0  0  0  0  0  0  0  0  0  0  0
    0.0000    0.0000    0.0000 H   0  0  0  0  0  0  0  0  0  0  0  0
    0.0000    0.0000    0.0000 H   0  0  0  0  0  0  0  0  0  0  0  0
    0.0000    0.0000    0.0000 H   0  0  0  0  0  0  0  0  0  0  0  0
    0.0000    0.0000    0.0000 H   0  0  0  0  0  0  0  0  0  0  0  0
    0.0000    0.0000    0.0000 H   0  0  0  0  0  0  0  0  0  0  0  0
    0.0000    0.0000    0.0000 H   0  0  0  0  0  0  0  0  0  0  0  0
    0.0000    0.0000    0.0000 H   0  0  0  0  0  0  0  0  0  0  0  0
    0.0000    0.0000    0.0000 H   0  0  0  0  0  0  0  0  0  0  0  0
    0.0000    0.0000    0.0000 H   0  0  0  0  0  0  0  0  0  0  0  0
    0.0000    0.0000    0.0000 H   0  0  0  0  0  0  0  0  0  0  0  0
    0.0000    0.0000    0.0000 H   0  0  0  0  0  0  0  0  0  0  0  0
    0.0000    0.0000    0.0000 H   0  0  0  0  0  0  0  0  0  0  0  0
    7.1472   -1.5708   -0.3804 O   0  0  0  0  0  0  0  0  0  0  0  0
    5.9459   -2.2582   -0.3690 C   0  0  0  0  0  0  0  0  0  0  0  0
    4.7986   -1.2862   -0.2681 C   0  0  0  0  0  0  0  0  0  0  0  0
    4.9786   -0.5130    1.0278 C   0  0  0  0  0  0  0  0  0  0  0  0
    3.8373    0.4295    1.1741 C   0  0  0  0  0  0  0  0  0  0  0  0
    3.5078    1.2096    0.0657 N   0  0  0  0  0  0  0  0  0  0  0  0
    3.9848    0.8995   -1.2036 C   0  0  0  0  0  0  0  0  0  0  0  0
    4.8792   -0.2620   -1.3646 C   0  0  0  0  0  0  0  0  0  0  0  0
    5.8743   -2.8555   -1.2777 H   0  0  0  0  0  0  0  0  0  0  0  0
    5.9176   -2.8930    0.5390 H   0  0  0  0  0  0  0  0  0  0  0  0
    3.8422   -1.8018   -0.3264 H   0  0  0  0  0  0  0  0  0  0  0  0
    5.9413    0.0481    0.9322 H   0  0  0  0  0  0  0  0  0  0  0  0
    5.0032   -1.2480    1.8424 H   0  0  0  0  0  0  0  0  0  0  0  0
    4.1013    1.1138    2.0356 H   0  0  0  0  0  0  0  0  0  0  0  0
    2.9658   -0.1647    1.5735 H   0  0  0  0  0  0  0  0  0  0  0  0
    2.5498    1.5856    0.1106 H   0  0  0  0  0  0  0  0  0  0  0  0
    4.5141    1.8035   -1.6302 H   0  0  0  0  0  0  0  0  0  0  0  0
    3.1087    0.7608   -1.9040 H   0  0  0  0  0  0  0  0  0  0  0  0
    4.6716   -0.8074   -2.3280 H   0  0  0  0  0  0  0  0  0  0  0  0
    5.9472    0.0709   -1.4644 H   0  0  0  0  0  0  0  0  0  0  0  0
  1  2  1  0
  2  3  1  0
  2 19  1  0
  3  4  1  0
  3  5  2  0
  5  6  1  0
  6  7  1  0
  6 19  1  0
  7  8  2  0
  7 18  1  0
  8  9  1  0
  9 10  2  0
 10 11  1  0
 11 12  1  0
 11 18  2  0
 12 13  2  0
 12 17  1  0
 13 14  1  0
 14 15  2  0
 15 16  1  0
 16 17  2  0
 19 20  2  0
  1 21  1  0
  1 22  1  0
  1 23  1  0
  4 24  1  0
  4 25  1  0
  5 26  1  0
  8 27  1  0
  9 28  1  0
 10 29  1  0
 13 30  1  0
 14 31  1  0
 15 32  1  0
 17 33  1  0
 18 34  1  0
 35 36  1  0
 36 37  1  0
 37 38  1  0
 38 39  1  0
 39 40  1  0
 40 41  1  0
 41 42  1  0
 42 37  1  0
 36 43  1  0
 36 44  1  0
 37 45  1  0
 38 46  1  0
 38 47  1  0
 39 48  1  0
 39 49  1  0
 40 50  1  0
 41 51  1  0
 41 52  1  0
 42 53  1  0
 42 54  1  0
  6 35  1  6
M  CHG  1   5   1
M  END
>  <attachment_point>  (473) 
26

>  <score>  (473) 
<NA>

$$$$
CAT-4j
     RDKit          3D

 52 55  0  0  1  0  0  0  0  0999 V2000
   11.7106   -2.3098    1.2658 C   0  0  0  0  0  0  0  0  0  0  0  0
   13.0313   -2.6523    0.7225 N   0  0  0  0  0  0  0  0  0  0  0  0
   14.2010   -2.6281    1.3773 C   0  0  0  0  0  0  0  0  0  0  0  0
   14.3777   -2.3568    2.6732 N   0  0  0  0  0  0  0  0  0  0  0  0
   15.2217   -2.9197    0.5738 N   0  0  0  0  0  0  0  0  0  0  0  0
   14.7965   -3.2519   -0.7875 C   0  0  1  0  0  0  0  0  0  0  0  0
   15.3794   -2.2443   -1.7949 C   0  0  0  0  0  0  0  0  0  0  0  0
   15.9522   -2.6550   -3.0208 C   0  0  0  0  0  0  0  0  0  0  0  0
   16.4340   -1.6937   -3.9273 C   0  0  0  0  0  0  0  0  0  0  0  0
   16.3364   -0.3224   -3.6308 C   0  0  0  0  0  0  0  0  0  0  0  0
   15.7943    0.1250   -2.4073 C   0  0  0  0  0  0  0  0  0  0  0  0
   15.6711    1.5693   -2.0915 C   0  0  0  0  0  0  0  0  0  0  0  0
   15.3832    2.0354   -0.7903 C   0  0  0  0  0  0  0  0  0  0  0  0
   15.3534    3.4188   -0.5357 C   0  0  0  0  0  0  0  0  0  0  0  0
   15.5968    4.3049   -1.5946 C   0  0  0  0  0  0  0  0  0  0  0  0
   15.8275    3.8920   -2.8511 N   0  0  0  0  0  0  0  0  0  0  0  0
   15.8598    2.5642   -3.0762 C   0  0  0  0  0  0  0  0  0  0  0  0
   15.3327   -0.8573   -1.5012 C   0  0  0  0  0  0  0  0  0  0  0  0
   13.2767   -3.0094   -0.6368 C   0  0  0  0  0  0  0  0  0  0  0  0
   12.3981   -3.0674   -1.5055 O   0  0  0  0  0  0  0  0  0  0  0  0
    0.0000    0.0000    0.0000 H   0  0  0  0  0  0  0  0  0  0  0  0
    0.0000    0.0000    0.0000 H   0  0  0  0  0  0  0  0  0  0  0  0
    0.0000    0.0000    0.0000 H   0  0  0  0  0  0  0  0  0  0  0  0
    0.0000    0.0000    0.0000 H   0  0  0  0  0  0  0  0  0  0  0  0
    0.0000    0.0000    0.0000 H   0  0  0  0  0  0  0  0  0  0  0  0
    0.0000    0.0000    0.0000 H   0  0  0  0  0  0  0  0  0  0  0  0
    0.0000    0.0000    0.0000 H   0  0  0  0  0  0  0  0  0  0  0  0
    0.0000    0.0000    0.0000 H   0  0  0  0  0  0  0  0  0  0  0  0
    0.0000    0.0000    0.0000 H   0  0  0  0  0  0  0  0  0  0  0  0
    0.0000    0.0000    0.0000 H   0  0  0  0  0  0  0  0  0  0  0  0
    0.0000    0.0000    0.0000 H   0  0  0  0  0  0  0  0  0  0  0  0
    0.0000    0.0000    0.0000 H   0  0  0  0  0  0  0  0  0  0  0  0
    0.0000    0.0000    0.0000 H   0  0  0  0  0  0  0  0  0  0  0  0
    0.0000    0.0000    0.0000 H   0  0  0  0  0  0  0  0  0  0  0  0
    6.9954   -1.5374   -0.3723 C   0  0  0  0  0  0  0  0  0  0  0  0
    6.6883   -0.4778    0.4972 O   0  0  0  0  0  0  0  0  0  0  0  0
    7.3659    0.6350    0.0174 C   0  0  0  0  0  0  0  0  0  0  0  0
    7.1474    1.8468    0.8267 C   0  0  0  0  0  0  0  0  0  0  0  0
    7.9697    2.1561    1.8849 C   0  0  0  0  0  0  0  0  0  0  0  0
    7.7193    3.3036    2.6091 C   0  0  0  0  0  0  0  0  0  0  0  0
    6.6626    4.1293    2.2797 C   0  0  0  0  0  0  0  0  0  0  0  0
    5.8286    3.8317    1.2197 C   0  0  0  0  0  0  0  0  0  0  0  0
    6.0948    2.6810    0.5085 C   0  0  0  0  0  0  0  0  0  0  0  0
    6.4628   -2.4648   -0.0884 H   0  0  0  0  0  0  0  0  0  0  0  0
    6.6565   -1.2181   -1.3717 H   0  0  0  0  0  0  0  0  0  0  0  0
    8.4555    0.3821    0.0701 H   0  0  0  0  0  0  0  0  0  0  0  0
    7.1630    0.8458   -1.0503 H   0  0  0  0  0  0  0  0  0  0  0  0
    8.7862    1.4771    2.1048 H   0  0  0  0  0  0  0  0  0  0  0  0
    8.3794    3.5333    3.4431 H   0  0  0  0  0  0  0  0  0  0  0  0
    6.4641    5.0216    2.8391 H   0  0  0  0  0  0  0  0  0  0  0  0
    4.9879    4.4737    0.9453 H   0  0  0  0  0  0  0  0  0  0  0  0
    5.4361    2.4359   -0.3371 H   0  0  0  0  0  0  0  0  0  0  0  0
  1  2  1  0
  2  3  1  0
  2 19  1  0
  3  4  1  0
  3  5  2  0
  5  6  1  0
  6  7  1  0
  6 19  1  0
  7  8  2  0
  7 18  1  0
  8  9  1  0
  9 10  2  0
 10 11  1  0
 11 12  1  0
 11 18  2  0
 12 13  2  0
 12 17  1  0
 13 14  1  0
 14 15  2  0
 15 16  1  0
 16 17  2  0
 19 20  2  0
  1 21  1  0
  1 22  1  0
  1 23  1  0
  4 24  1  0
  4 25  1  0
  5 26  1  0
  8 27  1  0
  9 28  1  0
 10 29  1  0
 13 30  1  0
 14 31  1  0
 15 32  1  0
 17 33  1  0
 18 34  1  0
 35 36  1  0
 36 37  1  0
 37 38  1  0
 38 39  2  0
 39 40  1  0
 40 41  2  0
 41 42  1  0
 42 43  2  0
 43 38  1  0
 35 44  1  0
 35 45  1  0
 37 46  1  0
 37 47  1  0
 39 48  1  0
 40 49  1  0
 41 50  1  0
 42 51  1  0
 43 52  1  0
  6 35  1  6
M  CHG  1   5   1
M  END
>  <attachment_point>  (474) 
26

>  <score>  (474) 
<NA>

$$$$
CAT-4j
     RDKit          3D

 53 56  0  0  1  0  0  0  0  0999 V2000
   11.7106   -2.3098    1.2658 C   0  0  0  0  0  0  0  0  0  0  0  0
   13.0313   -2.6523    0.7225 N   0  0  0  0  0  0  0  0  0  0  0  0
   14.2010   -2.6281    1.3773 C   0  0  0  0  0  0  0  0  0  0  0  0
   14.3777   -2.3568    2.6732 N   0  0  0  0  0  0  0  0  0  0  0  0
   15.2217   -2.9197    0.5738 N   0  0  0  0  0  0  0  0  0  0  0  0
   14.7965   -3.2519   -0.7875 C   0  0  1  0  0  0  0  0  0  0  0  0
   15.3794   -2.2443   -1.7949 C   0  0  0  0  0  0  0  0  0  0  0  0
   15.9522   -2.6550   -3.0208 C   0  0  0  0  0  0  0  0  0  0  0  0
   16.4340   -1.6937   -3.9273 C   0  0  0  0  0  0  0  0  0  0  0  0
   16.3364   -0.3224   -3.6308 C   0  0  0  0  0  0  0  0  0  0  0  0
   15.7943    0.1250   -2.4073 C   0  0  0  0  0  0  0  0  0  0  0  0
   15.6711    1.5693   -2.0915 C   0  0  0  0  0  0  0  0  0  0  0  0
   15.3832    2.0354   -0.7903 C   0  0  0  0  0  0  0  0  0  0  0  0
   15.3534    3.4188   -0.5357 C   0  0  0  0  0  0  0  0  0  0  0  0
   15.5968    4.3049   -1.5946 C   0  0  0  0  0  0  0  0  0  0  0  0
   15.8275    3.8920   -2.8511 N   0  0  0  0  0  0  0  0  0  0  0  0
   15.8598    2.5642   -3.0762 C   0  0  0  0  0  0  0  0  0  0  0  0
   15.3327   -0.8573   -1.5012 C   0  0  0  0  0  0  0  0  0  0  0  0
   13.2767   -3.0094   -0.6368 C   0  0  0  0  0  0  0  0  0  0  0  0
   12.3981   -3.0674   -1.5055 O   0  0  0  0  0  0  0  0  0  0  0  0
    0.0000    0.0000    0.0000 H   0  0  0  0  0  0  0  0  0  0  0  0
    0.0000    0.0000    0.0000 H   0  0  0  0  0  0  0  0  0  0  0  0
    0.0000    0.0000    0.0000 H   0  0  0  0  0  0  0  0  0  0  0  0
    0.0000    0.0000    0.0000 H   0  0  0  0  0  0  0  0  0  0  0  0
    0.0000    0.0000    0.0000 H   0  0  0  0  0  0  0  0  0  0  0  0
    0.0000    0.0000    0.0000 H   0  0  0  0  0  0  0  0  0  0  0  0
    0.0000    0.0000    0.0000 H   0  0  0  0  0  0  0  0  0  0  0  0
    0.0000    0.0000    0.0000 H   0  0  0  0  0  0  0  0  0  0  0  0
    0.0000    0.0000    0.0000 H   0  0  0  0  0  0  0  0  0  0  0  0
    0.0000    0.0000    0.0000 H   0  0  0  0  0  0  0  0  0  0  0  0
    0.0000    0.0000    0.0000 H   0  0  0  0  0  0  0  0  0  0  0  0
    0.0000    0.0000    0.0000 H   0  0  0  0  0  0  0  0  0  0  0  0
    0.0000    0.0000    0.0000 H   0  0  0  0  0  0  0  0  0  0  0  0
    0.0000    0.0000    0.0000 H   0  0  0  0  0  0  0  0  0  0  0  0
    6.9929   -1.5369   -0.3722 C   0  0  0  0  0  0  0  0  0  0  0  0
    6.0698   -2.5488   -0.1593 C   0  0  0  0  0  0  0  0  0  0  0  0
    4.7283   -2.2552   -0.0879 C   0  0  0  0  0  0  0  0  0  0  0  0
    4.3110   -0.9357   -0.2313 C   0  0  0  0  0  0  0  0  0  0  0  0
    2.9571   -0.6420   -0.1589 O   0  0  0  0  0  0  0  0  0  0  0  0
    2.5536    0.6961   -0.3059 C   0  0  0  0  0  0  0  0  0  0  0  0
    5.2603    0.0535   -0.4432 C   0  0  0  0  0  0  0  0  0  0  0  0
    6.6096   -0.2296   -0.5168 C   0  0  0  0  0  0  0  0  0  0  0  0
    7.5098    0.8031   -0.7305 O   0  0  0  0  0  0  0  0  0  0  0  0
    7.1767    2.1397   -0.8832 C   0  0  0  0  0  0  0  0  0  0  0  0
    6.4098   -3.5903   -0.0470 H   0  0  0  0  0  0  0  0  0  0  0  0
    3.9785   -3.0290    0.0786 H   0  0  0  0  0  0  0  0  0  0  0  0
    1.4433    0.7194   -0.2840 H   0  0  0  0  0  0  0  0  0  0  0  0
    2.9418    1.1517   -1.2482 H   0  0  0  0  0  0  0  0  0  0  0  0
    2.9299    1.3368    0.5384 H   0  0  0  0  0  0  0  0  0  0  0  0
    4.9230    1.0581   -0.5509 H   0  0  0  0  0  0  0  0  0  0  0  0
    6.2472    2.3127   -1.4640 H   0  0  0  0  0  0  0  0  0  0  0  0
    7.1185    2.6699    0.1068 H   0  0  0  0  0  0  0  0  0  0  0  0
    8.0330    2.6372   -1.4249 H   0  0  0  0  0  0  0  0  0  0  0  0
  1  2  1  0
  2  3  1  0
  2 19  1  0
  3  4  1  0
  3  5  2  0
  5  6  1  0
  6  7  1  1
  6 19  1  0
  7  8  2  0
  7 18  1  0
  8  9  1  0
  9 10  2  0
 10 11  1  0
 11 12  1  0
 11 18  2  0
 12 13  2  0
 12 17  1  0
 13 14  1  0
 14 15  2  0
 15 16  1  0
 16 17  2  0
 19 20  2  0
  1 21  1  0
  1 22  1  0
  1 23  1  0
  4 24  1  0
  4 25  1  0
  5 26  1  0
  8 27  1  0
  9 28  1  0
 10 29  1  0
 13 30  1  0
 14 31  1  0
 15 32  1  0
 17 33  1  0
 18 34  1  0
 35 36  2  0
 36 37  1  0
 37 38  2  0
 38 39  1  0
 39 40  1  0
 38 41  1  0
 41 42  2  0
 42 43  1  0
 43 44  1  0
 42 35  1  0
 36 45  1  0
 37 46  1  0
 40 47  1  0
 40 48  1  0
 40 49  1  0
 41 50  1  0
 44 51  1  0
 44 52  1  0
 44 53  1  0
  6 35  1  0
M  CHG  1   5   1
M  END
>  <attachment_point>  (475) 
26

>  <score>  (475) 
<NA>

$$$$
CAT-4j
     RDKit          3D

 47 50  0  0  1  0  0  0  0  0999 V2000
   11.7106   -2.3098    1.2658 C   0  0  0  0  0  0  0  0  0  0  0  0
   13.0313   -2.6523    0.7225 N   0  0  0  0  0  0  0  0  0  0  0  0
   14.2010   -2.6281    1.3773 C   0  0  0  0  0  0  0  0  0  0  0  0
   14.3777   -2.3568    2.6732 N   0  0  0  0  0  0  0  0  0  0  0  0
   15.2217   -2.9197    0.5738 N   0  0  0  0  0  0  0  0  0  0  0  0
   14.7965   -3.2519   -0.7875 C   0  0  1  0  0  0  0  0  0  0  0  0
   15.3794   -2.2443   -1.7949 C   0  0  0  0  0  0  0  0  0  0  0  0
   15.9522   -2.6550   -3.0208 C   0  0  0  0  0  0  0  0  0  0  0  0
   16.4340   -1.6937   -3.9273 C   0  0  0  0  0  0  0  0  0  0  0  0
   16.3364   -0.3224   -3.6308 C   0  0  0  0  0  0  0  0  0  0  0  0
   15.7943    0.1250   -2.4073 C   0  0  0  0  0  0  0  0  0  0  0  0
   15.6711    1.5693   -2.0915 C   0  0  0  0  0  0  0  0  0  0  0  0
   15.3832    2.0354   -0.7903 C   0  0  0  0  0  0  0  0  0  0  0  0
   15.3534    3.4188   -0.5357 C   0  0  0  0  0  0  0  0  0  0  0  0
   15.5968    4.3049   -1.5946 C   0  0  0  0  0  0  0  0  0  0  0  0
   15.8275    3.8920   -2.8511 N   0  0  0  0  0  0  0  0  0  0  0  0
   15.8598    2.5642   -3.0762 C   0  0  0  0  0  0  0  0  0  0  0  0
   15.3327   -0.8573   -1.5012 C   0  0  0  0  0  0  0  0  0  0  0  0
   13.2767   -3.0094   -0.6368 C   0  0  0  0  0  0  0  0  0  0  0  0
   12.3981   -3.0674   -1.5055 O   0  0  0  0  0  0  0  0  0  0  0  0
    0.0000    0.0000    0.0000 H   0  0  0  0  0  0  0  0  0  0  0  0
    0.0000    0.0000    0.0000 H   0  0  0  0  0  0  0  0  0  0  0  0
    0.0000    0.0000    0.0000 H   0  0  0  0  0  0  0  0  0  0  0  0
    0.0000    0.0000    0.0000 H   0  0  0  0  0  0  0  0  0  0  0  0
    0.0000    0.0000    0.0000 H   0  0  0  0  0  0  0  0  0  0  0  0
    0.0000    0.0000    0.0000 H   0  0  0  0  0  0  0  0  0  0  0  0
    0.0000    0.0000    0.0000 H   0  0  0  0  0  0  0  0  0  0  0  0
    0.0000    0.0000    0.0000 H   0  0  0  0  0  0  0  0  0  0  0  0
    0.0000    0.0000    0.0000 H   0  0  0  0  0  0  0  0  0  0  0  0
    0.0000    0.0000    0.0000 H   0  0  0  0  0  0  0  0  0  0  0  0
    0.0000    0.0000    0.0000 H   0  0  0  0  0  0  0  0  0  0  0  0
    0.0000    0.0000    0.0000 H   0  0  0  0  0  0  0  0  0  0  0  0
    0.0000    0.0000    0.0000 H   0  0  0  0  0  0  0  0  0  0  0  0
    0.0000    0.0000    0.0000 H   0  0  0  0  0  0  0  0  0  0  0  0
    6.9514   -1.5278   -0.3700 C   0  0  0  0  0  0  0  0  0  0  0  0
    6.5701   -0.2318   -0.2213 C   0  0  0  0  0  0  0  0  0  0  0  0
    5.2363    0.1443   -0.1415 C   0  0  0  0  0  0  0  0  0  0  0  0
    4.8849    1.5816    0.0212 C   0  0  0  0  0  0  0  0  0  0  0  0
    4.3051   -0.8530   -0.2191 C   0  0  0  0  0  0  0  0  0  0  0  0
    4.7298   -2.1567   -0.3698 C   0  0  0  0  0  0  0  0  0  0  0  0
    6.0420   -2.4947   -0.4450 N   0  0  0  0  0  0  0  0  0  0  0  0
    7.3283    0.5246   -0.1640 H   0  0  0  0  0  0  0  0  0  0  0  0
    3.8233    1.7576   -0.2367 H   0  0  0  0  0  0  0  0  0  0  0  0
    5.1374    1.9140    1.0577 H   0  0  0  0  0  0  0  0  0  0  0  0
    5.4953    2.2284   -0.6515 H   0  0  0  0  0  0  0  0  0  0  0  0
    3.2469   -0.6143   -0.1621 H   0  0  0  0  0  0  0  0  0  0  0  0
    3.9519   -2.9290   -0.4283 H   0  0  0  0  0  0  0  0  0  0  0  0
  1  2  1  0
  2  3  1  0
  2 19  1  0
  3  4  1  0
  3  5  2  0
  5  6  1  0
  6  7  1  1
  6 19  1  0
  7  8  2  0
  7 18  1  0
  8  9  1  0
  9 10  2  0
 10 11  1  0
 11 12  1  0
 11 18  2  0
 12 13  2  0
 12 17  1  0
 13 14  1  0
 14 15  2  0
 15 16  1  0
 16 17  2  0
 19 20  2  0
  1 21  1  0
  1 22  1  0
  1 23  1  0
  4 24  1  0
  4 25  1  0
  5 26  1  0
  8 27  1  0
  9 28  1  0
 10 29  1  0
 13 30  1  0
 14 31  1  0
 15 32  1  0
 17 33  1  0
 18 34  1  0
 35 36  2  0
 36 37  1  0
 37 38  1  0
 37 39  2  0
 39 40  1  0
 40 41  2  0
 41 35  1  0
 36 42  1  0
 38 43  1  0
 38 44  1  0
 38 45  1  0
 39 46  1  0
 40 47  1  0
  6 35  1  0
M  CHG  1   5   1
M  END
>  <attachment_point>  (476) 
26

>  <score>  (476) 
<NA>

$$$$
CAT-4j
     RDKit          3D

 39 41  0  0  1  0  0  0  0  0999 V2000
   11.7106   -2.3098    1.2658 C   0  0  0  0  0  0  0  0  0  0  0  0
   13.0313   -2.6523    0.7225 N   0  0  0  0  0  0  0  0  0  0  0  0
   14.2010   -2.6281    1.3773 C   0  0  0  0  0  0  0  0  0  0  0  0
   14.3777   -2.3568    2.6732 N   0  0  0  0  0  0  0  0  0  0  0  0
   15.2217   -2.9197    0.5738 N   0  0  0  0  0  0  0  0  0  0  0  0
   14.7965   -3.2519   -0.7875 C   0  0  1  0  0  0  0  0  0  0  0  0
   15.3794   -2.2443   -1.7949 C   0  0  0  0  0  0  0  0  0  0  0  0
   15.9522   -2.6550   -3.0208 C   0  0  0  0  0  0  0  0  0  0  0  0
   16.4340   -1.6937   -3.9273 C   0  0  0  0  0  0  0  0  0  0  0  0
   16.3364   -0.3224   -3.6308 C   0  0  0  0  0  0  0  0  0  0  0  0
   15.7943    0.1250   -2.4073 C   0  0  0  0  0  0  0  0  0  0  0  0
   15.6711    1.5693   -2.0915 C   0  0  0  0  0  0  0  0  0  0  0  0
   15.3832    2.0354   -0.7903 C   0  0  0  0  0  0  0  0  0  0  0  0
   15.3534    3.4188   -0.5357 C   0  0  0  0  0  0  0  0  0  0  0  0
   15.5968    4.3049   -1.5946 C   0  0  0  0  0  0  0  0  0  0  0  0
   15.8275    3.8920   -2.8511 N   0  0  0  0  0  0  0  0  0  0  0  0
   15.8598    2.5642   -3.0762 C   0  0  0  0  0  0  0  0  0  0  0  0
   15.3327   -0.8573   -1.5012 C   0  0  0  0  0  0  0  0  0  0  0  0
   13.2767   -3.0094   -0.6368 C   0  0  0  0  0  0  0  0  0  0  0  0
   12.3981   -3.0674   -1.5055 O   0  0  0  0  0  0  0  0  0  0  0  0
    0.0000    0.0000    0.0000 H   0  0  0  0  0  0  0  0  0  0  0  0
    0.0000    0.0000    0.0000 H   0  0  0  0  0  0  0  0  0  0  0  0
    0.0000    0.0000    0.0000 H   0  0  0  0  0  0  0  0  0  0  0  0
    0.0000    0.0000    0.0000 H   0  0  0  0  0  0  0  0  0  0  0  0
    0.0000    0.0000    0.0000 H   0  0  0  0  0  0  0  0  0  0  0  0
    0.0000    0.0000    0.0000 H   0  0  0  0  0  0  0  0  0  0  0  0
    0.0000    0.0000    0.0000 H   0  0  0  0  0  0  0  0  0  0  0  0
    0.0000    0.0000    0.0000 H   0  0  0  0  0  0  0  0  0  0  0  0
    0.0000    0.0000    0.0000 H   0  0  0  0  0  0  0  0  0  0  0  0
    0.0000    0.0000    0.0000 H   0  0  0  0  0  0  0  0  0  0  0  0
    0.0000    0.0000    0.0000 H   0  0  0  0  0  0  0  0  0  0  0  0
    0.0000    0.0000    0.0000 H   0  0  0  0  0  0  0  0  0  0  0  0
    0.0000    0.0000    0.0000 H   0  0  0  0  0  0  0  0  0  0  0  0
    0.0000    0.0000    0.0000 H   0  0  0  0  0  0  0  0  0  0  0  0
    7.0529   -1.5501   -0.3754 N   0  0  0  0  0  0  0  0  0  0  0  0
    6.6755   -0.2339   -0.2454 N   0  0  0  0  0  0  0  0  0  0  0  0
    6.3792   -2.0262   -1.0358 H   0  0  0  0  0  0  0  0  0  0  0  0
    7.0272    0.4132   -0.9554 H   0  0  0  0  0  0  0  0  0  0  0  0
    6.5821    0.1217    0.7072 H   0  0  0  0  0  0  0  0  0  0  0  0
  1  2  1  0
  2  3  1  0
  2 19  1  0
  3  4  1  0
  3  5  2  0
  5  6  1  0
  6  7  1  0
  6 19  1  0
  7  8  2  0
  7 18  1  0
  8  9  1  0
  9 10  2  0
 10 11  1  0
 11 12  1  0
 11 18  2  0
 12 13  2  0
 12 17  1  0
 13 14  1  0
 14 15  2  0
 15 16  1  0
 16 17  2  0
 19 20  2  0
  1 21  1  0
  1 22  1  0
  1 23  1  0
  4 24  1  0
  4 25  1  0
  5 26  1  0
  8 27  1  0
  9 28  1  0
 10 29  1  0
 13 30  1  0
 14 31  1  0
 15 32  1  0
 17 33  1  0
 18 34  1  0
 35 36  1  0
 35 37  1  0
 36 38  1  0
 36 39  1  0
  6 35  1  6
M  CHG  1   5   1
M  END
>  <attachment_point>  (477) 
26

>  <score>  (477) 
<NA>

$$$$
CAT-4j
     RDKit          3D

 51 54  0  0  1  0  0  0  0  0999 V2000
   11.7106   -2.3098    1.2658 C   0  0  0  0  0  0  0  0  0  0  0  0
   13.0313   -2.6523    0.7225 N   0  0  0  0  0  0  0  0  0  0  0  0
   14.2010   -2.6281    1.3773 C   0  0  0  0  0  0  0  0  0  0  0  0
   14.3777   -2.3568    2.6732 N   0  0  0  0  0  0  0  0  0  0  0  0
   15.2217   -2.9197    0.5738 N   0  0  0  0  0  0  0  0  0  0  0  0
   14.7965   -3.2519   -0.7875 C   0  0  1  0  0  0  0  0  0  0  0  0
   15.3794   -2.2443   -1.7949 C   0  0  0  0  0  0  0  0  0  0  0  0
   15.9522   -2.6550   -3.0208 C   0  0  0  0  0  0  0  0  0  0  0  0
   16.4340   -1.6937   -3.9273 C   0  0  0  0  0  0  0  0  0  0  0  0
   16.3364   -0.3224   -3.6308 C   0  0  0  0  0  0  0  0  0  0  0  0
   15.7943    0.1250   -2.4073 C   0  0  0  0  0  0  0  0  0  0  0  0
   15.6711    1.5693   -2.0915 C   0  0  0  0  0  0  0  0  0  0  0  0
   15.3832    2.0354   -0.7903 C   0  0  0  0  0  0  0  0  0  0  0  0
   15.3534    3.4188   -0.5357 C   0  0  0  0  0  0  0  0  0  0  0  0
   15.5968    4.3049   -1.5946 C   0  0  0  0  0  0  0  0  0  0  0  0
   15.8275    3.8920   -2.8511 N   0  0  0  0  0  0  0  0  0  0  0  0
   15.8598    2.5642   -3.0762 C   0  0  0  0  0  0  0  0  0  0  0  0
   15.3327   -0.8573   -1.5012 C   0  0  0  0  0  0  0  0  0  0  0  0
   13.2767   -3.0094   -0.6368 C   0  0  0  0  0  0  0  0  0  0  0  0
   12.3981   -3.0674   -1.5055 O   0  0  0  0  0  0  0  0  0  0  0  0
    0.0000    0.0000    0.0000 H   0  0  0  0  0  0  0  0  0  0  0  0
    0.0000    0.0000    0.0000 H   0  0  0  0  0  0  0  0  0  0  0  0
    0.0000    0.0000    0.0000 H   0  0  0  0  0  0  0  0  0  0  0  0
    0.0000    0.0000    0.0000 H   0  0  0  0  0  0  0  0  0  0  0  0
    0.0000    0.0000    0.0000 H   0  0  0  0  0  0  0  0  0  0  0  0
    0.0000    0.0000    0.0000 H   0  0  0  0  0  0  0  0  0  0  0  0
    0.0000    0.0000    0.0000 H   0  0  0  0  0  0  0  0  0  0  0  0
    0.0000    0.0000    0.0000 H   0  0  0  0  0  0  0  0  0  0  0  0
    0.0000    0.0000    0.0000 H   0  0  0  0  0  0  0  0  0  0  0  0
    0.0000    0.0000    0.0000 H   0  0  0  0  0  0  0  0  0  0  0  0
    0.0000    0.0000    0.0000 H   0  0  0  0  0  0  0  0  0  0  0  0
    0.0000    0.0000    0.0000 H   0  0  0  0  0  0  0  0  0  0  0  0
    0.0000    0.0000    0.0000 H   0  0  0  0  0  0  0  0  0  0  0  0
    0.0000    0.0000    0.0000 H   0  0  0  0  0  0  0  0  0  0  0  0
    6.8793   -1.5119   -0.3661 C   0  0  0  0  0  0  0  0  0  0  0  0
    6.5565   -0.3797    0.2663 C   0  0  0  0  0  0  0  0  0  0  0  0
    5.1643   -0.1159    0.3160 C   0  0  0  0  0  0  0  0  0  0  0  0
    4.2736   -0.9922   -0.2581 C   0  0  0  0  0  0  0  0  0  0  0  0
    4.6629   -2.1331   -0.8907 C   0  0  0  0  0  0  0  0  0  0  0  0
    3.5848   -3.2858   -1.6388 S   0  0  0  0  0  6  0  0  0  0  0  0
    3.2913   -2.8842   -3.3459 C   0  0  0  0  0  0  0  0  0  0  0  0
    2.2570   -3.3431   -0.9456 O   0  0  0  0  0  0  0  0  0  0  0  0
    4.2425   -4.6357   -1.5845 O   0  0  0  0  0  0  0  0  0  0  0  0
    6.0497   -2.3922   -0.9381 C   0  0  0  0  0  0  0  0  0  0  0  0
    7.2666    0.2941    0.7096 H   0  0  0  0  0  0  0  0  0  0  0  0
    4.8273    0.7790    0.8097 H   0  0  0  0  0  0  0  0  0  0  0  0
    3.2130   -0.7687   -0.2072 H   0  0  0  0  0  0  0  0  0  0  0  0
    4.2201   -2.9128   -3.9510 H   0  0  0  0  0  0  0  0  0  0  0  0
    2.6316   -3.6805   -3.7521 H   0  0  0  0  0  0  0  0  0  0  0  0
    2.7409   -1.9302   -3.4560 H   0  0  0  0  0  0  0  0  0  0  0  0
    6.3838   -3.2986   -1.4387 H   0  0  0  0  0  0  0  0  0  0  0  0
  1  2  1  0
  2  3  1  0
  2 19  1  0
  3  4  1  0
  3  5  2  0
  5  6  1  0
  6  7  1  1
  6 19  1  0
  7  8  2  0
  7 18  1  0
  8  9  1  0
  9 10  2  0
 10 11  1  0
 11 12  1  0
 11 18  2  0
 12 13  2  0
 12 17  1  0
 13 14  1  0
 14 15  2  0
 15 16  1  0
 16 17  2  0
 19 20  2  0
  1 21  1  0
  1 22  1  0
  1 23  1  0
  4 24  1  0
  4 25  1  0
  5 26  1  0
  8 27  1  0
  9 28  1  0
 10 29  1  0
 13 30  1  0
 14 31  1  0
 15 32  1  0
 17 33  1  0
 18 34  1  0
 35 36  2  0
 36 37  1  0
 37 38  2  0
 38 39  1  0
 39 40  1  0
 40 41  1  0
 40 42  2  0
 40 43  2  0
 39 44  2  0
 44 35  1  0
 36 45  1  0
 37 46  1  0
 38 47  1  0
 41 48  1  0
 41 49  1  0
 41 50  1  0
 44 51  1  0
  6 35  1  0
M  CHG  1   5   1
M  END
>  <attachment_point>  (478) 
26

>  <score>  (478) 
<NA>

$$$$
CAT-4j
     RDKit          3D

 57 60  0  0  1  0  0  0  0  0999 V2000
   11.7106   -2.3098    1.2658 C   0  0  0  0  0  0  0  0  0  0  0  0
   13.0313   -2.6523    0.7225 N   0  0  0  0  0  0  0  0  0  0  0  0
   14.2010   -2.6281    1.3773 C   0  0  0  0  0  0  0  0  0  0  0  0
   14.3777   -2.3568    2.6732 N   0  0  0  0  0  0  0  0  0  0  0  0
   15.2217   -2.9197    0.5738 N   0  0  0  0  0  0  0  0  0  0  0  0
   14.7965   -3.2519   -0.7875 C   0  0  1  0  0  0  0  0  0  0  0  0
   15.3794   -2.2443   -1.7949 C   0  0  0  0  0  0  0  0  0  0  0  0
   15.9522   -2.6550   -3.0208 C   0  0  0  0  0  0  0  0  0  0  0  0
   16.4340   -1.6937   -3.9273 C   0  0  0  0  0  0  0  0  0  0  0  0
   16.3364   -0.3224   -3.6308 C   0  0  0  0  0  0  0  0  0  0  0  0
   15.7943    0.1250   -2.4073 C   0  0  0  0  0  0  0  0  0  0  0  0
   15.6711    1.5693   -2.0915 C   0  0  0  0  0  0  0  0  0  0  0  0
   15.3832    2.0354   -0.7903 C   0  0  0  0  0  0  0  0  0  0  0  0
   15.3534    3.4188   -0.5357 C   0  0  0  0  0  0  0  0  0  0  0  0
   15.5968    4.3049   -1.5946 C   0  0  0  0  0  0  0  0  0  0  0  0
   15.8275    3.8920   -2.8511 N   0  0  0  0  0  0  0  0  0  0  0  0
   15.8598    2.5642   -3.0762 C   0  0  0  0  0  0  0  0  0  0  0  0
   15.3327   -0.8573   -1.5012 C   0  0  0  0  0  0  0  0  0  0  0  0
   13.2767   -3.0094   -0.6368 C   0  0  0  0  0  0  0  0  0  0  0  0
   12.3981   -3.0674   -1.5055 O   0  0  0  0  0  0  0  0  0  0  0  0
    0.0000    0.0000    0.0000 H   0  0  0  0  0  0  0  0  0  0  0  0
    0.0000    0.0000    0.0000 H   0  0  0  0  0  0  0  0  0  0  0  0
    0.0000    0.0000    0.0000 H   0  0  0  0  0  0  0  0  0  0  0  0
    0.0000    0.0000    0.0000 H   0  0  0  0  0  0  0  0  0  0  0  0
    0.0000    0.0000    0.0000 H   0  0  0  0  0  0  0  0  0  0  0  0
    0.0000    0.0000    0.0000 H   0  0  0  0  0  0  0  0  0  0  0  0
    0.0000    0.0000    0.0000 H   0  0  0  0  0  0  0  0  0  0  0  0
    0.0000    0.0000    0.0000 H   0  0  0  0  0  0  0  0  0  0  0  0
    0.0000    0.0000    0.0000 H   0  0  0  0  0  0  0  0  0  0  0  0
    0.0000    0.0000    0.0000 H   0  0  0  0  0  0  0  0  0  0  0  0
    0.0000    0.0000    0.0000 H   0  0  0  0  0  0  0  0  0  0  0  0
    0.0000    0.0000    0.0000 H   0  0  0  0  0  0  0  0  0  0  0  0
    0.0000    0.0000    0.0000 H   0  0  0  0  0  0  0  0  0  0  0  0
    0.0000    0.0000    0.0000 H   0  0  0  0  0  0  0  0  0  0  0  0
    6.8946   -1.5153   -0.3669 N   0  0  0  0  0  0  0  0  0  0  0  0
    6.1000   -2.6374   -0.2953 C   0  0  0  0  0  0  0  0  0  0  0  0
    6.5345   -3.8225   -0.2938 O   0  0  0  0  0  0  0  0  0  0  0  0
    4.6693   -2.4975   -0.2154 N   0  0  0  0  0  0  0  0  0  0  0  0
    3.7923   -3.6289   -0.1387 C   0  0  0  0  0  0  0  0  0  0  0  0
    2.9882   -3.6475    1.1508 C   0  0  0  0  0  0  0  0  0  0  0  0
    2.1752   -4.9317    1.1376 C   0  0  0  0  0  0  0  0  0  0  0  0
    1.0490   -4.7197    0.1471 C   0  0  0  0  0  0  0  0  0  0  0  0
    1.3788   -3.6212   -0.8400 C   0  0  0  0  0  0  0  0  0  0  0  0
    2.8166   -3.6969   -1.2809 C   0  0  0  0  0  0  0  0  0  0  0  0
    6.6968   -0.5628   -0.3769 H   0  0  0  0  0  0  0  0  0  0  0  0
    4.3217   -1.5183   -0.2176 H   0  0  0  0  0  0  0  0  0  0  0  0
    4.3775   -4.5673   -0.1510 H   0  0  0  0  0  0  0  0  0  0  0  0
    3.6371   -3.5801    2.0453 H   0  0  0  0  0  0  0  0  0  0  0  0
    2.3349   -2.7518    1.1671 H   0  0  0  0  0  0  0  0  0  0  0  0
    1.8172   -5.2159    2.1368 H   0  0  0  0  0  0  0  0  0  0  0  0
    2.8326   -5.7257    0.7084 H   0  0  0  0  0  0  0  0  0  0  0  0
    0.8645   -5.6407   -0.4441 H   0  0  0  0  0  0  0  0  0  0  0  0
    0.1185   -4.4689    0.6667 H   0  0  0  0  0  0  0  0  0  0  0  0
    1.0908   -2.6336   -0.4453 H   0  0  0  0  0  0  0  0  0  0  0  0
    0.7539   -3.7949   -1.7404 H   0  0  0  0  0  0  0  0  0  0  0  0
    2.9196   -4.6561   -1.8688 H   0  0  0  0  0  0  0  0  0  0  0  0
    3.0212   -2.8254   -1.9392 H   0  0  0  0  0  0  0  0  0  0  0  0
  1  2  1  0
  2  3  1  0
  2 19  1  0
  3  4  1  0
  3  5  2  0
  5  6  1  0
  6  7  1  0
  6 19  1  0
  7  8  2  0
  7 18  1  0
  8  9  1  0
  9 10  2  0
 10 11  1  0
 11 12  1  0
 11 18  2  0
 12 13  2  0
 12 17  1  0
 13 14  1  0
 14 15  2  0
 15 16  1  0
 16 17  2  0
 19 20  2  0
  1 21  1  0
  1 22  1  0
  1 23  1  0
  4 24  1  0
  4 25  1  0
  5 26  1  0
  8 27  1  0
  9 28  1  0
 10 29  1  0
 13 30  1  0
 14 31  1  0
 15 32  1  0
 17 33  1  0
 18 34  1  0
 35 36  1  0
 36 37  2  0
 36 38  1  0
 38 39  1  0
 39 40  1  0
 40 41  1  0
 41 42  1  0
 42 43  1  0
 43 44  1  0
 44 39  1  0
 35 45  1  0
 38 46  1  0
 39 47  1  0
 40 48  1  0
 40 49  1  0
 41 50  1  0
 41 51  1  0
 42 52  1  0
 42 53  1  0
 43 54  1  0
 43 55  1  0
 44 56  1  0
 44 57  1  0
  6 35  1  6
M  CHG  1   5   1
M  END
>  <attachment_point>  (479) 
26

>  <score>  (479) 
<NA>

$$$$
CAT-4j
     RDKit          3D

 42 44  0  0  1  0  0  0  0  0999 V2000
   11.7106   -2.3098    1.2658 C   0  0  0  0  0  0  0  0  0  0  0  0
   13.0313   -2.6523    0.7225 N   0  0  0  0  0  0  0  0  0  0  0  0
   14.2010   -2.6281    1.3773 C   0  0  0  0  0  0  0  0  0  0  0  0
   14.3777   -2.3568    2.6732 N   0  0  0  0  0  0  0  0  0  0  0  0
   15.2217   -2.9197    0.5738 N   0  0  0  0  0  0  0  0  0  0  0  0
   14.7965   -3.2519   -0.7875 C   0  0  1  0  0  0  0  0  0  0  0  0
   15.3794   -2.2443   -1.7949 C   0  0  0  0  0  0  0  0  0  0  0  0
   15.9522   -2.6550   -3.0208 C   0  0  0  0  0  0  0  0  0  0  0  0
   16.4340   -1.6937   -3.9273 C   0  0  0  0  0  0  0  0  0  0  0  0
   16.3364   -0.3224   -3.6308 C   0  0  0  0  0  0  0  0  0  0  0  0
   15.7943    0.1250   -2.4073 C   0  0  0  0  0  0  0  0  0  0  0  0
   15.6711    1.5693   -2.0915 C   0  0  0  0  0  0  0  0  0  0  0  0
   15.3832    2.0354   -0.7903 C   0  0  0  0  0  0  0  0  0  0  0  0
   15.3534    3.4188   -0.5357 C   0  0  0  0  0  0  0  0  0  0  0  0
   15.5968    4.3049   -1.5946 C   0  0  0  0  0  0  0  0  0  0  0  0
   15.8275    3.8920   -2.8511 N   0  0  0  0  0  0  0  0  0  0  0  0
   15.8598    2.5642   -3.0762 C   0  0  0  0  0  0  0  0  0  0  0  0
   15.3327   -0.8573   -1.5012 C   0  0  0  0  0  0  0  0  0  0  0  0
   13.2767   -3.0094   -0.6368 C   0  0  0  0  0  0  0  0  0  0  0  0
   12.3981   -3.0674   -1.5055 O   0  0  0  0  0  0  0  0  0  0  0  0
    0.0000    0.0000    0.0000 H   0  0  0  0  0  0  0  0  0  0  0  0
    0.0000    0.0000    0.0000 H   0  0  0  0  0  0  0  0  0  0  0  0
    0.0000    0.0000    0.0000 H   0  0  0  0  0  0  0  0  0  0  0  0
    0.0000    0.0000    0.0000 H   0  0  0  0  0  0  0  0  0  0  0  0
    0.0000    0.0000    0.0000 H   0  0  0  0  0  0  0  0  0  0  0  0
    0.0000    0.0000    0.0000 H   0  0  0  0  0  0  0  0  0  0  0  0
    0.0000    0.0000    0.0000 H   0  0  0  0  0  0  0  0  0  0  0  0
    0.0000    0.0000    0.0000 H   0  0  0  0  0  0  0  0  0  0  0  0
    0.0000    0.0000    0.0000 H   0  0  0  0  0  0  0  0  0  0  0  0
    0.0000    0.0000    0.0000 H   0  0  0  0  0  0  0  0  0  0  0  0
    0.0000    0.0000    0.0000 H   0  0  0  0  0  0  0  0  0  0  0  0
    0.0000    0.0000    0.0000 H   0  0  0  0  0  0  0  0  0  0  0  0
    0.0000    0.0000    0.0000 H   0  0  0  0  0  0  0  0  0  0  0  0
    0.0000    0.0000    0.0000 H   0  0  0  0  0  0  0  0  0  0  0  0
    6.8966   -1.5157   -0.3671 S   0  0  0  0  0  0  0  0  0  0  0  0
    6.7336   -0.6031    1.2045 C   0  0  0  0  0  0  0  0  0  0  0  0
    7.0586    0.8712    1.0146 C   0  0  0  0  0  0  0  0  0  0  0  0
    5.7005   -0.7626    1.5486 H   0  0  0  0  0  0  0  0  0  0  0  0
    7.4770   -0.9971    1.9310 H   0  0  0  0  0  0  0  0  0  0  0  0
    7.6078    1.2621    1.8834 H   0  0  0  0  0  0  0  0  0  0  0  0
    7.6648    0.9277    0.0802 H   0  0  0  0  0  0  0  0  0  0  0  0
    6.1625    1.4873    0.8444 H   0  0  0  0  0  0  0  0  0  0  0  0
  1  2  1  0
  2  3  1  0
  2 19  1  0
  3  4  1  0
  3  5  2  0
  5  6  1  0
  6  7  1  0
  6 19  1  0
  7  8  2  0
  7 18  1  0
  8  9  1  0
  9 10  2  0
 10 11  1  0
 11 12  1  0
 11 18  2  0
 12 13  2  0
 12 17  1  0
 13 14  1  0
 14 15  2  0
 15 16  1  0
 16 17  2  0
 19 20  2  0
  1 21  1  0
  1 22  1  0
  1 23  1  0
  4 24  1  0
  4 25  1  0
  5 26  1  0
  8 27  1  0
  9 28  1  0
 10 29  1  0
 13 30  1  0
 14 31  1  0
 15 32  1  0
 17 33  1  0
 18 34  1  0
 35 36  1  0
 36 37  1  0
 36 38  1  0
 36 39  1  0
 37 40  1  0
 37 41  1  0
 37 42  1  0
  6 35  1  6
M  CHG  1   5   1
M  END
>  <attachment_point>  (480) 
26

>  <score>  (480) 
<NA>

$$$$
CAT-4j
     RDKit          3D

 52 54  0  0  1  0  0  0  0  0999 V2000
   11.7106   -2.3098    1.2658 C   0  0  0  0  0  0  0  0  0  0  0  0
   13.0313   -2.6523    0.7225 N   0  0  0  0  0  0  0  0  0  0  0  0
   14.2010   -2.6281    1.3773 C   0  0  0  0  0  0  0  0  0  0  0  0
   14.3777   -2.3568    2.6732 N   0  0  0  0  0  0  0  0  0  0  0  0
   15.2217   -2.9197    0.5738 N   0  0  0  0  0  0  0  0  0  0  0  0
   14.7965   -3.2519   -0.7875 C   0  0  1  0  0  0  0  0  0  0  0  0
   15.3794   -2.2443   -1.7949 C   0  0  0  0  0  0  0  0  0  0  0  0
   15.9522   -2.6550   -3.0208 C   0  0  0  0  0  0  0  0  0  0  0  0
   16.4340   -1.6937   -3.9273 C   0  0  0  0  0  0  0  0  0  0  0  0
   16.3364   -0.3224   -3.6308 C   0  0  0  0  0  0  0  0  0  0  0  0
   15.7943    0.1250   -2.4073 C   0  0  0  0  0  0  0  0  0  0  0  0
   15.6711    1.5693   -2.0915 C   0  0  0  0  0  0  0  0  0  0  0  0
   15.3832    2.0354   -0.7903 C   0  0  0  0  0  0  0  0  0  0  0  0
   15.3534    3.4188   -0.5357 C   0  0  0  0  0  0  0  0  0  0  0  0
   15.5968    4.3049   -1.5946 C   0  0  0  0  0  0  0  0  0  0  0  0
   15.8275    3.8920   -2.8511 N   0  0  0  0  0  0  0  0  0  0  0  0
   15.8598    2.5642   -3.0762 C   0  0  0  0  0  0  0  0  0  0  0  0
   15.3327   -0.8573   -1.5012 C   0  0  0  0  0  0  0  0  0  0  0  0
   13.2767   -3.0094   -0.6368 C   0  0  0  0  0  0  0  0  0  0  0  0
   12.3981   -3.0674   -1.5055 O   0  0  0  0  0  0  0  0  0  0  0  0
    0.0000    0.0000    0.0000 H   0  0  0  0  0  0  0  0  0  0  0  0
    0.0000    0.0000    0.0000 H   0  0  0  0  0  0  0  0  0  0  0  0
    0.0000    0.0000    0.0000 H   0  0  0  0  0  0  0  0  0  0  0  0
    0.0000    0.0000    0.0000 H   0  0  0  0  0  0  0  0  0  0  0  0
    0.0000    0.0000    0.0000 H   0  0  0  0  0  0  0  0  0  0  0  0
    0.0000    0.0000    0.0000 H   0  0  0  0  0  0  0  0  0  0  0  0
    0.0000    0.0000    0.0000 H   0  0  0  0  0  0  0  0  0  0  0  0
    0.0000    0.0000    0.0000 H   0  0  0  0  0  0  0  0  0  0  0  0
    0.0000    0.0000    0.0000 H   0  0  0  0  0  0  0  0  0  0  0  0
    0.0000    0.0000    0.0000 H   0  0  0  0  0  0  0  0  0  0  0  0
    0.0000    0.0000    0.0000 H   0  0  0  0  0  0  0  0  0  0  0  0
    0.0000    0.0000    0.0000 H   0  0  0  0  0  0  0  0  0  0  0  0
    0.0000    0.0000    0.0000 H   0  0  0  0  0  0  0  0  0  0  0  0
    0.0000    0.0000    0.0000 H   0  0  0  0  0  0  0  0  0  0  0  0
    6.9981   -1.5380   -0.3725 C   0  0  0  0  0  0  0  0  0  0  0  0
    6.2406   -2.8678   -0.5231 C   0  0  0  0  0  0  0  0  0  0  0  0
    6.6650   -3.7674    0.5961 C   0  0  0  0  0  0  0  0  0  0  0  0
    6.0386   -5.1122    0.6187 C   0  0  0  0  0  0  0  0  0  0  0  0
    4.5849   -5.0694    0.7725 C   0  0  0  0  0  0  0  0  0  0  0  0
    3.9808   -4.0005    0.9365 O   0  0  0  0  0  0  0  0  0  0  0  0
    3.7921   -6.2830    0.7388 N   0  0  0  0  0  0  0  0  0  0  0  0
    2.4601   -6.2261    0.8814 O   0  0  0  0  0  0  0  0  0  0  0  0
    6.7426   -1.1382    0.6191 H   0  0  0  0  0  0  0  0  0  0  0  0
    6.6770   -0.8700   -1.2003 H   0  0  0  0  0  0  0  0  0  0  0  0
    6.5728   -3.2517   -1.5222 H   0  0  0  0  0  0  0  0  0  0  0  0
    5.1543   -2.6920   -0.4894 H   0  0  0  0  0  0  0  0  0  0  0  0
    7.7838   -3.8924    0.6126 H   0  0  0  0  0  0  0  0  0  0  0  0
    6.4514   -3.2823    1.5951 H   0  0  0  0  0  0  0  0  0  0  0  0
    6.5185   -5.6734    1.4689 H   0  0  0  0  0  0  0  0  0  0  0  0
    6.2800   -5.6301   -0.3520 H   0  0  0  0  0  0  0  0  0  0  0  0
    4.3308   -7.1635    0.5995 H   0  0  0  0  0  0  0  0  0  0  0  0
    2.0475   -6.9218    0.3173 H   0  0  0  0  0  0  0  0  0  0  0  0
  1  2  1  0
  2  3  1  0
  2 19  1  0
  3  4  1  0
  3  5  2  0
  5  6  1  0
  6  7  1  0
  6 19  1  0
  7  8  2  0
  7 18  1  0
  8  9  1  0
  9 10  2  0
 10 11  1  0
 11 12  1  0
 11 18  2  0
 12 13  2  0
 12 17  1  0
 13 14  1  0
 14 15  2  0
 15 16  1  0
 16 17  2  0
 19 20  2  0
  1 21  1  0
  1 22  1  0
  1 23  1  0
  4 24  1  0
  4 25  1  0
  5 26  1  0
  8 27  1  0
  9 28  1  0
 10 29  1  0
 13 30  1  0
 14 31  1  0
 15 32  1  0
 17 33  1  0
 18 34  1  0
 35 36  1  0
 36 37  1  0
 37 38  1  0
 38 39  1  0
 39 40  2  0
 39 41  1  0
 41 42  1  0
 35 43  1  0
 35 44  1  0
 36 45  1  0
 36 46  1  0
 37 47  1  0
 37 48  1  0
 38 49  1  0
 38 50  1  0
 41 51  1  0
 42 52  1  0
  6 35  1  6
M  CHG  1   5   1
M  END
>  <attachment_point>  (481) 
26

>  <score>  (481) 
<NA>

$$$$
CAT-4j
     RDKit          3D

 46 49  0  0  1  0  0  0  0  0999 V2000
   11.7106   -2.3098    1.2658 C   0  0  0  0  0  0  0  0  0  0  0  0
   13.0313   -2.6523    0.7225 N   0  0  0  0  0  0  0  0  0  0  0  0
   14.2010   -2.6281    1.3773 C   0  0  0  0  0  0  0  0  0  0  0  0
   14.3777   -2.3568    2.6732 N   0  0  0  0  0  0  0  0  0  0  0  0
   15.2217   -2.9197    0.5738 N   0  0  0  0  0  0  0  0  0  0  0  0
   14.7965   -3.2519   -0.7875 C   0  0  1  0  0  0  0  0  0  0  0  0
   15.3794   -2.2443   -1.7949 C   0  0  0  0  0  0  0  0  0  0  0  0
   15.9522   -2.6550   -3.0208 C   0  0  0  0  0  0  0  0  0  0  0  0
   16.4340   -1.6937   -3.9273 C   0  0  0  0  0  0  0  0  0  0  0  0
   16.3364   -0.3224   -3.6308 C   0  0  0  0  0  0  0  0  0  0  0  0
   15.7943    0.1250   -2.4073 C   0  0  0  0  0  0  0  0  0  0  0  0
   15.6711    1.5693   -2.0915 C   0  0  0  0  0  0  0  0  0  0  0  0
   15.3832    2.0354   -0.7903 C   0  0  0  0  0  0  0  0  0  0  0  0
   15.3534    3.4188   -0.5357 C   0  0  0  0  0  0  0  0  0  0  0  0
   15.5968    4.3049   -1.5946 C   0  0  0  0  0  0  0  0  0  0  0  0
   15.8275    3.8920   -2.8511 N   0  0  0  0  0  0  0  0  0  0  0  0
   15.8598    2.5642   -3.0762 C   0  0  0  0  0  0  0  0  0  0  0  0
   15.3327   -0.8573   -1.5012 C   0  0  0  0  0  0  0  0  0  0  0  0
   13.2767   -3.0094   -0.6368 C   0  0  0  0  0  0  0  0  0  0  0  0
   12.3981   -3.0674   -1.5055 O   0  0  0  0  0  0  0  0  0  0  0  0
    0.0000    0.0000    0.0000 H   0  0  0  0  0  0  0  0  0  0  0  0
    0.0000    0.0000    0.0000 H   0  0  0  0  0  0  0  0  0  0  0  0
    0.0000    0.0000    0.0000 H   0  0  0  0  0  0  0  0  0  0  0  0
    0.0000    0.0000    0.0000 H   0  0  0  0  0  0  0  0  0  0  0  0
    0.0000    0.0000    0.0000 H   0  0  0  0  0  0  0  0  0  0  0  0
    0.0000    0.0000    0.0000 H   0  0  0  0  0  0  0  0  0  0  0  0
    0.0000    0.0000    0.0000 H   0  0  0  0  0  0  0  0  0  0  0  0
    0.0000    0.0000    0.0000 H   0  0  0  0  0  0  0  0  0  0  0  0
    0.0000    0.0000    0.0000 H   0  0  0  0  0  0  0  0  0  0  0  0
    0.0000    0.0000    0.0000 H   0  0  0  0  0  0  0  0  0  0  0  0
    0.0000    0.0000    0.0000 H   0  0  0  0  0  0  0  0  0  0  0  0
    0.0000    0.0000    0.0000 H   0  0  0  0  0  0  0  0  0  0  0  0
    0.0000    0.0000    0.0000 H   0  0  0  0  0  0  0  0  0  0  0  0
    0.0000    0.0000    0.0000 H   0  0  0  0  0  0  0  0  0  0  0  0
    6.9905   -1.5363   -0.3721 N   0  0  0  0  0  0  0  0  0  0  0  0
    6.5251   -0.2117   -0.5525 C   0  0  0  0  0  0  0  0  0  0  0  0
    7.3027    0.7360   -0.7818 O   0  0  0  0  0  0  0  0  0  0  0  0
    5.0684    0.0535   -0.4657 C   0  0  0  0  0  0  0  0  0  0  0  0
    4.0662   -0.8392   -0.2254 C   0  0  0  0  0  0  0  0  0  0  0  0
    2.8042   -0.3563   -0.1927 C   0  0  0  0  0  0  0  0  0  0  0  0
    2.6477    0.9865   -0.4041 C   0  0  0  0  0  0  0  0  0  0  0  0
    4.2421    1.5336   -0.6398 S   0  0  0  0  0  0  0  0  0  0  0  0
    6.2985   -2.2923   -0.1826 H   0  0  0  0  0  0  0  0  0  0  0  0
    4.2750   -1.9231   -0.0622 H   0  0  0  0  0  0  0  0  0  0  0  0
    1.8851   -0.9698   -0.0068 H   0  0  0  0  0  0  0  0  0  0  0  0
    1.7065    1.5660   -0.4166 H   0  0  0  0  0  0  0  0  0  0  0  0
  1  2  1  0
  2  3  1  0
  2 19  1  0
  3  4  1  0
  3  5  2  0
  5  6  1  0
  6  7  1  0
  6 19  1  0
  7  8  2  0
  7 18  1  0
  8  9  1  0
  9 10  2  0
 10 11  1  0
 11 12  1  0
 11 18  2  0
 12 13  2  0
 12 17  1  0
 13 14  1  0
 14 15  2  0
 15 16  1  0
 16 17  2  0
 19 20  2  0
  1 21  1  0
  1 22  1  0
  1 23  1  0
  4 24  1  0
  4 25  1  0
  5 26  1  0
  8 27  1  0
  9 28  1  0
 10 29  1  0
 13 30  1  0
 14 31  1  0
 15 32  1  0
 17 33  1  0
 18 34  1  0
 35 36  1  0
 36 37  2  0
 36 38  1  0
 38 39  2  0
 39 40  1  0
 40 41  2  0
 41 42  1  0
 42 38  1  0
 35 43  1  0
 39 44  1  0
 40 45  1  0
 41 46  1  0
  6 35  1  6
M  CHG  1   5   1
M  END
>  <attachment_point>  (482) 
26

>  <score>  (482) 
<NA>

$$$$
CAT-4j
     RDKit          3D

 49 53  0  0  1  0  0  0  0  0999 V2000
   11.7106   -2.3098    1.2658 C   0  0  0  0  0  0  0  0  0  0  0  0
   13.0313   -2.6523    0.7225 N   0  0  0  0  0  0  0  0  0  0  0  0
   14.2010   -2.6281    1.3773 C   0  0  0  0  0  0  0  0  0  0  0  0
   14.3777   -2.3568    2.6732 N   0  0  0  0  0  0  0  0  0  0  0  0
   15.2217   -2.9197    0.5738 N   0  0  0  0  0  0  0  0  0  0  0  0
   14.7965   -3.2519   -0.7875 C   0  0  1  0  0  0  0  0  0  0  0  0
   15.3794   -2.2443   -1.7949 C   0  0  0  0  0  0  0  0  0  0  0  0
   15.9522   -2.6550   -3.0208 C   0  0  0  0  0  0  0  0  0  0  0  0
   16.4340   -1.6937   -3.9273 C   0  0  0  0  0  0  0  0  0  0  0  0
   16.3364   -0.3224   -3.6308 C   0  0  0  0  0  0  0  0  0  0  0  0
   15.7943    0.1250   -2.4073 C   0  0  0  0  0  0  0  0  0  0  0  0
   15.6711    1.5693   -2.0915 C   0  0  0  0  0  0  0  0  0  0  0  0
   15.3832    2.0354   -0.7903 C   0  0  0  0  0  0  0  0  0  0  0  0
   15.3534    3.4188   -0.5357 C   0  0  0  0  0  0  0  0  0  0  0  0
   15.5968    4.3049   -1.5946 C   0  0  0  0  0  0  0  0  0  0  0  0
   15.8275    3.8920   -2.8511 N   0  0  0  0  0  0  0  0  0  0  0  0
   15.8598    2.5642   -3.0762 C   0  0  0  0  0  0  0  0  0  0  0  0
   15.3327   -0.8573   -1.5012 C   0  0  0  0  0  0  0  0  0  0  0  0
   13.2767   -3.0094   -0.6368 C   0  0  0  0  0  0  0  0  0  0  0  0
   12.3981   -3.0674   -1.5055 O   0  0  0  0  0  0  0  0  0  0  0  0
    0.0000    0.0000    0.0000 H   0  0  0  0  0  0  0  0  0  0  0  0
    0.0000    0.0000    0.0000 H   0  0  0  0  0  0  0  0  0  0  0  0
    0.0000    0.0000    0.0000 H   0  0  0  0  0  0  0  0  0  0  0  0
    0.0000    0.0000    0.0000 H   0  0  0  0  0  0  0  0  0  0  0  0
    0.0000    0.0000    0.0000 H   0  0  0  0  0  0  0  0  0  0  0  0
    0.0000    0.0000    0.0000 H   0  0  0  0  0  0  0  0  0  0  0  0
    0.0000    0.0000    0.0000 H   0  0  0  0  0  0  0  0  0  0  0  0
    0.0000    0.0000    0.0000 H   0  0  0  0  0  0  0  0  0  0  0  0
    0.0000    0.0000    0.0000 H   0  0  0  0  0  0  0  0  0  0  0  0
    0.0000    0.0000    0.0000 H   0  0  0  0  0  0  0  0  0  0  0  0
    0.0000    0.0000    0.0000 H   0  0  0  0  0  0  0  0  0  0  0  0
    0.0000    0.0000    0.0000 H   0  0  0  0  0  0  0  0  0  0  0  0
    0.0000    0.0000    0.0000 H   0  0  0  0  0  0  0  0  0  0  0  0
    0.0000    0.0000    0.0000 H   0  0  0  0  0  0  0  0  0  0  0  0
    6.9271   -1.5224   -0.3687 C   0  0  0  0  0  0  0  0  0  0  0  0
    6.1057   -2.4098   -1.0004 C   0  0  0  0  0  0  0  0  0  0  0  0
    4.7261   -2.1464   -0.9522 C   0  0  0  0  0  0  0  0  0  0  0  0
    4.3070   -1.0093   -0.2690 C   0  0  0  0  0  0  0  0  0  0  0  0
    5.1799   -0.1416    0.3546 C   0  0  0  0  0  0  0  0  0  0  0  0
    5.0157    0.9907    1.0567 N   0  0  0  0  0  0  0  0  0  0  0  0
    6.1951    1.4867    1.4715 C   0  0  0  0  0  0  0  0  0  0  0  0
    7.1591    0.6151    1.0031 C   0  0  0  0  0  0  0  0  0  0  0  0
    6.5513   -0.4014    0.3081 C   0  0  0  0  0  0  0  0  0  0  0  0
    6.4770   -3.2812   -1.5196 H   0  0  0  0  0  0  0  0  0  0  0  0
    4.0080   -2.8009   -1.4277 H   0  0  0  0  0  0  0  0  0  0  0  0
    3.2268   -0.8453   -0.2580 H   0  0  0  0  0  0  0  0  0  0  0  0
    4.0803    1.4353    1.2576 H   0  0  0  0  0  0  0  0  0  0  0  0
    6.3597    2.3922    2.0583 H   0  0  0  0  0  0  0  0  0  0  0  0
    8.2265    0.7150    1.1578 H   0  0  0  0  0  0  0  0  0  0  0  0
  1  2  1  0
  2  3  1  0
  2 19  1  0
  3  4  1  0
  3  5  2  0
  5  6  1  0
  6  7  1  1
  6 19  1  0
  7  8  2  0
  7 18  1  0
  8  9  1  0
  9 10  2  0
 10 11  1  0
 11 12  1  0
 11 18  2  0
 12 13  2  0
 12 17  1  0
 13 14  1  0
 14 15  2  0
 15 16  1  0
 16 17  2  0
 19 20  2  0
  1 21  1  0
  1 22  1  0
  1 23  1  0
  4 24  1  0
  4 25  1  0
  5 26  1  0
  8 27  1  0
  9 28  1  0
 10 29  1  0
 13 30  1  0
 14 31  1  0
 15 32  1  0
 17 33  1  0
 18 34  1  0
 35 36  2  0
 36 37  1  0
 37 38  2  0
 38 39  1  0
 39 40  1  0
 40 41  1  0
 41 42  2  0
 42 43  1  0
 43 35  1  0
 43 39  2  0
 36 44  1  0
 37 45  1  0
 38 46  1  0
 40 47  1  0
 41 48  1  0
 42 49  1  0
  6 35  1  0
M  CHG  1   5   1
M  END
>  <attachment_point>  (483) 
26

>  <score>  (483) 
<NA>

$$$$
CAT-4j
     RDKit          3D

 49 52  0  0  1  0  0  0  0  0999 V2000
   11.7106   -2.3098    1.2658 C   0  0  0  0  0  0  0  0  0  0  0  0
   13.0313   -2.6523    0.7225 N   0  0  0  0  0  0  0  0  0  0  0  0
   14.2010   -2.6281    1.3773 C   0  0  0  0  0  0  0  0  0  0  0  0
   14.3777   -2.3568    2.6732 N   0  0  0  0  0  0  0  0  0  0  0  0
   15.2217   -2.9197    0.5738 N   0  0  0  0  0  0  0  0  0  0  0  0
   14.7965   -3.2519   -0.7875 C   0  0  1  0  0  0  0  0  0  0  0  0
   15.3794   -2.2443   -1.7949 C   0  0  0  0  0  0  0  0  0  0  0  0
   15.9522   -2.6550   -3.0208 C   0  0  0  0  0  0  0  0  0  0  0  0
   16.4340   -1.6937   -3.9273 C   0  0  0  0  0  0  0  0  0  0  0  0
   16.3364   -0.3224   -3.6308 C   0  0  0  0  0  0  0  0  0  0  0  0
   15.7943    0.1250   -2.4073 C   0  0  0  0  0  0  0  0  0  0  0  0
   15.6711    1.5693   -2.0915 C   0  0  0  0  0  0  0  0  0  0  0  0
   15.3832    2.0354   -0.7903 C   0  0  0  0  0  0  0  0  0  0  0  0
   15.3534    3.4188   -0.5357 C   0  0  0  0  0  0  0  0  0  0  0  0
   15.5968    4.3049   -1.5946 C   0  0  0  0  0  0  0  0  0  0  0  0
   15.8275    3.8920   -2.8511 N   0  0  0  0  0  0  0  0  0  0  0  0
   15.8598    2.5642   -3.0762 C   0  0  0  0  0  0  0  0  0  0  0  0
   15.3327   -0.8573   -1.5012 C   0  0  0  0  0  0  0  0  0  0  0  0
   13.2767   -3.0094   -0.6368 C   0  0  0  0  0  0  0  0  0  0  0  0
   12.3981   -3.0674   -1.5055 O   0  0  0  0  0  0  0  0  0  0  0  0
    0.0000    0.0000    0.0000 H   0  0  0  0  0  0  0  0  0  0  0  0
    0.0000    0.0000    0.0000 H   0  0  0  0  0  0  0  0  0  0  0  0
    0.0000    0.0000    0.0000 H   0  0  0  0  0  0  0  0  0  0  0  0
    0.0000    0.0000    0.0000 H   0  0  0  0  0  0  0  0  0  0  0  0
    0.0000    0.0000    0.0000 H   0  0  0  0  0  0  0  0  0  0  0  0
    0.0000    0.0000    0.0000 H   0  0  0  0  0  0  0  0  0  0  0  0
    0.0000    0.0000    0.0000 H   0  0  0  0  0  0  0  0  0  0  0  0
    0.0000    0.0000    0.0000 H   0  0  0  0  0  0  0  0  0  0  0  0
    0.0000    0.0000    0.0000 H   0  0  0  0  0  0  0  0  0  0  0  0
    0.0000    0.0000    0.0000 H   0  0  0  0  0  0  0  0  0  0  0  0
    0.0000    0.0000    0.0000 H   0  0  0  0  0  0  0  0  0  0  0  0
    0.0000    0.0000    0.0000 H   0  0  0  0  0  0  0  0  0  0  0  0
    0.0000    0.0000    0.0000 H   0  0  0  0  0  0  0  0  0  0  0  0
    0.0000    0.0000    0.0000 H   0  0  0  0  0  0  0  0  0  0  0  0
    6.9454   -1.5264   -0.3697 C   0  0  0  0  0  0  0  0  0  0  0  0
    6.3538   -1.9218    0.6063 O   0  0  0  0  0  0  0  0  0  0  0  0
    6.3603   -0.8089   -1.3971 N   0  0  0  0  0  0  0  0  0  0  0  0
    5.0270   -0.3552   -1.5949 C   0  0  0  0  0  0  0  0  0  0  0  0
    4.5797    0.6068   -0.5849 C   0  0  0  0  0  0  0  0  0  0  0  0
    4.4644    0.1688    0.8550 C   0  0  0  0  0  0  0  0  0  0  0  0
    3.2916    0.7569    0.0577 C   0  0  0  0  0  0  0  0  0  0  0  0
    7.0553   -0.5457   -2.1980 H   0  0  0  0  0  0  0  0  0  0  0  0
    4.3319   -1.2597   -1.6392 H   0  0  0  0  0  0  0  0  0  0  0  0
    4.9729    0.1192   -2.6234 H   0  0  0  0  0  0  0  0  0  0  0  0
    5.1704    1.6117   -0.7190 H   0  0  0  0  0  0  0  0  0  0  0  0
    4.2262   -0.8236    1.2102 H   0  0  0  0  0  0  0  0  0  0  0  0
    4.9582    0.8187    1.6081 H   0  0  0  0  0  0  0  0  0  0  0  0
    2.4129    0.1243   -0.1470 H   0  0  0  0  0  0  0  0  0  0  0  0
    2.9999    1.7637    0.4196 H   0  0  0  0  0  0  0  0  0  0  0  0
  1  2  1  0
  2  3  1  0
  2 19  1  0
  3  4  1  0
  3  5  2  0
  5  6  1  0
  6  7  1  0
  6 19  1  0
  7  8  2  0
  7 18  1  0
  8  9  1  0
  9 10  2  0
 10 11  1  0
 11 12  1  0
 11 18  2  0
 12 13  2  0
 12 17  1  0
 13 14  1  0
 14 15  2  0
 15 16  1  0
 16 17  2  0
 19 20  2  0
  1 21  1  0
  1 22  1  0
  1 23  1  0
  4 24  1  0
  4 25  1  0
  5 26  1  0
  8 27  1  0
  9 28  1  0
 10 29  1  0
 13 30  1  0
 14 31  1  0
 15 32  1  0
 17 33  1  0
 18 34  1  0
 35 36  2  0
 35 37  1  0
 37 38  1  0
 38 39  1  0
 39 40  1  0
 40 41  1  0
 41 39  1  0
 37 42  1  0
 38 43  1  0
 38 44  1  0
 39 45  1  0
 40 46  1  0
 40 47  1  0
 41 48  1  0
 41 49  1  0
  6 35  1  6
M  CHG  1   5   1
M  END
>  <attachment_point>  (484) 
26

>  <score>  (484) 
<NA>

$$$$
CAT-4j
     RDKit          3D

 48 52  0  0  1  0  0  0  0  0999 V2000
   11.7106   -2.3098    1.2658 C   0  0  0  0  0  0  0  0  0  0  0  0
   13.0313   -2.6523    0.7225 N   0  0  0  0  0  0  0  0  0  0  0  0
   14.2010   -2.6281    1.3773 C   0  0  0  0  0  0  0  0  0  0  0  0
   14.3777   -2.3568    2.6732 N   0  0  0  0  0  0  0  0  0  0  0  0
   15.2217   -2.9197    0.5738 N   0  0  0  0  0  0  0  0  0  0  0  0
   14.7965   -3.2519   -0.7875 C   0  0  1  0  0  0  0  0  0  0  0  0
   15.3794   -2.2443   -1.7949 C   0  0  0  0  0  0  0  0  0  0  0  0
   15.9522   -2.6550   -3.0208 C   0  0  0  0  0  0  0  0  0  0  0  0
   16.4340   -1.6937   -3.9273 C   0  0  0  0  0  0  0  0  0  0  0  0
   16.3364   -0.3224   -3.6308 C   0  0  0  0  0  0  0  0  0  0  0  0
   15.7943    0.1250   -2.4073 C   0  0  0  0  0  0  0  0  0  0  0  0
   15.6711    1.5693   -2.0915 C   0  0  0  0  0  0  0  0  0  0  0  0
   15.3832    2.0354   -0.7903 C   0  0  0  0  0  0  0  0  0  0  0  0
   15.3534    3.4188   -0.5357 C   0  0  0  0  0  0  0  0  0  0  0  0
   15.5968    4.3049   -1.5946 C   0  0  0  0  0  0  0  0  0  0  0  0
   15.8275    3.8920   -2.8511 N   0  0  0  0  0  0  0  0  0  0  0  0
   15.8598    2.5642   -3.0762 C   0  0  0  0  0  0  0  0  0  0  0  0
   15.3327   -0.8573   -1.5012 C   0  0  0  0  0  0  0  0  0  0  0  0
   13.2767   -3.0094   -0.6368 C   0  0  0  0  0  0  0  0  0  0  0  0
   12.3981   -3.0674   -1.5055 O   0  0  0  0  0  0  0  0  0  0  0  0
    0.0000    0.0000    0.0000 H   0  0  0  0  0  0  0  0  0  0  0  0
    0.0000    0.0000    0.0000 H   0  0  0  0  0  0  0  0  0  0  0  0
    0.0000    0.0000    0.0000 H   0  0  0  0  0  0  0  0  0  0  0  0
    0.0000    0.0000    0.0000 H   0  0  0  0  0  0  0  0  0  0  0  0
    0.0000    0.0000    0.0000 H   0  0  0  0  0  0  0  0  0  0  0  0
    0.0000    0.0000    0.0000 H   0  0  0  0  0  0  0  0  0  0  0  0
    0.0000    0.0000    0.0000 H   0  0  0  0  0  0  0  0  0  0  0  0
    0.0000    0.0000    0.0000 H   0  0  0  0  0  0  0  0  0  0  0  0
    0.0000    0.0000    0.0000 H   0  0  0  0  0  0  0  0  0  0  0  0
    0.0000    0.0000    0.0000 H   0  0  0  0  0  0  0  0  0  0  0  0
    0.0000    0.0000    0.0000 H   0  0  0  0  0  0  0  0  0  0  0  0
    0.0000    0.0000    0.0000 H   0  0  0  0  0  0  0  0  0  0  0  0
    0.0000    0.0000    0.0000 H   0  0  0  0  0  0  0  0  0  0  0  0
    0.0000    0.0000    0.0000 H   0  0  0  0  0  0  0  0  0  0  0  0
    6.9532   -1.5281   -0.3701 C   0  0  0  0  0  0  0  0  0  0  0  0
    6.6201   -0.2384   -0.0891 C   0  0  0  0  0  0  0  0  0  0  0  0
    4.9151   -0.2901   -0.0905 S   0  0  0  0  0  0  0  0  0  0  0  0
    4.6816   -1.9408   -0.4462 C   0  0  0  0  0  0  0  0  0  0  0  0
    3.5576   -2.7614   -0.6173 C   0  0  0  0  0  0  0  0  0  0  0  0
    3.6808   -4.1017   -0.9079 C   0  0  0  0  0  0  0  0  0  0  0  0
    4.9886   -4.5572   -1.0139 C   0  0  0  0  0  0  0  0  0  0  0  0
    6.0878   -3.7870   -0.8537 C   0  0  0  0  0  0  0  0  0  0  0  0
    5.9525   -2.4166   -0.5565 C   0  0  0  0  0  0  0  0  0  0  0  0
    7.3055    0.6156    0.0917 H   0  0  0  0  0  0  0  0  0  0  0  0
    2.5824   -2.3349   -0.5193 H   0  0  0  0  0  0  0  0  0  0  0  0
    2.8336   -4.7552   -1.0443 H   0  0  0  0  0  0  0  0  0  0  0  0
    5.0812   -5.6255   -1.2456 H   0  0  0  0  0  0  0  0  0  0  0  0
    7.0465   -4.2626   -0.9621 H   0  0  0  0  0  0  0  0  0  0  0  0
  1  2  1  0
  2  3  1  0
  2 19  1  0
  3  4  1  0
  3  5  2  0
  5  6  1  0
  6  7  1  1
  6 19  1  0
  7  8  2  0
  7 18  1  0
  8  9  1  0
  9 10  2  0
 10 11  1  0
 11 12  1  0
 11 18  2  0
 12 13  2  0
 12 17  1  0
 13 14  1  0
 14 15  2  0
 15 16  1  0
 16 17  2  0
 19 20  2  0
  1 21  1  0
  1 22  1  0
  1 23  1  0
  4 24  1  0
  4 25  1  0
  5 26  1  0
  8 27  1  0
  9 28  1  0
 10 29  1  0
 13 30  1  0
 14 31  1  0
 15 32  1  0
 17 33  1  0
 18 34  1  0
 35 36  2  0
 36 37  1  0
 37 38  1  0
 38 39  2  0
 39 40  1  0
 40 41  2  0
 41 42  1  0
 42 43  2  0
 43 35  1  0
 43 38  1  0
 36 44  1  0
 39 45  1  0
 40 46  1  0
 41 47  1  0
 42 48  1  0
  6 35  1  0
M  CHG  1   5   1
M  END
>  <attachment_point>  (485) 
26

>  <score>  (485) 
<NA>

$$$$
CAT-4j
     RDKit          3D

 56 59  0  0  1  0  0  0  0  0999 V2000
   11.7106   -2.3098    1.2658 C   0  0  0  0  0  0  0  0  0  0  0  0
   13.0313   -2.6523    0.7225 N   0  0  0  0  0  0  0  0  0  0  0  0
   14.2010   -2.6281    1.3773 C   0  0  0  0  0  0  0  0  0  0  0  0
   14.3777   -2.3568    2.6732 N   0  0  0  0  0  0  0  0  0  0  0  0
   15.2217   -2.9197    0.5738 N   0  0  0  0  0  0  0  0  0  0  0  0
   14.7965   -3.2519   -0.7875 C   0  0  1  0  0  0  0  0  0  0  0  0
   15.3794   -2.2443   -1.7949 C   0  0  0  0  0  0  0  0  0  0  0  0
   15.9522   -2.6550   -3.0208 C   0  0  0  0  0  0  0  0  0  0  0  0
   16.4340   -1.6937   -3.9273 C   0  0  0  0  0  0  0  0  0  0  0  0
   16.3364   -0.3224   -3.6308 C   0  0  0  0  0  0  0  0  0  0  0  0
   15.7943    0.1250   -2.4073 C   0  0  0  0  0  0  0  0  0  0  0  0
   15.6711    1.5693   -2.0915 C   0  0  0  0  0  0  0  0  0  0  0  0
   15.3832    2.0354   -0.7903 C   0  0  0  0  0  0  0  0  0  0  0  0
   15.3534    3.4188   -0.5357 C   0  0  0  0  0  0  0  0  0  0  0  0
   15.5968    4.3049   -1.5946 C   0  0  0  0  0  0  0  0  0  0  0  0
   15.8275    3.8920   -2.8511 N   0  0  0  0  0  0  0  0  0  0  0  0
   15.8598    2.5642   -3.0762 C   0  0  0  0  0  0  0  0  0  0  0  0
   15.3327   -0.8573   -1.5012 C   0  0  0  0  0  0  0  0  0  0  0  0
   13.2767   -3.0094   -0.6368 C   0  0  0  0  0  0  0  0  0  0  0  0
   12.3981   -3.0674   -1.5055 O   0  0  0  0  0  0  0  0  0  0  0  0
    0.0000    0.0000    0.0000 H   0  0  0  0  0  0  0  0  0  0  0  0
    0.0000    0.0000    0.0000 H   0  0  0  0  0  0  0  0  0  0  0  0
    0.0000    0.0000    0.0000 H   0  0  0  0  0  0  0  0  0  0  0  0
    0.0000    0.0000    0.0000 H   0  0  0  0  0  0  0  0  0  0  0  0
    0.0000    0.0000    0.0000 H   0  0  0  0  0  0  0  0  0  0  0  0
    0.0000    0.0000    0.0000 H   0  0  0  0  0  0  0  0  0  0  0  0
    0.0000    0.0000    0.0000 H   0  0  0  0  0  0  0  0  0  0  0  0
    0.0000    0.0000    0.0000 H   0  0  0  0  0  0  0  0  0  0  0  0
    0.0000    0.0000    0.0000 H   0  0  0  0  0  0  0  0  0  0  0  0
    0.0000    0.0000    0.0000 H   0  0  0  0  0  0  0  0  0  0  0  0
    0.0000    0.0000    0.0000 H   0  0  0  0  0  0  0  0  0  0  0  0
    0.0000    0.0000    0.0000 H   0  0  0  0  0  0  0  0  0  0  0  0
    0.0000    0.0000    0.0000 H   0  0  0  0  0  0  0  0  0  0  0  0
    0.0000    0.0000    0.0000 H   0  0  0  0  0  0  0  0  0  0  0  0
    6.9685   -1.5315   -0.3709 C   0  0  0  0  0  0  0  0  0  0  0  0
    6.5588   -0.6794   -1.5176 C   0  0  0  0  0  0  0  0  0  0  0  0
    5.1425   -0.3475   -1.4263 N   0  0  0  0  0  0  0  0  0  0  0  0
    4.7134    0.1859   -2.7471 C   0  0  0  0  0  0  0  0  0  0  0  0
    3.3707    0.7518   -2.3634 C   0  0  0  0  0  0  0  0  0  0  0  0
    3.5072    1.2162   -0.9286 C   0  0  0  0  0  0  0  0  0  0  0  0
    4.9422    0.8108   -0.5641 C   0  0  1  0  0  0  0  0  0  0  0  0
    4.9926    0.5910    0.8864 C   0  0  0  0  0  0  0  0  0  0  0  0
    6.6764   -1.1772    0.5986 H   0  0  0  0  0  0  0  0  0  0  0  0
    6.5086   -2.5577   -0.5126 H   0  0  0  0  0  0  0  0  0  0  0  0
    6.6747   -1.2730   -2.4688 H   0  0  0  0  0  0  0  0  0  0  0  0
    7.1728    0.2452   -1.6244 H   0  0  0  0  0  0  0  0  0  0  0  0
    4.6510   -0.6506   -3.4610 H   0  0  0  0  0  0  0  0  0  0  0  0
    5.3999    0.9364   -3.1256 H   0  0  0  0  0  0  0  0  0  0  0  0
    3.0684    1.6156   -2.9597 H   0  0  0  0  0  0  0  0  0  0  0  0
    2.6488   -0.0865   -2.4240 H   0  0  0  0  0  0  0  0  0  0  0  0
    2.8047    0.6746   -0.2709 H   0  0  0  0  0  0  0  0  0  0  0  0
    3.3723    2.3189   -0.8509 H   0  0  0  0  0  0  0  0  0  0  0  0
    5.5821    1.6563   -0.8676 H   0  0  0  0  0  0  0  0  0  0  0  0
    4.5762   -0.3491    1.2555 H   0  0  0  0  0  0  0  0  0  0  0  0
    4.2960    1.3740    1.3454 H   0  0  0  0  0  0  0  0  0  0  0  0
    5.9737    0.8711    1.3773 H   0  0  0  0  0  0  0  0  0  0  0  0
  1  2  1  0
  2  3  1  0
  2 19  1  0
  3  4  1  0
  3  5  2  0
  5  6  1  0
  6  7  1  0
  6 19  1  0
  7  8  2  0
  7 18  1  0
  8  9  1  0
  9 10  2  0
 10 11  1  0
 11 12  1  0
 11 18  2  0
 12 13  2  0
 12 17  1  0
 13 14  1  0
 14 15  2  0
 15 16  1  0
 16 17  2  0
 19 20  2  0
  1 21  1  0
  1 22  1  0
  1 23  1  0
  4 24  1  0
  4 25  1  0
  5 26  1  0
  8 27  1  0
  9 28  1  0
 10 29  1  0
 13 30  1  0
 14 31  1  0
 15 32  1  0
 17 33  1  0
 18 34  1  0
 35 36  1  0
 36 37  1  0
 37 38  1  0
 38 39  1  0
 39 40  1  0
 40 41  1  0
 41 42  1  0
 41 37  1  0
 35 43  1  0
 35 44  1  0
 36 45  1  0
 36 46  1  0
 38 47  1  0
 38 48  1  0
 39 49  1  0
 39 50  1  0
 40 51  1  0
 40 52  1  0
 41 53  1  6
 42 54  1  0
 42 55  1  0
 42 56  1  0
  6 35  1  6
M  CHG  1   5   1
M  END
>  <attachment_point>  (486) 
26

>  <score>  (486) 
<NA>

$$$$
CAT-4j
     RDKit          3D

 53 56  0  0  1  0  0  0  0  0999 V2000
   11.7106   -2.3098    1.2658 C   0  0  0  0  0  0  0  0  0  0  0  0
   13.0313   -2.6523    0.7225 N   0  0  0  0  0  0  0  0  0  0  0  0
   14.2010   -2.6281    1.3773 C   0  0  0  0  0  0  0  0  0  0  0  0
   14.3777   -2.3568    2.6732 N   0  0  0  0  0  0  0  0  0  0  0  0
   15.2217   -2.9197    0.5738 N   0  0  0  0  0  0  0  0  0  0  0  0
   14.7965   -3.2519   -0.7875 C   0  0  1  0  0  0  0  0  0  0  0  0
   15.3794   -2.2443   -1.7949 C   0  0  0  0  0  0  0  0  0  0  0  0
   15.9522   -2.6550   -3.0208 C   0  0  0  0  0  0  0  0  0  0  0  0
   16.4340   -1.6937   -3.9273 C   0  0  0  0  0  0  0  0  0  0  0  0
   16.3364   -0.3224   -3.6308 C   0  0  0  0  0  0  0  0  0  0  0  0
   15.7943    0.1250   -2.4073 C   0  0  0  0  0  0  0  0  0  0  0  0
   15.6711    1.5693   -2.0915 C   0  0  0  0  0  0  0  0  0  0  0  0
   15.3832    2.0354   -0.7903 C   0  0  0  0  0  0  0  0  0  0  0  0
   15.3534    3.4188   -0.5357 C   0  0  0  0  0  0  0  0  0  0  0  0
   15.5968    4.3049   -1.5946 C   0  0  0  0  0  0  0  0  0  0  0  0
   15.8275    3.8920   -2.8511 N   0  0  0  0  0  0  0  0  0  0  0  0
   15.8598    2.5642   -3.0762 C   0  0  0  0  0  0  0  0  0  0  0  0
   15.3327   -0.8573   -1.5012 C   0  0  0  0  0  0  0  0  0  0  0  0
   13.2767   -3.0094   -0.6368 C   0  0  0  0  0  0  0  0  0  0  0  0
   12.3981   -3.0674   -1.5055 O   0  0  0  0  0  0  0  0  0  0  0  0
    0.0000    0.0000    0.0000 H   0  0  0  0  0  0  0  0  0  0  0  0
    0.0000    0.0000    0.0000 H   0  0  0  0  0  0  0  0  0  0  0  0
    0.0000    0.0000    0.0000 H   0  0  0  0  0  0  0  0  0  0  0  0
    0.0000    0.0000    0.0000 H   0  0  0  0  0  0  0  0  0  0  0  0
    0.0000    0.0000    0.0000 H   0  0  0  0  0  0  0  0  0  0  0  0
    0.0000    0.0000    0.0000 H   0  0  0  0  0  0  0  0  0  0  0  0
    0.0000    0.0000    0.0000 H   0  0  0  0  0  0  0  0  0  0  0  0
    0.0000    0.0000    0.0000 H   0  0  0  0  0  0  0  0  0  0  0  0
    0.0000    0.0000    0.0000 H   0  0  0  0  0  0  0  0  0  0  0  0
    0.0000    0.0000    0.0000 H   0  0  0  0  0  0  0  0  0  0  0  0
    0.0000    0.0000    0.0000 H   0  0  0  0  0  0  0  0  0  0  0  0
    0.0000    0.0000    0.0000 H   0  0  0  0  0  0  0  0  0  0  0  0
    0.0000    0.0000    0.0000 H   0  0  0  0  0  0  0  0  0  0  0  0
    0.0000    0.0000    0.0000 H   0  0  0  0  0  0  0  0  0  0  0  0
    6.9704   -1.5319   -0.3710 C   0  0  0  0  0  0  0  0  0  0  0  0
    6.3670   -2.4771   -1.3195 N   0  0  0  0  0  0  0  0  0  0  0  0
    6.6994   -3.8064   -0.8398 C   0  0  0  0  0  0  0  0  0  0  0  0
    6.1425   -4.8582   -1.7203 C   0  0  0  0  0  0  0  0  0  0  0  0
    4.8922   -5.4132   -1.5454 C   0  0  0  0  0  0  0  0  0  0  0  0
    4.4018   -6.3953   -2.3871 C   0  0  0  0  0  0  0  0  0  0  0  0
    5.1948   -6.8265   -3.4308 C   0  0  0  0  0  0  0  0  0  0  0  0
    6.4521   -6.2913   -3.6339 C   0  0  0  0  0  0  0  0  0  0  0  0
    6.9058   -5.3141   -2.7735 C   0  0  0  0  0  0  0  0  0  0  0  0
    6.7727   -0.5235   -0.7860 H   0  0  0  0  0  0  0  0  0  0  0  0
    6.5705   -1.6556    0.6338 H   0  0  0  0  0  0  0  0  0  0  0  0
    6.7217   -2.3266   -2.2757 H   0  0  0  0  0  0  0  0  0  0  0  0
    6.3354   -3.9612    0.1888 H   0  0  0  0  0  0  0  0  0  0  0  0
    7.8121   -3.8927   -0.8596 H   0  0  0  0  0  0  0  0  0  0  0  0
    4.2748   -5.0734   -0.7280 H   0  0  0  0  0  0  0  0  0  0  0  0
    3.4288   -6.8542   -2.2831 H   0  0  0  0  0  0  0  0  0  0  0  0
    4.8350   -7.5941   -4.1043 H   0  0  0  0  0  0  0  0  0  0  0  0
    7.0709   -6.6483   -4.4728 H   0  0  0  0  0  0  0  0  0  0  0  0
    7.9045   -4.9148   -2.9657 H   0  0  0  0  0  0  0  0  0  0  0  0
  1  2  1  0
  2  3  1  0
  2 19  1  0
  3  4  1  0
  3  5  2  0
  5  6  1  0
  6  7  1  0
  6 19  1  0
  7  8  2  0
  7 18  1  0
  8  9  1  0
  9 10  2  0
 10 11  1  0
 11 12  1  0
 11 18  2  0
 12 13  2  0
 12 17  1  0
 13 14  1  0
 14 15  2  0
 15 16  1  0
 16 17  2  0
 19 20  2  0
  1 21  1  0
  1 22  1  0
  1 23  1  0
  4 24  1  0
  4 25  1  0
  5 26  1  0
  8 27  1  0
  9 28  1  0
 10 29  1  0
 13 30  1  0
 14 31  1  0
 15 32  1  0
 17 33  1  0
 18 34  1  0
 35 36  1  0
 36 37  1  0
 37 38  1  0
 38 39  2  0
 39 40  1  0
 40 41  2  0
 41 42  1  0
 42 43  2  0
 43 38  1  0
 35 44  1  0
 35 45  1  0
 36 46  1  0
 37 47  1  0
 37 48  1  0
 39 49  1  0
 40 50  1  0
 41 51  1  0
 42 52  1  0
 43 53  1  0
  6 35  1  6
M  CHG  1   5   1
M  END
>  <attachment_point>  (487) 
26

>  <score>  (487) 
<NA>

$$$$
CAT-4j
     RDKit          3D

 48 51  0  0  1  0  0  0  0  0999 V2000
   11.7106   -2.3098    1.2658 C   0  0  0  0  0  0  0  0  0  0  0  0
   13.0313   -2.6523    0.7225 N   0  0  0  0  0  0  0  0  0  0  0  0
   14.2010   -2.6281    1.3773 C   0  0  0  0  0  0  0  0  0  0  0  0
   14.3777   -2.3568    2.6732 N   0  0  0  0  0  0  0  0  0  0  0  0
   15.2217   -2.9197    0.5738 N   0  0  0  0  0  0  0  0  0  0  0  0
   14.7965   -3.2519   -0.7875 C   0  0  1  0  0  0  0  0  0  0  0  0
   15.3794   -2.2443   -1.7949 C   0  0  0  0  0  0  0  0  0  0  0  0
   15.9522   -2.6550   -3.0208 C   0  0  0  0  0  0  0  0  0  0  0  0
   16.4340   -1.6937   -3.9273 C   0  0  0  0  0  0  0  0  0  0  0  0
   16.3364   -0.3224   -3.6308 C   0  0  0  0  0  0  0  0  0  0  0  0
   15.7943    0.1250   -2.4073 C   0  0  0  0  0  0  0  0  0  0  0  0
   15.6711    1.5693   -2.0915 C   0  0  0  0  0  0  0  0  0  0  0  0
   15.3832    2.0354   -0.7903 C   0  0  0  0  0  0  0  0  0  0  0  0
   15.3534    3.4188   -0.5357 C   0  0  0  0  0  0  0  0  0  0  0  0
   15.5968    4.3049   -1.5946 C   0  0  0  0  0  0  0  0  0  0  0  0
   15.8275    3.8920   -2.8511 N   0  0  0  0  0  0  0  0  0  0  0  0
   15.8598    2.5642   -3.0762 C   0  0  0  0  0  0  0  0  0  0  0  0
   15.3327   -0.8573   -1.5012 C   0  0  0  0  0  0  0  0  0  0  0  0
   13.2767   -3.0094   -0.6368 C   0  0  0  0  0  0  0  0  0  0  0  0
   12.3981   -3.0674   -1.5055 O   0  0  0  0  0  0  0  0  0  0  0  0
    0.0000    0.0000    0.0000 H   0  0  0  0  0  0  0  0  0  0  0  0
    0.0000    0.0000    0.0000 H   0  0  0  0  0  0  0  0  0  0  0  0
    0.0000    0.0000    0.0000 H   0  0  0  0  0  0  0  0  0  0  0  0
    0.0000    0.0000    0.0000 H   0  0  0  0  0  0  0  0  0  0  0  0
    0.0000    0.0000    0.0000 H   0  0  0  0  0  0  0  0  0  0  0  0
    0.0000    0.0000    0.0000 H   0  0  0  0  0  0  0  0  0  0  0  0
    0.0000    0.0000    0.0000 H   0  0  0  0  0  0  0  0  0  0  0  0
    0.0000    0.0000    0.0000 H   0  0  0  0  0  0  0  0  0  0  0  0
    0.0000    0.0000    0.0000 H   0  0  0  0  0  0  0  0  0  0  0  0
    0.0000    0.0000    0.0000 H   0  0  0  0  0  0  0  0  0  0  0  0
    0.0000    0.0000    0.0000 H   0  0  0  0  0  0  0  0  0  0  0  0
    0.0000    0.0000    0.0000 H   0  0  0  0  0  0  0  0  0  0  0  0
    0.0000    0.0000    0.0000 H   0  0  0  0  0  0  0  0  0  0  0  0
    0.0000    0.0000    0.0000 H   0  0  0  0  0  0  0  0  0  0  0  0
    7.0021   -1.5389   -0.3727 O   0  0  0  0  0  0  0  0  0  0  0  0
    6.9617   -0.1389   -0.4909 C   0  0  0  0  0  0  0  0  0  0  0  0
    7.5610    0.2916   -1.7984 C   0  0  0  0  0  0  0  0  0  0  0  0
    6.7850    0.4187   -2.9151 C   0  0  0  0  0  0  0  0  0  0  0  0
    7.3323    0.8120   -4.1098 C   0  0  0  0  0  0  0  0  0  0  0  0
    8.6478    1.0723   -4.1697 N   0  0  0  0  0  0  0  0  0  0  0  0
    9.4304    0.9547   -3.0866 C   0  0  0  0  0  0  0  0  0  0  0  0
    8.9058    0.5607   -1.8716 C   0  0  0  0  0  0  0  0  0  0  0  0
    7.5914    0.3216    0.3014 H   0  0  0  0  0  0  0  0  0  0  0  0
    5.9150    0.2146   -0.4243 H   0  0  0  0  0  0  0  0  0  0  0  0
    5.7091    0.2119   -2.8911 H   0  0  0  0  0  0  0  0  0  0  0  0
    6.7027    0.9156   -5.0181 H   0  0  0  0  0  0  0  0  0  0  0  0
   10.4703    1.1648   -3.1519 H   0  0  0  0  0  0  0  0  0  0  0  0
    9.5234    0.4602   -0.9855 H   0  0  0  0  0  0  0  0  0  0  0  0
  1  2  1  0
  2  3  1  0
  2 19  1  0
  3  4  1  0
  3  5  2  0
  5  6  1  0
  6  7  1  0
  6 19  1  0
  7  8  2  0
  7 18  1  0
  8  9  1  0
  9 10  2  0
 10 11  1  0
 11 12  1  0
 11 18  2  0
 12 13  2  0
 12 17  1  0
 13 14  1  0
 14 15  2  0
 15 16  1  0
 16 17  2  0
 19 20  2  0
  1 21  1  0
  1 22  1  0
  1 23  1  0
  4 24  1  0
  4 25  1  0
  5 26  1  0
  8 27  1  0
  9 28  1  0
 10 29  1  0
 13 30  1  0
 14 31  1  0
 15 32  1  0
 17 33  1  0
 18 34  1  0
 35 36  1  0
 36 37  1  0
 37 38  2  0
 38 39  1  0
 39 40  2  0
 40 41  1  0
 41 42  2  0
 42 37  1  0
 36 43  1  0
 36 44  1  0
 38 45  1  0
 39 46  1  0
 41 47  1  0
 42 48  1  0
  6 35  1  6
M  CHG  1   5   1
M  END
>  <attachment_point>  (488) 
26

>  <score>  (488) 
<NA>

$$$$
CAT-4j
     RDKit          3D

 45 48  0  0  1  0  0  0  0  0999 V2000
   11.7106   -2.3098    1.2658 C   0  0  0  0  0  0  0  0  0  0  0  0
   13.0313   -2.6523    0.7225 N   0  0  0  0  0  0  0  0  0  0  0  0
   14.2010   -2.6281    1.3773 C   0  0  0  0  0  0  0  0  0  0  0  0
   14.3777   -2.3568    2.6732 N   0  0  0  0  0  0  0  0  0  0  0  0
   15.2217   -2.9197    0.5738 N   0  0  0  0  0  0  0  0  0  0  0  0
   14.7965   -3.2519   -0.7875 C   0  0  1  0  0  0  0  0  0  0  0  0
   15.3794   -2.2443   -1.7949 C   0  0  0  0  0  0  0  0  0  0  0  0
   15.9522   -2.6550   -3.0208 C   0  0  0  0  0  0  0  0  0  0  0  0
   16.4340   -1.6937   -3.9273 C   0  0  0  0  0  0  0  0  0  0  0  0
   16.3364   -0.3224   -3.6308 C   0  0  0  0  0  0  0  0  0  0  0  0
   15.7943    0.1250   -2.4073 C   0  0  0  0  0  0  0  0  0  0  0  0
   15.6711    1.5693   -2.0915 C   0  0  0  0  0  0  0  0  0  0  0  0
   15.3832    2.0354   -0.7903 C   0  0  0  0  0  0  0  0  0  0  0  0
   15.3534    3.4188   -0.5357 C   0  0  0  0  0  0  0  0  0  0  0  0
   15.5968    4.3049   -1.5946 C   0  0  0  0  0  0  0  0  0  0  0  0
   15.8275    3.8920   -2.8511 N   0  0  0  0  0  0  0  0  0  0  0  0
   15.8598    2.5642   -3.0762 C   0  0  0  0  0  0  0  0  0  0  0  0
   15.3327   -0.8573   -1.5012 C   0  0  0  0  0  0  0  0  0  0  0  0
   13.2767   -3.0094   -0.6368 C   0  0  0  0  0  0  0  0  0  0  0  0
   12.3981   -3.0674   -1.5055 O   0  0  0  0  0  0  0  0  0  0  0  0
    0.0000    0.0000    0.0000 H   0  0  0  0  0  0  0  0  0  0  0  0
    0.0000    0.0000    0.0000 H   0  0  0  0  0  0  0  0  0  0  0  0
    0.0000    0.0000    0.0000 H   0  0  0  0  0  0  0  0  0  0  0  0
    0.0000    0.0000    0.0000 H   0  0  0  0  0  0  0  0  0  0  0  0
    0.0000    0.0000    0.0000 H   0  0  0  0  0  0  0  0  0  0  0  0
    0.0000    0.0000    0.0000 H   0  0  0  0  0  0  0  0  0  0  0  0
    0.0000    0.0000    0.0000 H   0  0  0  0  0  0  0  0  0  0  0  0
    0.0000    0.0000    0.0000 H   0  0  0  0  0  0  0  0  0  0  0  0
    0.0000    0.0000    0.0000 H   0  0  0  0  0  0  0  0  0  0  0  0
    0.0000    0.0000    0.0000 H   0  0  0  0  0  0  0  0  0  0  0  0
    0.0000    0.0000    0.0000 H   0  0  0  0  0  0  0  0  0  0  0  0
    0.0000    0.0000    0.0000 H   0  0  0  0  0  0  0  0  0  0  0  0
    0.0000    0.0000    0.0000 H   0  0  0  0  0  0  0  0  0  0  0  0
    0.0000    0.0000    0.0000 H   0  0  0  0  0  0  0  0  0  0  0  0
    6.9713   -1.5321   -0.3710 C   0  0  0  0  0  0  0  0  0  0  0  0
    6.4239   -0.8702    0.7091 C   0  0  0  0  0  0  0  0  0  0  0  0
    5.0746   -0.6083    0.7137 C   0  0  0  0  0  0  0  0  0  0  0  0
    4.2313   -0.9761   -0.3147 C   0  0  0  0  0  0  0  0  0  0  0  0
    4.7953   -1.6400   -1.3923 C   0  0  0  0  0  0  0  0  0  0  0  0
    3.8380   -2.1643   -2.7670 Cl  0  0  0  0  0  0  0  0  0  0  0  0
    6.1530   -1.9128   -1.4150 C   0  0  0  0  0  0  0  0  0  0  0  0
    6.8546   -2.7607   -2.7983 Cl  0  0  0  0  0  0  0  0  0  0  0  0
    7.0602   -0.5646    1.5394 H   0  0  0  0  0  0  0  0  0  0  0  0
    4.6324   -0.0875    1.5591 H   0  0  0  0  0  0  0  0  0  0  0  0
    3.1748   -0.7775   -0.3234 H   0  0  0  0  0  0  0  0  0  0  0  0
  1  2  1  0
  2  3  1  0
  2 19  1  0
  3  4  1  0
  3  5  2  0
  5  6  1  0
  6  7  1  1
  6 19  1  0
  7  8  2  0
  7 18  1  0
  8  9  1  0
  9 10  2  0
 10 11  1  0
 11 12  1  0
 11 18  2  0
 12 13  2  0
 12 17  1  0
 13 14  1  0
 14 15  2  0
 15 16  1  0
 16 17  2  0
 19 20  2  0
  1 21  1  0
  1 22  1  0
  1 23  1  0
  4 24  1  0
  4 25  1  0
  5 26  1  0
  8 27  1  0
  9 28  1  0
 10 29  1  0
 13 30  1  0
 14 31  1  0
 15 32  1  0
 17 33  1  0
 18 34  1  0
 35 36  2  0
 36 37  1  0
 37 38  2  0
 38 39  1  0
 39 40  1  0
 39 41  2  0
 41 42  1  0
 41 35  1  0
 36 43  1  0
 37 44  1  0
 38 45  1  0
  6 35  1  0
M  CHG  1   5   1
M  END
>  <attachment_point>  (489) 
26

>  <score>  (489) 
<NA>

$$$$
CAT-4j
     RDKit          3D

 55 57  0  0  1  0  0  0  0  0999 V2000
   11.7106   -2.3098    1.2658 C   0  0  0  0  0  0  0  0  0  0  0  0
   13.0313   -2.6523    0.7225 N   0  0  0  0  0  0  0  0  0  0  0  0
   14.2010   -2.6281    1.3773 C   0  0  0  0  0  0  0  0  0  0  0  0
   14.3777   -2.3568    2.6732 N   0  0  0  0  0  0  0  0  0  0  0  0
   15.2217   -2.9197    0.5738 N   0  0  0  0  0  0  0  0  0  0  0  0
   14.7965   -3.2519   -0.7875 C   0  0  1  0  0  0  0  0  0  0  0  0
   15.3794   -2.2443   -1.7949 C   0  0  0  0  0  0  0  0  0  0  0  0
   15.9522   -2.6550   -3.0208 C   0  0  0  0  0  0  0  0  0  0  0  0
   16.4340   -1.6937   -3.9273 C   0  0  0  0  0  0  0  0  0  0  0  0
   16.3364   -0.3224   -3.6308 C   0  0  0  0  0  0  0  0  0  0  0  0
   15.7943    0.1250   -2.4073 C   0  0  0  0  0  0  0  0  0  0  0  0
   15.6711    1.5693   -2.0915 C   0  0  0  0  0  0  0  0  0  0  0  0
   15.3832    2.0354   -0.7903 C   0  0  0  0  0  0  0  0  0  0  0  0
   15.3534    3.4188   -0.5357 C   0  0  0  0  0  0  0  0  0  0  0  0
   15.5968    4.3049   -1.5946 C   0  0  0  0  0  0  0  0  0  0  0  0
   15.8275    3.8920   -2.8511 N   0  0  0  0  0  0  0  0  0  0  0  0
   15.8598    2.5642   -3.0762 C   0  0  0  0  0  0  0  0  0  0  0  0
   15.3327   -0.8573   -1.5012 C   0  0  0  0  0  0  0  0  0  0  0  0
   13.2767   -3.0094   -0.6368 C   0  0  0  0  0  0  0  0  0  0  0  0
   12.3981   -3.0674   -1.5055 O   0  0  0  0  0  0  0  0  0  0  0  0
    0.0000    0.0000    0.0000 H   0  0  0  0  0  0  0  0  0  0  0  0
    0.0000    0.0000    0.0000 H   0  0  0  0  0  0  0  0  0  0  0  0
    0.0000    0.0000    0.0000 H   0  0  0  0  0  0  0  0  0  0  0  0
    0.0000    0.0000    0.0000 H   0  0  0  0  0  0  0  0  0  0  0  0
    0.0000    0.0000    0.0000 H   0  0  0  0  0  0  0  0  0  0  0  0
    0.0000    0.0000    0.0000 H   0  0  0  0  0  0  0  0  0  0  0  0
    0.0000    0.0000    0.0000 H   0  0  0  0  0  0  0  0  0  0  0  0
    0.0000    0.0000    0.0000 H   0  0  0  0  0  0  0  0  0  0  0  0
    0.0000    0.0000    0.0000 H   0  0  0  0  0  0  0  0  0  0  0  0
    0.0000    0.0000    0.0000 H   0  0  0  0  0  0  0  0  0  0  0  0
    0.0000    0.0000    0.0000 H   0  0  0  0  0  0  0  0  0  0  0  0
    0.0000    0.0000    0.0000 H   0  0  0  0  0  0  0  0  0  0  0  0
    0.0000    0.0000    0.0000 H   0  0  0  0  0  0  0  0  0  0  0  0
    0.0000    0.0000    0.0000 H   0  0  0  0  0  0  0  0  0  0  0  0
    6.9492   -1.5272   -0.3698 C   0  0  0  0  0  0  0  0  0  0  0  0
    6.6728   -0.9278    0.9800 C   0  0  0  0  0  0  0  0  0  0  0  0
    5.3126   -0.5564    1.2028 N   0  0  0  0  0  0  0  0  0  0  0  0
    4.4127   -1.6693    1.2791 C   0  0  0  0  0  0  0  0  0  0  0  0
    3.0130   -1.2754    1.6121 C   0  0  0  0  0  0  0  0  0  0  0  0
    5.0979    0.4628    2.1689 C   0  0  0  0  0  0  0  0  0  0  0  0
    5.5997    1.8176    1.8213 C   0  0  0  0  0  0  0  0  0  0  0  0
    6.7977   -0.8718   -1.2253 H   0  0  0  0  0  0  0  0  0  0  0  0
    6.4279   -2.5220   -0.5009 H   0  0  0  0  0  0  0  0  0  0  0  0
    7.3776   -0.1336    1.2087 H   0  0  0  0  0  0  0  0  0  0  0  0
    6.8970   -1.7492    1.7217 H   0  0  0  0  0  0  0  0  0  0  0  0
    4.3772   -2.1614    0.2498 H   0  0  0  0  0  0  0  0  0  0  0  0
    4.8036   -2.3674    2.0502 H   0  0  0  0  0  0  0  0  0  0  0  0
    2.3442   -2.1615    1.3733 H   0  0  0  0  0  0  0  0  0  0  0  0
    2.6360   -0.4528    0.9491 H   0  0  0  0  0  0  0  0  0  0  0  0
    2.8403   -1.0525    2.6926 H   0  0  0  0  0  0  0  0  0  0  0  0
    5.5823    0.1449    3.1248 H   0  0  0  0  0  0  0  0  0  0  0  0
    4.0072    0.5431    2.4144 H   0  0  0  0  0  0  0  0  0  0  0  0
    6.5461    2.0574    2.3867 H   0  0  0  0  0  0  0  0  0  0  0  0
    4.8427    2.5676    2.1993 H   0  0  0  0  0  0  0  0  0  0  0  0
    5.6896    2.0283    0.7527 H   0  0  0  0  0  0  0  0  0  0  0  0
  1  2  1  0
  2  3  1  0
  2 19  1  0
  3  4  1  0
  3  5  2  0
  5  6  1  0
  6  7  1  0
  6 19  1  0
  7  8  2  0
  7 18  1  0
  8  9  1  0
  9 10  2  0
 10 11  1  0
 11 12  1  0
 11 18  2  0
 12 13  2  0
 12 17  1  0
 13 14  1  0
 14 15  2  0
 15 16  1  0
 16 17  2  0
 19 20  2  0
  1 21  1  0
  1 22  1  0
  1 23  1  0
  4 24  1  0
  4 25  1  0
  5 26  1  0
  8 27  1  0
  9 28  1  0
 10 29  1  0
 13 30  1  0
 14 31  1  0
 15 32  1  0
 17 33  1  0
 18 34  1  0
 35 36  1  0
 36 37  1  0
 37 38  1  0
 38 39  1  0
 37 40  1  0
 40 41  1  0
 35 42  1  0
 35 43  1  0
 36 44  1  0
 36 45  1  0
 38 46  1  0
 38 47  1  0
 39 48  1  0
 39 49  1  0
 39 50  1  0
 40 51  1  0
 40 52  1  0
 41 53  1  0
 41 54  1  0
 41 55  1  0
  6 35  1  6
M  CHG  1   5   1
M  END
>  <attachment_point>  (490) 
26

>  <score>  (490) 
<NA>

$$$$
CAT-4j
     RDKit          3D

 45 47  0  0  1  0  0  0  0  0999 V2000
   11.7106   -2.3098    1.2658 C   0  0  0  0  0  0  0  0  0  0  0  0
   13.0313   -2.6523    0.7225 N   0  0  0  0  0  0  0  0  0  0  0  0
   14.2010   -2.6281    1.3773 C   0  0  0  0  0  0  0  0  0  0  0  0
   14.3777   -2.3568    2.6732 N   0  0  0  0  0  0  0  0  0  0  0  0
   15.2217   -2.9197    0.5738 N   0  0  0  0  0  0  0  0  0  0  0  0
   14.7965   -3.2519   -0.7875 C   0  0  1  0  0  0  0  0  0  0  0  0
   15.3794   -2.2443   -1.7949 C   0  0  0  0  0  0  0  0  0  0  0  0
   15.9522   -2.6550   -3.0208 C   0  0  0  0  0  0  0  0  0  0  0  0
   16.4340   -1.6937   -3.9273 C   0  0  0  0  0  0  0  0  0  0  0  0
   16.3364   -0.3224   -3.6308 C   0  0  0  0  0  0  0  0  0  0  0  0
   15.7943    0.1250   -2.4073 C   0  0  0  0  0  0  0  0  0  0  0  0
   15.6711    1.5693   -2.0915 C   0  0  0  0  0  0  0  0  0  0  0  0
   15.3832    2.0354   -0.7903 C   0  0  0  0  0  0  0  0  0  0  0  0
   15.3534    3.4188   -0.5357 C   0  0  0  0  0  0  0  0  0  0  0  0
   15.5968    4.3049   -1.5946 C   0  0  0  0  0  0  0  0  0  0  0  0
   15.8275    3.8920   -2.8511 N   0  0  0  0  0  0  0  0  0  0  0  0
   15.8598    2.5642   -3.0762 C   0  0  0  0  0  0  0  0  0  0  0  0
   15.3327   -0.8573   -1.5012 C   0  0  0  0  0  0  0  0  0  0  0  0
   13.2767   -3.0094   -0.6368 C   0  0  0  0  0  0  0  0  0  0  0  0
   12.3981   -3.0674   -1.5055 O   0  0  0  0  0  0  0  0  0  0  0  0
    0.0000    0.0000    0.0000 H   0  0  0  0  0  0  0  0  0  0  0  0
    0.0000    0.0000    0.0000 H   0  0  0  0  0  0  0  0  0  0  0  0
    0.0000    0.0000    0.0000 H   0  0  0  0  0  0  0  0  0  0  0  0
    0.0000    0.0000    0.0000 H   0  0  0  0  0  0  0  0  0  0  0  0
    0.0000    0.0000    0.0000 H   0  0  0  0  0  0  0  0  0  0  0  0
    0.0000    0.0000    0.0000 H   0  0  0  0  0  0  0  0  0  0  0  0
    0.0000    0.0000    0.0000 H   0  0  0  0  0  0  0  0  0  0  0  0
    0.0000    0.0000    0.0000 H   0  0  0  0  0  0  0  0  0  0  0  0
    0.0000    0.0000    0.0000 H   0  0  0  0  0  0  0  0  0  0  0  0
    0.0000    0.0000    0.0000 H   0  0  0  0  0  0  0  0  0  0  0  0
    0.0000    0.0000    0.0000 H   0  0  0  0  0  0  0  0  0  0  0  0
    0.0000    0.0000    0.0000 H   0  0  0  0  0  0  0  0  0  0  0  0
    0.0000    0.0000    0.0000 H   0  0  0  0  0  0  0  0  0  0  0  0
    0.0000    0.0000    0.0000 H   0  0  0  0  0  0  0  0  0  0  0  0
    6.9271   -1.5224   -0.3687 C   0  0  0  0  0  0  0  0  0  0  0  0
    6.7013   -0.1923   -0.5347 O   0  0  0  0  0  0  0  0  0  0  0  0
    6.0911   -2.4886   -0.1643 C   0  0  0  0  0  0  0  0  0  0  0  0
    6.5388   -3.8746   -0.0091 C   0  0  0  0  0  0  0  0  0  0  0  0
    5.7630   -4.8179    0.1871 O   0  0  0  0  0  0  0  0  0  0  0  0
    7.9681   -4.1826   -0.0859 C   0  0  0  0  0  0  0  0  0  0  0  0
    8.8295   -3.2662   -0.2855 O   0  0  0  0  0  0  0  0  0  0  0  0
    8.4623   -5.4655    0.0511 O   0  0  0  0  0  0  0  0  0  0  0  0
    6.0061    0.1189   -1.2058 H   0  0  0  0  0  0  0  0  0  0  0  0
    5.0540   -2.2622   -0.1088 H   0  0  0  0  0  0  0  0  0  0  0  0
    9.3420   -5.7600   -0.3544 H   0  0  0  0  0  0  0  0  0  0  0  0
  1  2  1  0
  2  3  1  0
  2 19  1  0
  3  4  1  0
  3  5  2  0
  5  6  1  0
  6  7  1  1
  6 19  1  0
  7  8  2  0
  7 18  1  0
  8  9  1  0
  9 10  2  0
 10 11  1  0
 11 12  1  0
 11 18  2  0
 12 13  2  0
 12 17  1  0
 13 14  1  0
 14 15  2  0
 15 16  1  0
 16 17  2  0
 19 20  2  0
  1 21  1  0
  1 22  1  0
  1 23  1  0
  4 24  1  0
  4 25  1  0
  5 26  1  0
  8 27  1  0
  9 28  1  0
 10 29  1  0
 13 30  1  0
 14 31  1  0
 15 32  1  0
 17 33  1  0
 18 34  1  0
 35 36  1  0
 35 37  2  3
 37 38  1  0
 38 39  2  0
 38 40  1  0
 40 41  2  0
 40 42  1  0
 36 43  1  0
 37 44  1  0
 42 45  1  0
  6 35  1  0
M  CHG  1   5   1
M  END
>  <attachment_point>  (491) 
26

>  <score>  (491) 
<NA>

$$$$
CAT-4j
     RDKit          3D

 41 43  0  0  1  0  0  0  0  0999 V2000
   11.7106   -2.3098    1.2658 C   0  0  0  0  0  0  0  0  0  0  0  0
   13.0313   -2.6523    0.7225 N   0  0  0  0  0  0  0  0  0  0  0  0
   14.2010   -2.6281    1.3773 C   0  0  0  0  0  0  0  0  0  0  0  0
   14.3777   -2.3568    2.6732 N   0  0  0  0  0  0  0  0  0  0  0  0
   15.2217   -2.9197    0.5738 N   0  0  0  0  0  0  0  0  0  0  0  0
   14.7965   -3.2519   -0.7875 C   0  0  1  0  0  0  0  0  0  0  0  0
   15.3794   -2.2443   -1.7949 C   0  0  0  0  0  0  0  0  0  0  0  0
   15.9522   -2.6550   -3.0208 C   0  0  0  0  0  0  0  0  0  0  0  0
   16.4340   -1.6937   -3.9273 C   0  0  0  0  0  0  0  0  0  0  0  0
   16.3364   -0.3224   -3.6308 C   0  0  0  0  0  0  0  0  0  0  0  0
   15.7943    0.1250   -2.4073 C   0  0  0  0  0  0  0  0  0  0  0  0
   15.6711    1.5693   -2.0915 C   0  0  0  0  0  0  0  0  0  0  0  0
   15.3832    2.0354   -0.7903 C   0  0  0  0  0  0  0  0  0  0  0  0
   15.3534    3.4188   -0.5357 C   0  0  0  0  0  0  0  0  0  0  0  0
   15.5968    4.3049   -1.5946 C   0  0  0  0  0  0  0  0  0  0  0  0
   15.8275    3.8920   -2.8511 N   0  0  0  0  0  0  0  0  0  0  0  0
   15.8598    2.5642   -3.0762 C   0  0  0  0  0  0  0  0  0  0  0  0
   15.3327   -0.8573   -1.5012 C   0  0  0  0  0  0  0  0  0  0  0  0
   13.2767   -3.0094   -0.6368 C   0  0  0  0  0  0  0  0  0  0  0  0
   12.3981   -3.0674   -1.5055 O   0  0  0  0  0  0  0  0  0  0  0  0
    0.0000    0.0000    0.0000 H   0  0  0  0  0  0  0  0  0  0  0  0
    0.0000    0.0000    0.0000 H   0  0  0  0  0  0  0  0  0  0  0  0
    0.0000    0.0000    0.0000 H   0  0  0  0  0  0  0  0  0  0  0  0
    0.0000    0.0000    0.0000 H   0  0  0  0  0  0  0  0  0  0  0  0
    0.0000    0.0000    0.0000 H   0  0  0  0  0  0  0  0  0  0  0  0
    0.0000    0.0000    0.0000 H   0  0  0  0  0  0  0  0  0  0  0  0
    0.0000    0.0000    0.0000 H   0  0  0  0  0  0  0  0  0  0  0  0
    0.0000    0.0000    0.0000 H   0  0  0  0  0  0  0  0  0  0  0  0
    0.0000    0.0000    0.0000 H   0  0  0  0  0  0  0  0  0  0  0  0
    0.0000    0.0000    0.0000 H   0  0  0  0  0  0  0  0  0  0  0  0
    0.0000    0.0000    0.0000 H   0  0  0  0  0  0  0  0  0  0  0  0
    0.0000    0.0000    0.0000 H   0  0  0  0  0  0  0  0  0  0  0  0
    0.0000    0.0000    0.0000 H   0  0  0  0  0  0  0  0  0  0  0  0
    0.0000    0.0000    0.0000 H   0  0  0  0  0  0  0  0  0  0  0  0
    6.9782   -1.5336   -0.3714 C   0  0  0  0  0  0  0  0  0  0  0  0
    6.1448   -2.5659   -1.0970 C   0  0  0  0  0  0  0  0  0  0  0  0
    6.3984   -3.7850   -0.4761 F   0  0  0  0  0  0  0  0  0  0  0  0
    6.4310   -2.6729   -2.4203 F   0  0  0  0  0  0  0  0  0  0  0  0
    4.7957   -2.3291   -0.9471 F   0  0  0  0  0  0  0  0  0  0  0  0
    6.7640   -0.5017   -0.7054 H   0  0  0  0  0  0  0  0  0  0  0  0
    6.6889   -1.5804    0.6987 H   0  0  0  0  0  0  0  0  0  0  0  0
  1  2  1  0
  2  3  1  0
  2 19  1  0
  3  4  1  0
  3  5  2  0
  5  6  1  0
  6  7  1  0
  6 19  1  0
  7  8  2  0
  7 18  1  0
  8  9  1  0
  9 10  2  0
 10 11  1  0
 11 12  1  0
 11 18  2  0
 12 13  2  0
 12 17  1  0
 13 14  1  0
 14 15  2  0
 15 16  1  0
 16 17  2  0
 19 20  2  0
  1 21  1  0
  1 22  1  0
  1 23  1  0
  4 24  1  0
  4 25  1  0
  5 26  1  0
  8 27  1  0
  9 28  1  0
 10 29  1  0
 13 30  1  0
 14 31  1  0
 15 32  1  0
 17 33  1  0
 18 34  1  0
 35 36  1  0
 36 37  1  0
 36 38  1  0
 36 39  1  0
 35 40  1  0
 35 41  1  0
  6 35  1  6
M  CHG  1   5   1
M  END
>  <attachment_point>  (492) 
26

>  <score>  (492) 
<NA>

$$$$
CAT-4j
     RDKit          3D

 46 49  0  0  1  0  0  0  0  0999 V2000
   11.7106   -2.3098    1.2658 C   0  0  0  0  0  0  0  0  0  0  0  0
   13.0313   -2.6523    0.7225 N   0  0  0  0  0  0  0  0  0  0  0  0
   14.2010   -2.6281    1.3773 C   0  0  0  0  0  0  0  0  0  0  0  0
   14.3777   -2.3568    2.6732 N   0  0  0  0  0  0  0  0  0  0  0  0
   15.2217   -2.9197    0.5738 N   0  0  0  0  0  0  0  0  0  0  0  0
   14.7965   -3.2519   -0.7875 C   0  0  1  0  0  0  0  0  0  0  0  0
   15.3794   -2.2443   -1.7949 C   0  0  0  0  0  0  0  0  0  0  0  0
   15.9522   -2.6550   -3.0208 C   0  0  0  0  0  0  0  0  0  0  0  0
   16.4340   -1.6937   -3.9273 C   0  0  0  0  0  0  0  0  0  0  0  0
   16.3364   -0.3224   -3.6308 C   0  0  0  0  0  0  0  0  0  0  0  0
   15.7943    0.1250   -2.4073 C   0  0  0  0  0  0  0  0  0  0  0  0
   15.6711    1.5693   -2.0915 C   0  0  0  0  0  0  0  0  0  0  0  0
   15.3832    2.0354   -0.7903 C   0  0  0  0  0  0  0  0  0  0  0  0
   15.3534    3.4188   -0.5357 C   0  0  0  0  0  0  0  0  0  0  0  0
   15.5968    4.3049   -1.5946 C   0  0  0  0  0  0  0  0  0  0  0  0
   15.8275    3.8920   -2.8511 N   0  0  0  0  0  0  0  0  0  0  0  0
   15.8598    2.5642   -3.0762 C   0  0  0  0  0  0  0  0  0  0  0  0
   15.3327   -0.8573   -1.5012 C   0  0  0  0  0  0  0  0  0  0  0  0
   13.2767   -3.0094   -0.6368 C   0  0  0  0  0  0  0  0  0  0  0  0
   12.3981   -3.0674   -1.5055 O   0  0  0  0  0  0  0  0  0  0  0  0
    0.0000    0.0000    0.0000 H   0  0  0  0  0  0  0  0  0  0  0  0
    0.0000    0.0000    0.0000 H   0  0  0  0  0  0  0  0  0  0  0  0
    0.0000    0.0000    0.0000 H   0  0  0  0  0  0  0  0  0  0  0  0
    0.0000    0.0000    0.0000 H   0  0  0  0  0  0  0  0  0  0  0  0
    0.0000    0.0000    0.0000 H   0  0  0  0  0  0  0  0  0  0  0  0
    0.0000    0.0000    0.0000 H   0  0  0  0  0  0  0  0  0  0  0  0
    0.0000    0.0000    0.0000 H   0  0  0  0  0  0  0  0  0  0  0  0
    0.0000    0.0000    0.0000 H   0  0  0  0  0  0  0  0  0  0  0  0
    0.0000    0.0000    0.0000 H   0  0  0  0  0  0  0  0  0  0  0  0
    0.0000    0.0000    0.0000 H   0  0  0  0  0  0  0  0  0  0  0  0
    0.0000    0.0000    0.0000 H   0  0  0  0  0  0  0  0  0  0  0  0
    0.0000    0.0000    0.0000 H   0  0  0  0  0  0  0  0  0  0  0  0
    0.0000    0.0000    0.0000 H   0  0  0  0  0  0  0  0  0  0  0  0
    0.0000    0.0000    0.0000 H   0  0  0  0  0  0  0  0  0  0  0  0
    6.9373   -1.5246   -0.3692 C   0  0  0  0  0  0  0  0  0  0  0  0
    6.5608   -0.4189    0.0225 O   0  0  0  0  0  0  0  0  0  0  0  0
    6.0506   -2.5774   -0.7752 C   0  0  0  0  0  0  0  0  0  0  0  0
    4.6879   -2.3505   -0.7291 C   0  0  0  0  0  0  0  0  0  0  0  0
    3.8373   -3.3627   -1.1195 C   0  0  0  0  0  0  0  0  0  0  0  0
    4.3157   -4.5397   -1.5343 N   0  0  0  0  0  0  0  0  0  0  0  0
    5.6309   -4.8036   -1.5951 C   0  0  0  0  0  0  0  0  0  0  0  0
    6.5064   -3.8074   -1.2100 C   0  0  0  0  0  0  0  0  0  0  0  0
    4.2790   -1.4077   -0.3976 H   0  0  0  0  0  0  0  0  0  0  0  0
    2.7744   -3.1531   -1.0716 H   0  0  0  0  0  0  0  0  0  0  0  0
    6.0249   -5.7615   -1.9326 H   0  0  0  0  0  0  0  0  0  0  0  0
    7.5803   -4.0145   -1.2566 H   0  0  0  0  0  0  0  0  0  0  0  0
  1  2  1  0
  2  3  1  0
  2 19  1  0
  3  4  1  0
  3  5  2  0
  5  6  1  0
  6  7  1  0
  6 19  1  0
  7  8  2  0
  7 18  1  0
  8  9  1  0
  9 10  2  0
 10 11  1  0
 11 12  1  0
 11 18  2  0
 12 13  2  0
 12 17  1  0
 13 14  1  0
 14 15  2  0
 15 16  1  0
 16 17  2  0
 19 20  2  0
  1 21  1  0
  1 22  1  0
  1 23  1  0
  4 24  1  0
  4 25  1  0
  5 26  1  0
  8 27  1  0
  9 28  1  0
 10 29  1  0
 13 30  1  0
 14 31  1  0
 15 32  1  0
 17 33  1  0
 18 34  1  0
 35 36  2  0
 35 37  1  0
 37 38  2  0
 38 39  1  0
 39 40  2  0
 40 41  1  0
 41 42  2  0
 42 37  1  0
 38 43  1  0
 39 44  1  0
 41 45  1  0
 42 46  1  0
  6 35  1  6
M  CHG  1   5   1
M  END
>  <attachment_point>  (493) 
26

>  <score>  (493) 
<NA>

$$$$
CAT-4j
     RDKit          3D

 37 39  0  0  1  0  0  0  0  0999 V2000
   11.7106   -2.3098    1.2658 C   0  0  0  0  0  0  0  0  0  0  0  0
   13.0313   -2.6523    0.7225 N   0  0  0  0  0  0  0  0  0  0  0  0
   14.2010   -2.6281    1.3773 C   0  0  0  0  0  0  0  0  0  0  0  0
   14.3777   -2.3568    2.6732 N   0  0  0  0  0  0  0  0  0  0  0  0
   15.2217   -2.9197    0.5738 N   0  0  0  0  0  0  0  0  0  0  0  0
   14.7965   -3.2519   -0.7875 C   0  0  1  0  0  0  0  0  0  0  0  0
   15.3794   -2.2443   -1.7949 C   0  0  0  0  0  0  0  0  0  0  0  0
   15.9522   -2.6550   -3.0208 C   0  0  0  0  0  0  0  0  0  0  0  0
   16.4340   -1.6937   -3.9273 C   0  0  0  0  0  0  0  0  0  0  0  0
   16.3364   -0.3224   -3.6308 C   0  0  0  0  0  0  0  0  0  0  0  0
   15.7943    0.1250   -2.4073 C   0  0  0  0  0  0  0  0  0  0  0  0
   15.6711    1.5693   -2.0915 C   0  0  0  0  0  0  0  0  0  0  0  0
   15.3832    2.0354   -0.7903 C   0  0  0  0  0  0  0  0  0  0  0  0
   15.3534    3.4188   -0.5357 C   0  0  0  0  0  0  0  0  0  0  0  0
   15.5968    4.3049   -1.5946 C   0  0  0  0  0  0  0  0  0  0  0  0
   15.8275    3.8920   -2.8511 N   0  0  0  0  0  0  0  0  0  0  0  0
   15.8598    2.5642   -3.0762 C   0  0  0  0  0  0  0  0  0  0  0  0
   15.3327   -0.8573   -1.5012 C   0  0  0  0  0  0  0  0  0  0  0  0
   13.2767   -3.0094   -0.6368 C   0  0  0  0  0  0  0  0  0  0  0  0
   12.3981   -3.0674   -1.5055 O   0  0  0  0  0  0  0  0  0  0  0  0
    0.0000    0.0000    0.0000 H   0  0  0  0  0  0  0  0  0  0  0  0
    0.0000    0.0000    0.0000 H   0  0  0  0  0  0  0  0  0  0  0  0
    0.0000    0.0000    0.0000 H   0  0  0  0  0  0  0  0  0  0  0  0
    0.0000    0.0000    0.0000 H   0  0  0  0  0  0  0  0  0  0  0  0
    0.0000    0.0000    0.0000 H   0  0  0  0  0  0  0  0  0  0  0  0
    0.0000    0.0000    0.0000 H   0  0  0  0  0  0  0  0  0  0  0  0
    0.0000    0.0000    0.0000 H   0  0  0  0  0  0  0  0  0  0  0  0
    0.0000    0.0000    0.0000 H   0  0  0  0  0  0  0  0  0  0  0  0
    0.0000    0.0000    0.0000 H   0  0  0  0  0  0  0  0  0  0  0  0
    0.0000    0.0000    0.0000 H   0  0  0  0  0  0  0  0  0  0  0  0
    0.0000    0.0000    0.0000 H   0  0  0  0  0  0  0  0  0  0  0  0
    0.0000    0.0000    0.0000 H   0  0  0  0  0  0  0  0  0  0  0  0
    0.0000    0.0000    0.0000 H   0  0  0  0  0  0  0  0  0  0  0  0
    0.0000    0.0000    0.0000 H   0  0  0  0  0  0  0  0  0  0  0  0
    6.9181   -1.5204   -0.3682 N   0  0  0  0  0  0  0  0  0  0  0  0
    6.2570   -2.5619   -0.1471 C   0  0  0  0  0  0  0  0  0  0  0  0
    5.5580   -3.9241    0.3937 S   0  0  0  0  0  0  0  0  0  0  0  0
  1  2  1  0
  2  3  1  0
  2 19  1  0
  3  4  1  0
  3  5  2  0
  5  6  1  0
  6  7  1  0
  6 19  1  0
  7  8  2  0
  7 18  1  0
  8  9  1  0
  9 10  2  0
 10 11  1  0
 11 12  1  0
 11 18  2  0
 12 13  2  0
 12 17  1  0
 13 14  1  0
 14 15  2  0
 15 16  1  0
 16 17  2  0
 19 20  2  0
  1 21  1  0
  1 22  1  0
  1 23  1  0
  4 24  1  0
  4 25  1  0
  5 26  1  0
  8 27  1  0
  9 28  1  0
 10 29  1  0
 13 30  1  0
 14 31  1  0
 15 32  1  0
 17 33  1  0
 18 34  1  0
 35 36  2  0
 36 37  2  0
  6 35  1  6
M  CHG  1   5   1
M  END
>  <attachment_point>  (494) 
26

>  <score>  (494) 
<NA>

$$$$
CAT-4j
     RDKit          3D

 40 42  0  0  1  0  0  0  0  0999 V2000
   11.7106   -2.3098    1.2658 C   0  0  0  0  0  0  0  0  0  0  0  0
   13.0313   -2.6523    0.7225 N   0  0  0  0  0  0  0  0  0  0  0  0
   14.2010   -2.6281    1.3773 C   0  0  0  0  0  0  0  0  0  0  0  0
   14.3777   -2.3568    2.6732 N   0  0  0  0  0  0  0  0  0  0  0  0
   15.2217   -2.9197    0.5738 N   0  0  0  0  0  0  0  0  0  0  0  0
   14.7965   -3.2519   -0.7875 C   0  0  1  0  0  0  0  0  0  0  0  0
   15.3794   -2.2443   -1.7949 C   0  0  0  0  0  0  0  0  0  0  0  0
   15.9522   -2.6550   -3.0208 C   0  0  0  0  0  0  0  0  0  0  0  0
   16.4340   -1.6937   -3.9273 C   0  0  0  0  0  0  0  0  0  0  0  0
   16.3364   -0.3224   -3.6308 C   0  0  0  0  0  0  0  0  0  0  0  0
   15.7943    0.1250   -2.4073 C   0  0  0  0  0  0  0  0  0  0  0  0
   15.6711    1.5693   -2.0915 C   0  0  0  0  0  0  0  0  0  0  0  0
   15.3832    2.0354   -0.7903 C   0  0  0  0  0  0  0  0  0  0  0  0
   15.3534    3.4188   -0.5357 C   0  0  0  0  0  0  0  0  0  0  0  0
   15.5968    4.3049   -1.5946 C   0  0  0  0  0  0  0  0  0  0  0  0
   15.8275    3.8920   -2.8511 N   0  0  0  0  0  0  0  0  0  0  0  0
   15.8598    2.5642   -3.0762 C   0  0  0  0  0  0  0  0  0  0  0  0
   15.3327   -0.8573   -1.5012 C   0  0  0  0  0  0  0  0  0  0  0  0
   13.2767   -3.0094   -0.6368 C   0  0  0  0  0  0  0  0  0  0  0  0
   12.3981   -3.0674   -1.5055 O   0  0  0  0  0  0  0  0  0  0  0  0
    0.0000    0.0000    0.0000 H   0  0  0  0  0  0  0  0  0  0  0  0
    0.0000    0.0000    0.0000 H   0  0  0  0  0  0  0  0  0  0  0  0
    0.0000    0.0000    0.0000 H   0  0  0  0  0  0  0  0  0  0  0  0
    0.0000    0.0000    0.0000 H   0  0  0  0  0  0  0  0  0  0  0  0
    0.0000    0.0000    0.0000 H   0  0  0  0  0  0  0  0  0  0  0  0
    0.0000    0.0000    0.0000 H   0  0  0  0  0  0  0  0  0  0  0  0
    0.0000    0.0000    0.0000 H   0  0  0  0  0  0  0  0  0  0  0  0
    0.0000    0.0000    0.0000 H   0  0  0  0  0  0  0  0  0  0  0  0
    0.0000    0.0000    0.0000 H   0  0  0  0  0  0  0  0  0  0  0  0
    0.0000    0.0000    0.0000 H   0  0  0  0  0  0  0  0  0  0  0  0
    0.0000    0.0000    0.0000 H   0  0  0  0  0  0  0  0  0  0  0  0
    0.0000    0.0000    0.0000 H   0  0  0  0  0  0  0  0  0  0  0  0
    0.0000    0.0000    0.0000 H   0  0  0  0  0  0  0  0  0  0  0  0
    0.0000    0.0000    0.0000 H   0  0  0  0  0  0  0  0  0  0  0  0
    6.8893   -1.5141   -0.3667 P   0  0  0  0  0  5  0  0  0  0  0  0
    6.2931   -1.9303   -1.6698 O   0  0  0  0  0  0  0  0  0  0  0  0
    6.7487    0.1287   -0.1498 O   0  0  0  0  0  0  0  0  0  0  0  0
    6.1882   -2.4243    0.8589 O   0  0  0  0  0  0  0  0  0  0  0  0
    6.9313    0.4405    0.7618 H   0  0  0  0  0  0  0  0  0  0  0  0
    6.4720   -2.1468    1.7632 H   0  0  0  0  0  0  0  0  0  0  0  0
  1  2  1  0
  2  3  1  0
  2 19  1  0
  3  4  1  0
  3  5  2  0
  5  6  1  0
  6  7  1  0
  6 19  1  0
  7  8  2  0
  7 18  1  0
  8  9  1  0
  9 10  2  0
 10 11  1  0
 11 12  1  0
 11 18  2  0
 12 13  2  0
 12 17  1  0
 13 14  1  0
 14 15  2  0
 15 16  1  0
 16 17  2  0
 19 20  2  0
  1 21  1  0
  1 22  1  0
  1 23  1  0
  4 24  1  0
  4 25  1  0
  5 26  1  0
  8 27  1  0
  9 28  1  0
 10 29  1  0
 13 30  1  0
 14 31  1  0
 15 32  1  0
 17 33  1  0
 18 34  1  0
 35 36  2  0
 35 37  1  0
 35 38  1  0
 37 39  1  0
 38 40  1  0
  6 35  1  6
M  CHG  1   5   1
M  END
>  <attachment_point>  (495) 
26

>  <score>  (495) 
<NA>

$$$$
CAT-4j
     RDKit          3D

 47 50  0  0  1  0  0  0  0  0999 V2000
   11.7106   -2.3098    1.2658 C   0  0  0  0  0  0  0  0  0  0  0  0
   13.0313   -2.6523    0.7225 N   0  0  0  0  0  0  0  0  0  0  0  0
   14.2010   -2.6281    1.3773 C   0  0  0  0  0  0  0  0  0  0  0  0
   14.3777   -2.3568    2.6732 N   0  0  0  0  0  0  0  0  0  0  0  0
   15.2217   -2.9197    0.5738 N   0  0  0  0  0  0  0  0  0  0  0  0
   14.7965   -3.2519   -0.7875 C   0  0  1  0  0  0  0  0  0  0  0  0
   15.3794   -2.2443   -1.7949 C   0  0  0  0  0  0  0  0  0  0  0  0
   15.9522   -2.6550   -3.0208 C   0  0  0  0  0  0  0  0  0  0  0  0
   16.4340   -1.6937   -3.9273 C   0  0  0  0  0  0  0  0  0  0  0  0
   16.3364   -0.3224   -3.6308 C   0  0  0  0  0  0  0  0  0  0  0  0
   15.7943    0.1250   -2.4073 C   0  0  0  0  0  0  0  0  0  0  0  0
   15.6711    1.5693   -2.0915 C   0  0  0  0  0  0  0  0  0  0  0  0
   15.3832    2.0354   -0.7903 C   0  0  0  0  0  0  0  0  0  0  0  0
   15.3534    3.4188   -0.5357 C   0  0  0  0  0  0  0  0  0  0  0  0
   15.5968    4.3049   -1.5946 C   0  0  0  0  0  0  0  0  0  0  0  0
   15.8275    3.8920   -2.8511 N   0  0  0  0  0  0  0  0  0  0  0  0
   15.8598    2.5642   -3.0762 C   0  0  0  0  0  0  0  0  0  0  0  0
   15.3327   -0.8573   -1.5012 C   0  0  0  0  0  0  0  0  0  0  0  0
   13.2767   -3.0094   -0.6368 C   0  0  0  0  0  0  0  0  0  0  0  0
   12.3981   -3.0674   -1.5055 O   0  0  0  0  0  0  0  0  0  0  0  0
    0.0000    0.0000    0.0000 H   0  0  0  0  0  0  0  0  0  0  0  0
    0.0000    0.0000    0.0000 H   0  0  0  0  0  0  0  0  0  0  0  0
    0.0000    0.0000    0.0000 H   0  0  0  0  0  0  0  0  0  0  0  0
    0.0000    0.0000    0.0000 H   0  0  0  0  0  0  0  0  0  0  0  0
    0.0000    0.0000    0.0000 H   0  0  0  0  0  0  0  0  0  0  0  0
    0.0000    0.0000    0.0000 H   0  0  0  0  0  0  0  0  0  0  0  0
    0.0000    0.0000    0.0000 H   0  0  0  0  0  0  0  0  0  0  0  0
    0.0000    0.0000    0.0000 H   0  0  0  0  0  0  0  0  0  0  0  0
    0.0000    0.0000    0.0000 H   0  0  0  0  0  0  0  0  0  0  0  0
    0.0000    0.0000    0.0000 H   0  0  0  0  0  0  0  0  0  0  0  0
    0.0000    0.0000    0.0000 H   0  0  0  0  0  0  0  0  0  0  0  0
    0.0000    0.0000    0.0000 H   0  0  0  0  0  0  0  0  0  0  0  0
    0.0000    0.0000    0.0000 H   0  0  0  0  0  0  0  0  0  0  0  0
    0.0000    0.0000    0.0000 H   0  0  0  0  0  0  0  0  0  0  0  0
    6.9737   -1.5327   -0.3712 C   0  0  0  0  0  0  0  0  0  0  0  0
    6.0575   -2.5631   -0.3586 C   0  0  0  0  0  0  0  0  0  0  0  0
    4.7226   -2.2170   -0.2859 C   0  0  0  0  0  0  0  0  0  0  0  0
    4.3811   -0.8783   -0.2305 C   0  0  0  0  0  0  0  0  0  0  0  0
    5.3042    0.1310   -0.2440 C   0  0  0  0  0  0  0  0  0  0  0  0
    4.9062    1.5709   -0.1829 C   0  0  0  0  0  0  0  0  0  0  0  0
    6.0595    2.3416   -0.2575 F   0  0  0  0  0  0  0  0  0  0  0  0
    4.2035    1.8807    0.9382 F   0  0  0  0  0  0  0  0  0  0  0  0
    4.1535    1.9193   -1.3068 F   0  0  0  0  0  0  0  0  0  0  0  0
    6.6024   -0.2266   -0.3153 N   0  0  0  0  0  0  0  0  0  0  0  0
    6.3942   -3.5965   -0.4047 H   0  0  0  0  0  0  0  0  0  0  0  0
    3.9878   -3.0116   -0.2749 H   0  0  0  0  0  0  0  0  0  0  0  0
    3.3242   -0.5947   -0.1727 H   0  0  0  0  0  0  0  0  0  0  0  0
  1  2  1  0
  2  3  1  0
  2 19  1  0
  3  4  1  0
  3  5  2  0
  5  6  1  0
  6  7  1  1
  6 19  1  0
  7  8  2  0
  7 18  1  0
  8  9  1  0
  9 10  2  0
 10 11  1  0
 11 12  1  0
 11 18  2  0
 12 13  2  0
 12 17  1  0
 13 14  1  0
 14 15  2  0
 15 16  1  0
 16 17  2  0
 19 20  2  0
  1 21  1  0
  1 22  1  0
  1 23  1  0
  4 24  1  0
  4 25  1  0
  5 26  1  0
  8 27  1  0
  9 28  1  0
 10 29  1  0
 13 30  1  0
 14 31  1  0
 15 32  1  0
 17 33  1  0
 18 34  1  0
 35 36  2  0
 36 37  1  0
 37 38  2  0
 38 39  1  0
 39 40  1  0
 40 41  1  0
 40 42  1  0
 40 43  1  0
 39 44  2  0
 44 35  1  0
 36 45  1  0
 37 46  1  0
 38 47  1  0
  6 35  1  0
M  CHG  1   5   1
M  END
>  <attachment_point>  (496) 
26

>  <score>  (496) 
<NA>

$$$$
CAT-4j
     RDKit          3D

 58 62  0  0  1  0  0  0  0  0999 V2000
   11.7106   -2.3098    1.2658 C   0  0  0  0  0  0  0  0  0  0  0  0
   13.0313   -2.6523    0.7225 N   0  0  0  0  0  0  0  0  0  0  0  0
   14.2010   -2.6281    1.3773 C   0  0  0  0  0  0  0  0  0  0  0  0
   14.3777   -2.3568    2.6732 N   0  0  0  0  0  0  0  0  0  0  0  0
   15.2217   -2.9197    0.5738 N   0  0  0  0  0  0  0  0  0  0  0  0
   14.7965   -3.2519   -0.7875 C   0  0  1  0  0  0  0  0  0  0  0  0
   15.3794   -2.2443   -1.7949 C   0  0  0  0  0  0  0  0  0  0  0  0
   15.9522   -2.6550   -3.0208 C   0  0  0  0  0  0  0  0  0  0  0  0
   16.4340   -1.6937   -3.9273 C   0  0  0  0  0  0  0  0  0  0  0  0
   16.3364   -0.3224   -3.6308 C   0  0  0  0  0  0  0  0  0  0  0  0
   15.7943    0.1250   -2.4073 C   0  0  0  0  0  0  0  0  0  0  0  0
   15.6711    1.5693   -2.0915 C   0  0  0  0  0  0  0  0  0  0  0  0
   15.3832    2.0354   -0.7903 C   0  0  0  0  0  0  0  0  0  0  0  0
   15.3534    3.4188   -0.5357 C   0  0  0  0  0  0  0  0  0  0  0  0
   15.5968    4.3049   -1.5946 C   0  0  0  0  0  0  0  0  0  0  0  0
   15.8275    3.8920   -2.8511 N   0  0  0  0  0  0  0  0  0  0  0  0
   15.8598    2.5642   -3.0762 C   0  0  0  0  0  0  0  0  0  0  0  0
   15.3327   -0.8573   -1.5012 C   0  0  0  0  0  0  0  0  0  0  0  0
   13.2767   -3.0094   -0.6368 C   0  0  0  0  0  0  0  0  0  0  0  0
   12.3981   -3.0674   -1.5055 O   0  0  0  0  0  0  0  0  0  0  0  0
    0.0000    0.0000    0.0000 H   0  0  0  0  0  0  0  0  0  0  0  0
    0.0000    0.0000    0.0000 H   0  0  0  0  0  0  0  0  0  0  0  0
    0.0000    0.0000    0.0000 H   0  0  0  0  0  0  0  0  0  0  0  0
    0.0000    0.0000    0.0000 H   0  0  0  0  0  0  0  0  0  0  0  0
    0.0000    0.0000    0.0000 H   0  0  0  0  0  0  0  0  0  0  0  0
    0.0000    0.0000    0.0000 H   0  0  0  0  0  0  0  0  0  0  0  0
    0.0000    0.0000    0.0000 H   0  0  0  0  0  0  0  0  0  0  0  0
    0.0000    0.0000    0.0000 H   0  0  0  0  0  0  0  0  0  0  0  0
    0.0000    0.0000    0.0000 H   0  0  0  0  0  0  0  0  0  0  0  0
    0.0000    0.0000    0.0000 H   0  0  0  0  0  0  0  0  0  0  0  0
    0.0000    0.0000    0.0000 H   0  0  0  0  0  0  0  0  0  0  0  0
    0.0000    0.0000    0.0000 H   0  0  0  0  0  0  0  0  0  0  0  0
    0.0000    0.0000    0.0000 H   0  0  0  0  0  0  0  0  0  0  0  0
    0.0000    0.0000    0.0000 H   0  0  0  0  0  0  0  0  0  0  0  0
    6.9702   -1.5319   -0.3710 N   0  0  0  0  0  0  0  0  0  0  0  0
    6.8486   -0.4069   -1.2712 C   0  0  0  0  0  0  0  0  0  0  0  0
    7.4991    0.8456   -0.7347 C   0  0  0  0  0  0  0  0  0  0  0  0
    6.8166    1.2056    0.4895 N   0  0  0  0  0  0  0  0  0  0  0  0
    6.8467    2.5488    0.9697 C   0  0  0  0  0  0  0  0  0  0  0  0
    7.5230    3.5335    0.2984 C   0  0  0  0  0  0  0  0  0  0  0  0
    7.5744    4.8472    0.7331 C   0  0  0  0  0  0  0  0  0  0  0  0
    6.9071    5.1545    1.8967 C   0  0  0  0  0  0  0  0  0  0  0  0
    6.2284    4.1561    2.5662 C   0  0  0  0  0  0  0  0  0  0  0  0
    6.2120    2.9059    2.1019 N   0  0  0  0  0  0  0  0  0  0  0  0
    6.1135    0.1534    1.1934 C   0  0  0  0  0  0  0  0  0  0  0  0
    6.7737   -1.1909    1.0004 C   0  0  0  0  0  0  0  0  0  0  0  0
    7.2397   -0.6366   -2.2831 H   0  0  0  0  0  0  0  0  0  0  0  0
    5.7678   -0.1860   -1.3955 H   0  0  0  0  0  0  0  0  0  0  0  0
    8.5497    0.6338   -0.4764 H   0  0  0  0  0  0  0  0  0  0  0  0
    7.3956    1.6151   -1.5296 H   0  0  0  0  0  0  0  0  0  0  0  0
    8.0461    3.3101   -0.6065 H   0  0  0  0  0  0  0  0  0  0  0  0
    8.1126    5.6142    0.1923 H   0  0  0  0  0  0  0  0  0  0  0  0
    6.9252    6.1842    2.2719 H   0  0  0  0  0  0  0  0  0  0  0  0
    5.7187    4.4524    3.4792 H   0  0  0  0  0  0  0  0  0  0  0  0
    5.0310    0.1286    0.9252 H   0  0  0  0  0  0  0  0  0  0  0  0
    6.1535    0.3969    2.2749 H   0  0  0  0  0  0  0  0  0  0  0  0
    7.6833   -1.2484    1.6311 H   0  0  0  0  0  0  0  0  0  0  0  0
    6.0604   -1.9479    1.4382 H   0  0  0  0  0  0  0  0  0  0  0  0
  1  2  1  0
  2  3  1  0
  2 19  1  0
  3  4  1  0
  3  5  2  0
  5  6  1  0
  6  7  1  0
  6 19  1  0
  7  8  2  0
  7 18  1  0
  8  9  1  0
  9 10  2  0
 10 11  1  0
 11 12  1  0
 11 18  2  0
 12 13  2  0
 12 17  1  0
 13 14  1  0
 14 15  2  0
 15 16  1  0
 16 17  2  0
 19 20  2  0
  1 21  1  0
  1 22  1  0
  1 23  1  0
  4 24  1  0
  4 25  1  0
  5 26  1  0
  8 27  1  0
  9 28  1  0
 10 29  1  0
 13 30  1  0
 14 31  1  0
 15 32  1  0
 17 33  1  0
 18 34  1  0
 35 36  1  0
 36 37  1  0
 37 38  1  0
 38 39  1  0
 39 40  2  0
 40 41  1  0
 41 42  2  0
 42 43  1  0
 43 44  2  0
 38 45  1  0
 45 46  1  0
 46 35  1  0
 44 39  1  0
 36 47  1  0
 36 48  1  0
 37 49  1  0
 37 50  1  0
 40 51  1  0
 41 52  1  0
 42 53  1  0
 43 54  1  0
 45 55  1  0
 45 56  1  0
 46 57  1  0
 46 58  1  0
  6 35  1  6
M  CHG  1   5   1
M  END
>  <attachment_point>  (497) 
26

>  <score>  (497) 
<NA>

$$$$
CAT-4j
     RDKit          3D

 58 61  0  0  1  0  0  0  0  0999 V2000
   11.7106   -2.3098    1.2658 C   0  0  0  0  0  0  0  0  0  0  0  0
   13.0313   -2.6523    0.7225 N   0  0  0  0  0  0  0  0  0  0  0  0
   14.2010   -2.6281    1.3773 C   0  0  0  0  0  0  0  0  0  0  0  0
   14.3777   -2.3568    2.6732 N   0  0  0  0  0  0  0  0  0  0  0  0
   15.2217   -2.9197    0.5738 N   0  0  0  0  0  0  0  0  0  0  0  0
   14.7965   -3.2519   -0.7875 C   0  0  1  0  0  0  0  0  0  0  0  0
   15.3794   -2.2443   -1.7949 C   0  0  0  0  0  0  0  0  0  0  0  0
   15.9522   -2.6550   -3.0208 C   0  0  0  0  0  0  0  0  0  0  0  0
   16.4340   -1.6937   -3.9273 C   0  0  0  0  0  0  0  0  0  0  0  0
   16.3364   -0.3224   -3.6308 C   0  0  0  0  0  0  0  0  0  0  0  0
   15.7943    0.1250   -2.4073 C   0  0  0  0  0  0  0  0  0  0  0  0
   15.6711    1.5693   -2.0915 C   0  0  0  0  0  0  0  0  0  0  0  0
   15.3832    2.0354   -0.7903 C   0  0  0  0  0  0  0  0  0  0  0  0
   15.3534    3.4188   -0.5357 C   0  0  0  0  0  0  0  0  0  0  0  0
   15.5968    4.3049   -1.5946 C   0  0  0  0  0  0  0  0  0  0  0  0
   15.8275    3.8920   -2.8511 N   0  0  0  0  0  0  0  0  0  0  0  0
   15.8598    2.5642   -3.0762 C   0  0  0  0  0  0  0  0  0  0  0  0
   15.3327   -0.8573   -1.5012 C   0  0  0  0  0  0  0  0  0  0  0  0
   13.2767   -3.0094   -0.6368 C   0  0  0  0  0  0  0  0  0  0  0  0
   12.3981   -3.0674   -1.5055 O   0  0  0  0  0  0  0  0  0  0  0  0
    0.0000    0.0000    0.0000 H   0  0  0  0  0  0  0  0  0  0  0  0
    0.0000    0.0000    0.0000 H   0  0  0  0  0  0  0  0  0  0  0  0
    0.0000    0.0000    0.0000 H   0  0  0  0  0  0  0  0  0  0  0  0
    0.0000    0.0000    0.0000 H   0  0  0  0  0  0  0  0  0  0  0  0
    0.0000    0.0000    0.0000 H   0  0  0  0  0  0  0  0  0  0  0  0
    0.0000    0.0000    0.0000 H   0  0  0  0  0  0  0  0  0  0  0  0
    0.0000    0.0000    0.0000 H   0  0  0  0  0  0  0  0  0  0  0  0
    0.0000    0.0000    0.0000 H   0  0  0  0  0  0  0  0  0  0  0  0
    0.0000    0.0000    0.0000 H   0  0  0  0  0  0  0  0  0  0  0  0
    0.0000    0.0000    0.0000 H   0  0  0  0  0  0  0  0  0  0  0  0
    0.0000    0.0000    0.0000 H   0  0  0  0  0  0  0  0  0  0  0  0
    0.0000    0.0000    0.0000 H   0  0  0  0  0  0  0  0  0  0  0  0
    0.0000    0.0000    0.0000 H   0  0  0  0  0  0  0  0  0  0  0  0
    0.0000    0.0000    0.0000 H   0  0  0  0  0  0  0  0  0  0  0  0
    7.0084   -1.5403   -0.3730 N   0  0  0  0  0  0  0  0  0  0  0  0
    6.3138   -2.4588   -1.2225 C   0  0  0  0  0  0  0  0  0  0  0  0
    4.8393   -2.1146   -1.1489 C   0  0  0  0  0  0  0  0  0  0  0  0
    4.4252   -2.5369    0.2544 C   0  0  0  0  0  0  0  0  0  0  0  0
    3.0275   -2.5646    0.3268 N   0  0  0  0  0  0  0  0  0  0  0  0
    2.3767   -3.4647   -0.5762 C   0  0  0  0  0  0  0  0  0  0  0  0
    2.2970   -1.3956    0.5174 C   0  0  0  0  0  0  0  0  0  0  0  0
    5.1630   -1.7599    1.2648 C   0  0  0  0  0  0  0  0  0  0  0  0
    6.5794   -1.4833    0.9790 C   0  0  0  0  0  0  0  0  0  0  0  0
    6.4799   -3.5014   -0.8320 H   0  0  0  0  0  0  0  0  0  0  0  0
    6.7143   -2.3705   -2.2355 H   0  0  0  0  0  0  0  0  0  0  0  0
    4.2481   -2.6127   -1.9283 H   0  0  0  0  0  0  0  0  0  0  0  0
    4.7757   -1.0056   -1.2552 H   0  0  0  0  0  0  0  0  0  0  0  0
    4.7783   -3.6098    0.3441 H   0  0  0  0  0  0  0  0  0  0  0  0
    1.4594   -3.9282   -0.1255 H   0  0  0  0  0  0  0  0  0  0  0  0
    3.1054   -4.2895   -0.8124 H   0  0  0  0  0  0  0  0  0  0  0  0
    2.0284   -2.9861   -1.5178 H   0  0  0  0  0  0  0  0  0  0  0  0
    1.5223   -1.5788    1.3185 H   0  0  0  0  0  0  0  0  0  0  0  0
    2.8193   -0.4718    0.7340 H   0  0  0  0  0  0  0  0  0  0  0  0
    1.6743   -1.1994   -0.4059 H   0  0  0  0  0  0  0  0  0  0  0  0
    5.1102   -2.3462    2.2322 H   0  0  0  0  0  0  0  0  0  0  0  0
    4.6666   -0.7830    1.5414 H   0  0  0  0  0  0  0  0  0  0  0  0
    7.2575   -2.1675    1.5735 H   0  0  0  0  0  0  0  0  0  0  0  0
    6.8886   -0.4575    1.3487 H   0  0  0  0  0  0  0  0  0  0  0  0
  1  2  1  0
  2  3  1  0
  2 19  1  0
  3  4  1  0
  3  5  2  0
  5  6  1  0
  6  7  1  0
  6 19  1  0
  7  8  2  0
  7 18  1  0
  8  9  1  0
  9 10  2  0
 10 11  1  0
 11 12  1  0
 11 18  2  0
 12 13  2  0
 12 17  1  0
 13 14  1  0
 14 15  2  0
 15 16  1  0
 16 17  2  0
 19 20  2  0
  1 21  1  0
  1 22  1  0
  1 23  1  0
  4 24  1  0
  4 25  1  0
  5 26  1  0
  8 27  1  0
  9 28  1  0
 10 29  1  0
 13 30  1  0
 14 31  1  0
 15 32  1  0
 17 33  1  0
 18 34  1  0
 35 36  1  0
 36 37  1  0
 37 38  1  0
 38 39  1  0
 39 40  1  0
 39 41  1  0
 38 42  1  0
 42 43  1  0
 43 35  1  0
 36 44  1  0
 36 45  1  0
 37 46  1  0
 37 47  1  0
 38 48  1  0
 40 49  1  0
 40 50  1  0
 40 51  1  0
 41 52  1  0
 41 53  1  0
 41 54  1  0
 42 55  1  0
 42 56  1  0
 43 57  1  0
 43 58  1  0
  6 35  1  6
M  CHG  1   5   1
M  END
>  <attachment_point>  (498) 
26

>  <score>  (498) 
<NA>

$$$$
CAT-4j
     RDKit          3D

 45 47  0  0  1  0  0  0  0  0999 V2000
   11.7106   -2.3098    1.2658 C   0  0  0  0  0  0  0  0  0  0  0  0
   13.0313   -2.6523    0.7225 N   0  0  0  0  0  0  0  0  0  0  0  0
   14.2010   -2.6281    1.3773 C   0  0  0  0  0  0  0  0  0  0  0  0
   14.3777   -2.3568    2.6732 N   0  0  0  0  0  0  0  0  0  0  0  0
   15.2217   -2.9197    0.5738 N   0  0  0  0  0  0  0  0  0  0  0  0
   14.7965   -3.2519   -0.7875 C   0  0  1  0  0  0  0  0  0  0  0  0
   15.3794   -2.2443   -1.7949 C   0  0  0  0  0  0  0  0  0  0  0  0
   15.9522   -2.6550   -3.0208 C   0  0  0  0  0  0  0  0  0  0  0  0
   16.4340   -1.6937   -3.9273 C   0  0  0  0  0  0  0  0  0  0  0  0
   16.3364   -0.3224   -3.6308 C   0  0  0  0  0  0  0  0  0  0  0  0
   15.7943    0.1250   -2.4073 C   0  0  0  0  0  0  0  0  0  0  0  0
   15.6711    1.5693   -2.0915 C   0  0  0  0  0  0  0  0  0  0  0  0
   15.3832    2.0354   -0.7903 C   0  0  0  0  0  0  0  0  0  0  0  0
   15.3534    3.4188   -0.5357 C   0  0  0  0  0  0  0  0  0  0  0  0
   15.5968    4.3049   -1.5946 C   0  0  0  0  0  0  0  0  0  0  0  0
   15.8275    3.8920   -2.8511 N   0  0  0  0  0  0  0  0  0  0  0  0
   15.8598    2.5642   -3.0762 C   0  0  0  0  0  0  0  0  0  0  0  0
   15.3327   -0.8573   -1.5012 C   0  0  0  0  0  0  0  0  0  0  0  0
   13.2767   -3.0094   -0.6368 C   0  0  0  0  0  0  0  0  0  0  0  0
   12.3981   -3.0674   -1.5055 O   0  0  0  0  0  0  0  0  0  0  0  0
    0.0000    0.0000    0.0000 H   0  0  0  0  0  0  0  0  0  0  0  0
    0.0000    0.0000    0.0000 H   0  0  0  0  0  0  0  0  0  0  0  0
    0.0000    0.0000    0.0000 H   0  0  0  0  0  0  0  0  0  0  0  0
    0.0000    0.0000    0.0000 H   0  0  0  0  0  0  0  0  0  0  0  0
    0.0000    0.0000    0.0000 H   0  0  0  0  0  0  0  0  0  0  0  0
    0.0000    0.0000    0.0000 H   0  0  0  0  0  0  0  0  0  0  0  0
    0.0000    0.0000    0.0000 H   0  0  0  0  0  0  0  0  0  0  0  0
    0.0000    0.0000    0.0000 H   0  0  0  0  0  0  0  0  0  0  0  0
    0.0000    0.0000    0.0000 H   0  0  0  0  0  0  0  0  0  0  0  0
    0.0000    0.0000    0.0000 H   0  0  0  0  0  0  0  0  0  0  0  0
    0.0000    0.0000    0.0000 H   0  0  0  0  0  0  0  0  0  0  0  0
    0.0000    0.0000    0.0000 H   0  0  0  0  0  0  0  0  0  0  0  0
    0.0000    0.0000    0.0000 H   0  0  0  0  0  0  0  0  0  0  0  0
    0.0000    0.0000    0.0000 H   0  0  0  0  0  0  0  0  0  0  0  0
    6.9055   -1.5177   -0.3675 C   0  0  0  0  0  0  0  0  0  0  0  0
    6.5687   -0.5295    0.2335 O   0  0  0  0  0  0  0  0  0  0  0  0
    6.0283   -2.4270   -1.0239 C   0  0  0  0  0  0  0  0  0  0  0  0
    6.5036   -3.4886   -1.6596 C   0  0  0  0  0  0  0  0  0  0  0  0
    7.8730   -3.6706   -1.6566 O   0  0  0  0  0  0  0  0  0  0  0  0
    5.6085   -4.4296   -2.3377 C   0  0  0  0  0  0  0  0  0  0  0  0
    6.1198   -5.4185   -2.9240 O   0  0  0  0  0  0  0  0  0  0  0  0
    4.2490   -4.2436   -2.3373 O   0  0  0  0  0  0  0  0  0  0  0  0
    4.9543   -2.2337   -0.9939 H   0  0  0  0  0  0  0  0  0  0  0  0
    8.2963   -4.5942   -1.6071 H   0  0  0  0  0  0  0  0  0  0  0  0
    3.6204   -4.7695   -2.9230 H   0  0  0  0  0  0  0  0  0  0  0  0
  1  2  1  0
  2  3  1  0
  2 19  1  0
  3  4  1  0
  3  5  2  0
  5  6  1  0
  6  7  1  0
  6 19  1  0
  7  8  2  0
  7 18  1  0
  8  9  1  0
  9 10  2  0
 10 11  1  0
 11 12  1  0
 11 18  2  0
 12 13  2  0
 12 17  1  0
 13 14  1  0
 14 15  2  0
 15 16  1  0
 16 17  2  0
 19 20  2  0
  1 21  1  0
  1 22  1  0
  1 23  1  0
  4 24  1  0
  4 25  1  0
  5 26  1  0
  8 27  1  0
  9 28  1  0
 10 29  1  0
 13 30  1  0
 14 31  1  0
 15 32  1  0
 17 33  1  0
 18 34  1  0
 35 36  2  0
 35 37  1  0
 37 38  2  3
 38 39  1  0
 38 40  1  0
 40 41  2  0
 40 42  1  0
 37 43  1  0
 39 44  1  0
 42 45  1  0
  6 35  1  6
M  CHG  1   5   1
M  END
>  <attachment_point>  (499) 
26

>  <score>  (499) 
<NA>

$$$$
CAT-4j
     RDKit          3D

 44 47  0  0  1  0  0  0  0  0999 V2000
   11.7106   -2.3098    1.2658 C   0  0  0  0  0  0  0  0  0  0  0  0
   13.0313   -2.6523    0.7225 N   0  0  0  0  0  0  0  0  0  0  0  0
   14.2010   -2.6281    1.3773 C   0  0  0  0  0  0  0  0  0  0  0  0
   14.3777   -2.3568    2.6732 N   0  0  0  0  0  0  0  0  0  0  0  0
   15.2217   -2.9197    0.5738 N   0  0  0  0  0  0  0  0  0  0  0  0
   14.7965   -3.2519   -0.7875 C   0  0  1  0  0  0  0  0  0  0  0  0
   15.3794   -2.2443   -1.7949 C   0  0  0  0  0  0  0  0  0  0  0  0
   15.9522   -2.6550   -3.0208 C   0  0  0  0  0  0  0  0  0  0  0  0
   16.4340   -1.6937   -3.9273 C   0  0  0  0  0  0  0  0  0  0  0  0
   16.3364   -0.3224   -3.6308 C   0  0  0  0  0  0  0  0  0  0  0  0
   15.7943    0.1250   -2.4073 C   0  0  0  0  0  0  0  0  0  0  0  0
   15.6711    1.5693   -2.0915 C   0  0  0  0  0  0  0  0  0  0  0  0
   15.3832    2.0354   -0.7903 C   0  0  0  0  0  0  0  0  0  0  0  0
   15.3534    3.4188   -0.5357 C   0  0  0  0  0  0  0  0  0  0  0  0
   15.5968    4.3049   -1.5946 C   0  0  0  0  0  0  0  0  0  0  0  0
   15.8275    3.8920   -2.8511 N   0  0  0  0  0  0  0  0  0  0  0  0
   15.8598    2.5642   -3.0762 C   0  0  0  0  0  0  0  0  0  0  0  0
   15.3327   -0.8573   -1.5012 C   0  0  0  0  0  0  0  0  0  0  0  0
   13.2767   -3.0094   -0.6368 C   0  0  0  0  0  0  0  0  0  0  0  0
   12.3981   -3.0674   -1.5055 O   0  0  0  0  0  0  0  0  0  0  0  0
    0.0000    0.0000    0.0000 H   0  0  0  0  0  0  0  0  0  0  0  0
    0.0000    0.0000    0.0000 H   0  0  0  0  0  0  0  0  0  0  0  0
    0.0000    0.0000    0.0000 H   0  0  0  0  0  0  0  0  0  0  0  0
    0.0000    0.0000    0.0000 H   0  0  0  0  0  0  0  0  0  0  0  0
    0.0000    0.0000    0.0000 H   0  0  0  0  0  0  0  0  0  0  0  0
    0.0000    0.0000    0.0000 H   0  0  0  0  0  0  0  0  0  0  0  0
    0.0000    0.0000    0.0000 H   0  0  0  0  0  0  0  0  0  0  0  0
    0.0000    0.0000    0.0000 H   0  0  0  0  0  0  0  0  0  0  0  0
    0.0000    0.0000    0.0000 H   0  0  0  0  0  0  0  0  0  0  0  0
    0.0000    0.0000    0.0000 H   0  0  0  0  0  0  0  0  0  0  0  0
    0.0000    0.0000    0.0000 H   0  0  0  0  0  0  0  0  0  0  0  0
    0.0000    0.0000    0.0000 H   0  0  0  0  0  0  0  0  0  0  0  0
    0.0000    0.0000    0.0000 H   0  0  0  0  0  0  0  0  0  0  0  0
    0.0000    0.0000    0.0000 H   0  0  0  0  0  0  0  0  0  0  0  0
    6.9639   -1.5305   -0.3706 C   0  0  0  0  0  0  0  0  0  0  0  0
    6.0573   -2.5755   -0.4223 C   0  0  0  0  0  0  0  0  0  0  0  0
    4.7644   -2.2318   -0.3487 N   0  0  0  0  0  0  0  0  0  0  0  0
    4.3422   -0.9581   -0.2314 C   0  0  0  0  0  0  0  0  0  0  0  0
    5.2297    0.0939   -0.1784 C   0  0  0  0  0  0  0  0  0  0  0  0
    4.8079    1.3885   -0.0594 F   0  0  0  0  0  0  0  0  0  0  0  0
    6.5709   -0.2134   -0.2508 C   0  0  0  0  0  0  0  0  0  0  0  0
    6.4151   -3.5923   -0.5168 H   0  0  0  0  0  0  0  0  0  0  0  0
    3.2786   -0.7080   -0.1735 H   0  0  0  0  0  0  0  0  0  0  0  0
    7.2994    0.6070   -0.2107 H   0  0  0  0  0  0  0  0  0  0  0  0
  1  2  1  0
  2  3  1  0
  2 19  1  0
  3  4  1  0
  3  5  2  0
  5  6  1  0
  6  7  1  1
  6 19  1  0
  7  8  2  0
  7 18  1  0
  8  9  1  0
  9 10  2  0
 10 11  1  0
 11 12  1  0
 11 18  2  0
 12 13  2  0
 12 17  1  0
 13 14  1  0
 14 15  2  0
 15 16  1  0
 16 17  2  0
 19 20  2  0
  1 21  1  0
  1 22  1  0
  1 23  1  0
  4 24  1  0
  4 25  1  0
  5 26  1  0
  8 27  1  0
  9 28  1  0
 10 29  1  0
 13 30  1  0
 14 31  1  0
 15 32  1  0
 17 33  1  0
 18 34  1  0
 35 36  2  0
 36 37  1  0
 37 38  2  0
 38 39  1  0
 39 40  1  0
 39 41  2  0
 41 35  1  0
 36 42  1  0
 38 43  1  0
 41 44  1  0
  6 35  1  0
M  CHG  1   5   1
M  END
>  <attachment_point>  (500) 
26

>  <score>  (500) 
<NA>

$$$$
CAT-4j
     RDKit          3D

 46 49  0  0  1  0  0  0  0  0999 V2000
   11.7106   -2.3098    1.2658 C   0  0  0  0  0  0  0  0  0  0  0  0
   13.0313   -2.6523    0.7225 N   0  0  0  0  0  0  0  0  0  0  0  0
   14.2010   -2.6281    1.3773 C   0  0  0  0  0  0  0  0  0  0  0  0
   14.3777   -2.3568    2.6732 N   0  0  0  0  0  0  0  0  0  0  0  0
   15.2217   -2.9197    0.5738 N   0  0  0  0  0  0  0  0  0  0  0  0
   14.7965   -3.2519   -0.7875 C   0  0  1  0  0  0  0  0  0  0  0  0
   15.3794   -2.2443   -1.7949 C   0  0  0  0  0  0  0  0  0  0  0  0
   15.9522   -2.6550   -3.0208 C   0  0  0  0  0  0  0  0  0  0  0  0
   16.4340   -1.6937   -3.9273 C   0  0  0  0  0  0  0  0  0  0  0  0
   16.3364   -0.3224   -3.6308 C   0  0  0  0  0  0  0  0  0  0  0  0
   15.7943    0.1250   -2.4073 C   0  0  0  0  0  0  0  0  0  0  0  0
   15.6711    1.5693   -2.0915 C   0  0  0  0  0  0  0  0  0  0  0  0
   15.3832    2.0354   -0.7903 C   0  0  0  0  0  0  0  0  0  0  0  0
   15.3534    3.4188   -0.5357 C   0  0  0  0  0  0  0  0  0  0  0  0
   15.5968    4.3049   -1.5946 C   0  0  0  0  0  0  0  0  0  0  0  0
   15.8275    3.8920   -2.8511 N   0  0  0  0  0  0  0  0  0  0  0  0
   15.8598    2.5642   -3.0762 C   0  0  0  0  0  0  0  0  0  0  0  0
   15.3327   -0.8573   -1.5012 C   0  0  0  0  0  0  0  0  0  0  0  0
   13.2767   -3.0094   -0.6368 C   0  0  0  0  0  0  0  0  0  0  0  0
   12.3981   -3.0674   -1.5055 O   0  0  0  0  0  0  0  0  0  0  0  0
    0.0000    0.0000    0.0000 H   0  0  0  0  0  0  0  0  0  0  0  0
    0.0000    0.0000    0.0000 H   0  0  0  0  0  0  0  0  0  0  0  0
    0.0000    0.0000    0.0000 H   0  0  0  0  0  0  0  0  0  0  0  0
    0.0000    0.0000    0.0000 H   0  0  0  0  0  0  0  0  0  0  0  0
    0.0000    0.0000    0.0000 H   0  0  0  0  0  0  0  0  0  0  0  0
    0.0000    0.0000    0.0000 H   0  0  0  0  0  0  0  0  0  0  0  0
    0.0000    0.0000    0.0000 H   0  0  0  0  0  0  0  0  0  0  0  0
    0.0000    0.0000    0.0000 H   0  0  0  0  0  0  0  0  0  0  0  0
    0.0000    0.0000    0.0000 H   0  0  0  0  0  0  0  0  0  0  0  0
    0.0000    0.0000    0.0000 H   0  0  0  0  0  0  0  0  0  0  0  0
    0.0000    0.0000    0.0000 H   0  0  0  0  0  0  0  0  0  0  0  0
    0.0000    0.0000    0.0000 H   0  0  0  0  0  0  0  0  0  0  0  0
    0.0000    0.0000    0.0000 H   0  0  0  0  0  0  0  0  0  0  0  0
    0.0000    0.0000    0.0000 H   0  0  0  0  0  0  0  0  0  0  0  0
    7.3983   -1.6259   -0.3938 C   0  0  0  0  0  0  0  0  0  0  0  0
    7.3983   -1.6259   -0.3938 C   0  0  0  0  0  0  0  0  0  0  0  0
    7.3983   -1.6259   -0.3938 C   0  0  0  0  0  0  0  0  0  0  0  0
    7.3983   -1.6259   -0.3938 N   0  0  0  0  0  0  0  0  0  0  0  0
    7.3983   -1.6259   -0.3938 C   0  0  0  0  0  0  0  0  0  0  0  0
    7.3983   -1.6259   -0.3938 C   0  0  0  0  0  0  0  0  0  0  0  0
    7.3983   -1.6259   -0.3938 F   0  0  0  0  0  0  0  0  0  0  0  0
    7.3983   -1.6259   -0.3938 F   0  0  0  0  0  0  0  0  0  0  0  0
    7.3983   -1.6259   -0.3938 F   0  0  0  0  0  0  0  0  0  0  0  0
    7.3983   -1.6259   -0.3938 N   0  0  0  0  0  0  0  0  0  0  0  0
    7.3983   -1.6259   -0.3938 H   0  0  0  0  0  0  0  0  0  0  0  0
    7.3983   -1.6259   -0.3938 H   0  0  0  0  0  0  0  0  0  0  0  0
  1  2  1  0
  2  3  1  0
  2 19  1  0
  3  4  1  0
  3  5  2  0
  5  6  1  0
  6  7  1  1
  6 19  1  0
  7  8  2  0
  7 18  1  0
  8  9  1  0
  9 10  2  0
 10 11  1  0
 11 12  1  0
 11 18  2  0
 12 13  2  0
 12 17  1  0
 13 14  1  0
 14 15  2  0
 15 16  1  0
 16 17  2  0
 19 20  2  0
  1 21  1  0
  1 22  1  0
  1 23  1  0
  4 24  1  0
  4 25  1  0
  5 26  1  0
  8 27  1  0
  9 28  1  0
 10 29  1  0
 13 30  1  0
 14 31  1  0
 15 32  1  0
 17 33  1  0
 18 34  1  0
 35 44  1  0
 35 36  2  0
 36 37  1  0
 37 38  2  0
 38 39  1  0
 39 40  1  0
 39 44  2  0
 40 41  1  0
 40 42  1  0
 40 43  1  0
 36 45  1  0
 37 46  1  0
  6 35  1  0
M  CHG  1   5   1
M  END
>  <attachment_point>  (501) 
26

>  <score>  (501) 
<NA>

$$$$
CAT-4j
     RDKit          3D

 48 52  0  0  1  0  0  0  0  0999 V2000
   11.7106   -2.3098    1.2658 C   0  0  0  0  0  0  0  0  0  0  0  0
   13.0313   -2.6523    0.7225 N   0  0  0  0  0  0  0  0  0  0  0  0
   14.2010   -2.6281    1.3773 C   0  0  0  0  0  0  0  0  0  0  0  0
   14.3777   -2.3568    2.6732 N   0  0  0  0  0  0  0  0  0  0  0  0
   15.2217   -2.9197    0.5738 N   0  0  0  0  0  0  0  0  0  0  0  0
   14.7965   -3.2519   -0.7875 C   0  0  1  0  0  0  0  0  0  0  0  0
   15.3794   -2.2443   -1.7949 C   0  0  0  0  0  0  0  0  0  0  0  0
   15.9522   -2.6550   -3.0208 C   0  0  0  0  0  0  0  0  0  0  0  0
   16.4340   -1.6937   -3.9273 C   0  0  0  0  0  0  0  0  0  0  0  0
   16.3364   -0.3224   -3.6308 C   0  0  0  0  0  0  0  0  0  0  0  0
   15.7943    0.1250   -2.4073 C   0  0  0  0  0  0  0  0  0  0  0  0
   15.6711    1.5693   -2.0915 C   0  0  0  0  0  0  0  0  0  0  0  0
   15.3832    2.0354   -0.7903 C   0  0  0  0  0  0  0  0  0  0  0  0
   15.3534    3.4188   -0.5357 C   0  0  0  0  0  0  0  0  0  0  0  0
   15.5968    4.3049   -1.5946 C   0  0  0  0  0  0  0  0  0  0  0  0
   15.8275    3.8920   -2.8511 N   0  0  0  0  0  0  0  0  0  0  0  0
   15.8598    2.5642   -3.0762 C   0  0  0  0  0  0  0  0  0  0  0  0
   15.3327   -0.8573   -1.5012 C   0  0  0  0  0  0  0  0  0  0  0  0
   13.2767   -3.0094   -0.6368 C   0  0  0  0  0  0  0  0  0  0  0  0
   12.3981   -3.0674   -1.5055 O   0  0  0  0  0  0  0  0  0  0  0  0
    0.0000    0.0000    0.0000 H   0  0  0  0  0  0  0  0  0  0  0  0
    0.0000    0.0000    0.0000 H   0  0  0  0  0  0  0  0  0  0  0  0
    0.0000    0.0000    0.0000 H   0  0  0  0  0  0  0  0  0  0  0  0
    0.0000    0.0000    0.0000 H   0  0  0  0  0  0  0  0  0  0  0  0
    0.0000    0.0000    0.0000 H   0  0  0  0  0  0  0  0  0  0  0  0
    0.0000    0.0000    0.0000 H   0  0  0  0  0  0  0  0  0  0  0  0
    0.0000    0.0000    0.0000 H   0  0  0  0  0  0  0  0  0  0  0  0
    0.0000    0.0000    0.0000 H   0  0  0  0  0  0  0  0  0  0  0  0
    0.0000    0.0000    0.0000 H   0  0  0  0  0  0  0  0  0  0  0  0
    0.0000    0.0000    0.0000 H   0  0  0  0  0  0  0  0  0  0  0  0
    0.0000    0.0000    0.0000 H   0  0  0  0  0  0  0  0  0  0  0  0
    0.0000    0.0000    0.0000 H   0  0  0  0  0  0  0  0  0  0  0  0
    0.0000    0.0000    0.0000 H   0  0  0  0  0  0  0  0  0  0  0  0
    0.0000    0.0000    0.0000 H   0  0  0  0  0  0  0  0  0  0  0  0
    7.3983   -1.6259   -0.3938 C   0  0  0  0  0  0  0  0  0  0  0  0
    7.3983   -1.6259   -0.3938 C   0  0  0  0  0  0  0  0  0  0  0  0
    7.3983   -1.6259   -0.3938 C   0  0  0  0  0  0  0  0  0  0  0  0
    7.3983   -1.6259   -0.3938 C   0  0  0  0  0  0  0  0  0  0  0  0
    7.3983   -1.6259   -0.3938 C   0  0  0  0  0  0  0  0  0  0  0  0
    7.3983   -1.6259   -0.3938 N   0  0  0  0  0  0  0  0  0  0  0  0
    7.3983   -1.6259   -0.3938 N   0  0  0  0  0  0  0  0  0  0  0  0
    7.3983   -1.6259   -0.3938 C   0  0  0  0  0  0  0  0  0  0  0  0
    7.3983   -1.6259   -0.3938 C   0  0  0  0  0  0  0  0  0  0  0  0
    7.3983   -1.6259   -0.3938 H   0  0  0  0  0  0  0  0  0  0  0  0
    7.3983   -1.6259   -0.3938 H   0  0  0  0  0  0  0  0  0  0  0  0
    7.3983   -1.6259   -0.3938 H   0  0  0  0  0  0  0  0  0  0  0  0
    7.3983   -1.6259   -0.3938 H   0  0  0  0  0  0  0  0  0  0  0  0
    7.3983   -1.6259   -0.3938 H   0  0  0  0  0  0  0  0  0  0  0  0
  1  2  1  0
  2  3  1  0
  2 19  1  0
  3  4  1  0
  3  5  2  0
  5  6  1  0
  6  7  1  1
  6 19  1  0
  7  8  2  0
  7 18  1  0
  8  9  1  0
  9 10  2  0
 10 11  1  0
 11 12  1  0
 11 18  2  0
 12 13  2  0
 12 17  1  0
 13 14  1  0
 14 15  2  0
 15 16  1  0
 16 17  2  0
 19 20  2  0
  1 21  1  0
  1 22  1  0
  1 23  1  0
  4 24  1  0
  4 25  1  0
  5 26  1  0
  8 27  1  0
  9 28  1  0
 10 29  1  0
 13 30  1  0
 14 31  1  0
 15 32  1  0
 17 33  1  0
 18 34  1  0
 35 43  1  0
 35 36  2  0
 36 37  1  0
 37 38  2  0
 38 42  1  0
 38 39  1  0
 39 40  2  0
 40 41  1  0
 41 42  1  0
 42 43  2  0
 36 44  1  0
 37 45  1  0
 39 46  1  0
 41 47  1  0
 43 48  1  0
  6 35  1  0
M  CHG  1   5   1
M  END
>  <attachment_point>  (502) 
26

>  <score>  (502) 
<NA>

$$$$
CAT-4j
     RDKit          3D

 43 46  0  0  1  0  0  0  0  0999 V2000
   11.7106   -2.3098    1.2658 C   0  0  0  0  0  0  0  0  0  0  0  0
   13.0313   -2.6523    0.7225 N   0  0  0  0  0  0  0  0  0  0  0  0
   14.2010   -2.6281    1.3773 C   0  0  0  0  0  0  0  0  0  0  0  0
   14.3777   -2.3568    2.6732 N   0  0  0  0  0  0  0  0  0  0  0  0
   15.2217   -2.9197    0.5738 N   0  0  0  0  0  0  0  0  0  0  0  0
   14.7965   -3.2519   -0.7875 C   0  0  1  0  0  0  0  0  0  0  0  0
   15.3794   -2.2443   -1.7949 C   0  0  0  0  0  0  0  0  0  0  0  0
   15.9522   -2.6550   -3.0208 C   0  0  0  0  0  0  0  0  0  0  0  0
   16.4340   -1.6937   -3.9273 C   0  0  0  0  0  0  0  0  0  0  0  0
   16.3364   -0.3224   -3.6308 C   0  0  0  0  0  0  0  0  0  0  0  0
   15.7943    0.1250   -2.4073 C   0  0  0  0  0  0  0  0  0  0  0  0
   15.6711    1.5693   -2.0915 C   0  0  0  0  0  0  0  0  0  0  0  0
   15.3832    2.0354   -0.7903 C   0  0  0  0  0  0  0  0  0  0  0  0
   15.3534    3.4188   -0.5357 C   0  0  0  0  0  0  0  0  0  0  0  0
   15.5968    4.3049   -1.5946 C   0  0  0  0  0  0  0  0  0  0  0  0
   15.8275    3.8920   -2.8511 N   0  0  0  0  0  0  0  0  0  0  0  0
   15.8598    2.5642   -3.0762 C   0  0  0  0  0  0  0  0  0  0  0  0
   15.3327   -0.8573   -1.5012 C   0  0  0  0  0  0  0  0  0  0  0  0
   13.2767   -3.0094   -0.6368 C   0  0  0  0  0  0  0  0  0  0  0  0
   12.3981   -3.0674   -1.5055 O   0  0  0  0  0  0  0  0  0  0  0  0
    0.0000    0.0000    0.0000 H   0  0  0  0  0  0  0  0  0  0  0  0
    0.0000    0.0000    0.0000 H   0  0  0  0  0  0  0  0  0  0  0  0
    0.0000    0.0000    0.0000 H   0  0  0  0  0  0  0  0  0  0  0  0
    0.0000    0.0000    0.0000 H   0  0  0  0  0  0  0  0  0  0  0  0
    0.0000    0.0000    0.0000 H   0  0  0  0  0  0  0  0  0  0  0  0
    0.0000    0.0000    0.0000 H   0  0  0  0  0  0  0  0  0  0  0  0
    0.0000    0.0000    0.0000 H   0  0  0  0  0  0  0  0  0  0  0  0
    0.0000    0.0000    0.0000 H   0  0  0  0  0  0  0  0  0  0  0  0
    0.0000    0.0000    0.0000 H   0  0  0  0  0  0  0  0  0  0  0  0
    0.0000    0.0000    0.0000 H   0  0  0  0  0  0  0  0  0  0  0  0
    0.0000    0.0000    0.0000 H   0  0  0  0  0  0  0  0  0  0  0  0
    0.0000    0.0000    0.0000 H   0  0  0  0  0  0  0  0  0  0  0  0
    0.0000    0.0000    0.0000 H   0  0  0  0  0  0  0  0  0  0  0  0
    0.0000    0.0000    0.0000 H   0  0  0  0  0  0  0  0  0  0  0  0
    7.3983   -1.6259   -0.3938 C   0  0  0  0  0  0  0  0  0  0  0  0
    7.3983   -1.6259   -0.3938 N   0  0  0  0  0  0  0  0  0  0  0  0
    7.3983   -1.6259   -0.3938 O   0  0  0  0  0  0  0  0  0  0  0  0
    7.3983   -1.6259   -0.3938 C   0  0  0  0  0  0  0  0  0  0  0  0
    7.3983   -1.6259   -0.3938 C   0  0  0  0  0  0  0  0  0  0  0  0
    7.3983   -1.6259   -0.3938 N   0  0  0  0  0  0  0  0  0  0  0  0
    7.3983   -1.6259   -0.3938 H   0  0  0  0  0  0  0  0  0  0  0  0
    7.3983   -1.6259   -0.3938 H   0  0  0  0  0  0  0  0  0  0  0  0
    7.3983   -1.6259   -0.3938 H   0  0  0  0  0  0  0  0  0  0  0  0
  1  2  1  0
  2  3  1  0
  2 19  1  0
  3  4  1  0
  3  5  2  0
  5  6  1  0
  6  7  1  1
  6 19  1  0
  7  8  2  0
  7 18  1  0
  8  9  1  0
  9 10  2  0
 10 11  1  0
 11 12  1  0
 11 18  2  0
 12 13  2  0
 12 17  1  0
 13 14  1  0
 14 15  2  0
 15 16  1  0
 16 17  2  0
 19 20  2  0
  1 21  1  0
  1 22  1  0
  1 23  1  0
  4 24  1  0
  4 25  1  0
  5 26  1  0
  8 27  1  0
  9 28  1  0
 10 29  1  0
 13 30  1  0
 14 31  1  0
 15 32  1  0
 17 33  1  0
 18 34  1  0
 35 40  1  0
 35 36  2  0
 36 37  1  0
 37 38  1  0
 38 39  1  0
 38 40  2  0
 39 41  1  0
 39 42  1  0
 39 43  1  0
  6 35  1  0
M  CHG  1   5   1
M  END
>  <attachment_point>  (503) 
26

>  <score>  (503) 
<NA>

$$$$
CAT-4j
     RDKit          3D

 43 46  0  0  1  0  0  0  0  0999 V2000
   11.7106   -2.3098    1.2658 C   0  0  0  0  0  0  0  0  0  0  0  0
   13.0313   -2.6523    0.7225 N   0  0  0  0  0  0  0  0  0  0  0  0
   14.2010   -2.6281    1.3773 C   0  0  0  0  0  0  0  0  0  0  0  0
   14.3777   -2.3568    2.6732 N   0  0  0  0  0  0  0  0  0  0  0  0
   15.2217   -2.9197    0.5738 N   0  0  0  0  0  0  0  0  0  0  0  0
   14.7965   -3.2519   -0.7875 C   0  0  1  0  0  0  0  0  0  0  0  0
   15.3794   -2.2443   -1.7949 C   0  0  0  0  0  0  0  0  0  0  0  0
   15.9522   -2.6550   -3.0208 C   0  0  0  0  0  0  0  0  0  0  0  0
   16.4340   -1.6937   -3.9273 C   0  0  0  0  0  0  0  0  0  0  0  0
   16.3364   -0.3224   -3.6308 C   0  0  0  0  0  0  0  0  0  0  0  0
   15.7943    0.1250   -2.4073 C   0  0  0  0  0  0  0  0  0  0  0  0
   15.6711    1.5693   -2.0915 C   0  0  0  0  0  0  0  0  0  0  0  0
   15.3832    2.0354   -0.7903 C   0  0  0  0  0  0  0  0  0  0  0  0
   15.3534    3.4188   -0.5357 C   0  0  0  0  0  0  0  0  0  0  0  0
   15.5968    4.3049   -1.5946 C   0  0  0  0  0  0  0  0  0  0  0  0
   15.8275    3.8920   -2.8511 N   0  0  0  0  0  0  0  0  0  0  0  0
   15.8598    2.5642   -3.0762 C   0  0  0  0  0  0  0  0  0  0  0  0
   15.3327   -0.8573   -1.5012 C   0  0  0  0  0  0  0  0  0  0  0  0
   13.2767   -3.0094   -0.6368 C   0  0  0  0  0  0  0  0  0  0  0  0
   12.3981   -3.0674   -1.5055 O   0  0  0  0  0  0  0  0  0  0  0  0
    0.0000    0.0000    0.0000 H   0  0  0  0  0  0  0  0  0  0  0  0
    0.0000    0.0000    0.0000 H   0  0  0  0  0  0  0  0  0  0  0  0
    0.0000    0.0000    0.0000 H   0  0  0  0  0  0  0  0  0  0  0  0
    0.0000    0.0000    0.0000 H   0  0  0  0  0  0  0  0  0  0  0  0
    0.0000    0.0000    0.0000 H   0  0  0  0  0  0  0  0  0  0  0  0
    0.0000    0.0000    0.0000 H   0  0  0  0  0  0  0  0  0  0  0  0
    0.0000    0.0000    0.0000 H   0  0  0  0  0  0  0  0  0  0  0  0
    0.0000    0.0000    0.0000 H   0  0  0  0  0  0  0  0  0  0  0  0
    0.0000    0.0000    0.0000 H   0  0  0  0  0  0  0  0  0  0  0  0
    0.0000    0.0000    0.0000 H   0  0  0  0  0  0  0  0  0  0  0  0
    0.0000    0.0000    0.0000 H   0  0  0  0  0  0  0  0  0  0  0  0
    0.0000    0.0000    0.0000 H   0  0  0  0  0  0  0  0  0  0  0  0
    0.0000    0.0000    0.0000 H   0  0  0  0  0  0  0  0  0  0  0  0
    0.0000    0.0000    0.0000 H   0  0  0  0  0  0  0  0  0  0  0  0
    7.3983   -1.6259   -0.3938 C   0  0  0  0  0  0  0  0  0  0  0  0
    7.3983   -1.6259   -0.3938 N   0  0  0  0  0  0  0  0  0  0  0  0
    7.3983   -1.6259   -0.3938 C   0  0  0  0  0  0  0  0  0  0  0  0
    7.3983   -1.6259   -0.3938 C   0  0  0  0  0  0  0  0  0  0  0  0
    7.3983   -1.6259   -0.3938 N   0  0  0  0  0  0  0  0  0  0  0  0
    7.3983   -1.6259   -0.3938 O   0  0  0  0  0  0  0  0  0  0  0  0
    7.3983   -1.6259   -0.3938 H   0  0  0  0  0  0  0  0  0  0  0  0
    7.3983   -1.6259   -0.3938 H   0  0  0  0  0  0  0  0  0  0  0  0
    7.3983   -1.6259   -0.3938 H   0  0  0  0  0  0  0  0  0  0  0  0
  1  2  1  0
  2  3  1  0
  2 19  1  0
  3  4  1  0
  3  5  2  0
  5  6  1  0
  6  7  1  1
  6 19  1  0
  7  8  2  0
  7 18  1  0
  8  9  1  0
  9 10  2  0
 10 11  1  0
 11 12  1  0
 11 18  2  0
 12 13  2  0
 12 17  1  0
 13 14  1  0
 14 15  2  0
 15 16  1  0
 16 17  2  0
 19 20  2  0
  1 21  1  0
  1 22  1  0
  1 23  1  0
  4 24  1  0
  4 25  1  0
  5 26  1  0
  8 27  1  0
  9 28  1  0
 10 29  1  0
 13 30  1  0
 14 31  1  0
 15 32  1  0
 17 33  1  0
 18 34  1  0
 35 40  1  0
 35 36  2  0
 36 37  1  0
 37 38  1  0
 37 39  2  0
 39 40  1  0
 38 41  1  0
 38 42  1  0
 38 43  1  0
  6 35  1  0
M  CHG  1   5   1
M  END
>  <attachment_point>  (504) 
26

>  <score>  (504) 
<NA>

$$$$
CAT-4j
     RDKit          3D

 57 61  0  0  1  0  0  0  0  0999 V2000
   11.7106   -2.3098    1.2658 C   0  0  0  0  0  0  0  0  0  0  0  0
   13.0313   -2.6523    0.7225 N   0  0  0  0  0  0  0  0  0  0  0  0
   14.2010   -2.6281    1.3773 C   0  0  0  0  0  0  0  0  0  0  0  0
   14.3777   -2.3568    2.6732 N   0  0  0  0  0  0  0  0  0  0  0  0
   15.2217   -2.9197    0.5738 N   0  0  0  0  0  0  0  0  0  0  0  0
   14.7965   -3.2519   -0.7875 C   0  0  1  0  0  0  0  0  0  0  0  0
   15.3794   -2.2443   -1.7949 C   0  0  0  0  0  0  0  0  0  0  0  0
   15.9522   -2.6550   -3.0208 C   0  0  0  0  0  0  0  0  0  0  0  0
   16.4340   -1.6937   -3.9273 C   0  0  0  0  0  0  0  0  0  0  0  0
   16.3364   -0.3224   -3.6308 C   0  0  0  0  0  0  0  0  0  0  0  0
   15.7943    0.1250   -2.4073 C   0  0  0  0  0  0  0  0  0  0  0  0
   15.6711    1.5693   -2.0915 C   0  0  0  0  0  0  0  0  0  0  0  0
   15.3832    2.0354   -0.7903 C   0  0  0  0  0  0  0  0  0  0  0  0
   15.3534    3.4188   -0.5357 C   0  0  0  0  0  0  0  0  0  0  0  0
   15.5968    4.3049   -1.5946 C   0  0  0  0  0  0  0  0  0  0  0  0
   15.8275    3.8920   -2.8511 N   0  0  0  0  0  0  0  0  0  0  0  0
   15.8598    2.5642   -3.0762 C   0  0  0  0  0  0  0  0  0  0  0  0
   15.3327   -0.8573   -1.5012 C   0  0  0  0  0  0  0  0  0  0  0  0
   13.2767   -3.0094   -0.6368 C   0  0  0  0  0  0  0  0  0  0  0  0
   12.3981   -3.0674   -1.5055 O   0  0  0  0  0  0  0  0  0  0  0  0
    0.0000    0.0000    0.0000 H   0  0  0  0  0  0  0  0  0  0  0  0
    0.0000    0.0000    0.0000 H   0  0  0  0  0  0  0  0  0  0  0  0
    0.0000    0.0000    0.0000 H   0  0  0  0  0  0  0  0  0  0  0  0
    0.0000    0.0000    0.0000 H   0  0  0  0  0  0  0  0  0  0  0  0
    0.0000    0.0000    0.0000 H   0  0  0  0  0  0  0  0  0  0  0  0
    0.0000    0.0000    0.0000 H   0  0  0  0  0  0  0  0  0  0  0  0
    0.0000    0.0000    0.0000 H   0  0  0  0  0  0  0  0  0  0  0  0
    0.0000    0.0000    0.0000 H   0  0  0  0  0  0  0  0  0  0  0  0
    0.0000    0.0000    0.0000 H   0  0  0  0  0  0  0  0  0  0  0  0
    0.0000    0.0000    0.0000 H   0  0  0  0  0  0  0  0  0  0  0  0
    0.0000    0.0000    0.0000 H   0  0  0  0  0  0  0  0  0  0  0  0
    0.0000    0.0000    0.0000 H   0  0  0  0  0  0  0  0  0  0  0  0
    0.0000    0.0000    0.0000 H   0  0  0  0  0  0  0  0  0  0  0  0
    0.0000    0.0000    0.0000 H   0  0  0  0  0  0  0  0  0  0  0  0
    7.3983   -1.6259   -0.3938 N   0  0  0  0  0  0  0  0  0  0  0  0
    7.3983   -1.6259   -0.3938 C   0  0  0  0  0  0  0  0  0  0  0  0
    7.3983   -1.6259   -0.3938 C   0  0  0  0  0  0  0  0  0  0  0  0
    7.3983   -1.6259   -0.3938 N   0  0  0  0  0  0  0  0  0  0  0  0
    7.3983   -1.6259   -0.3938 C   0  0  0  0  0  0  0  0  0  0  0  0
    7.3983   -1.6259   -0.3938 N   0  0  0  0  0  0  0  0  0  0  0  0
    7.3983   -1.6259   -0.3938 C   0  0  0  0  0  0  0  0  0  0  0  0
    7.3983   -1.6259   -0.3938 C   0  0  0  0  0  0  0  0  0  0  0  0
    7.3983   -1.6259   -0.3938 C   0  0  0  0  0  0  0  0  0  0  0  0
    7.3983   -1.6259   -0.3938 N   0  0  0  0  0  0  0  0  0  0  0  0
    7.3983   -1.6259   -0.3938 C   0  0  0  0  0  0  0  0  0  0  0  0
    7.3983   -1.6259   -0.3938 C   0  0  0  0  0  0  0  0  0  0  0  0
    7.3983   -1.6259   -0.3938 H   0  0  0  0  0  0  0  0  0  0  0  0
    7.3983   -1.6259   -0.3938 H   0  0  0  0  0  0  0  0  0  0  0  0
    7.3983   -1.6259   -0.3938 H   0  0  0  0  0  0  0  0  0  0  0  0
    7.3983   -1.6259   -0.3938 H   0  0  0  0  0  0  0  0  0  0  0  0
    7.3983   -1.6259   -0.3938 H   0  0  0  0  0  0  0  0  0  0  0  0
    7.3983   -1.6259   -0.3938 H   0  0  0  0  0  0  0  0  0  0  0  0
    7.3983   -1.6259   -0.3938 H   0  0  0  0  0  0  0  0  0  0  0  0
    7.3983   -1.6259   -0.3938 H   0  0  0  0  0  0  0  0  0  0  0  0
    7.3983   -1.6259   -0.3938 H   0  0  0  0  0  0  0  0  0  0  0  0
    7.3983   -1.6259   -0.3938 H   0  0  0  0  0  0  0  0  0  0  0  0
    7.3983   -1.6259   -0.3938 H   0  0  0  0  0  0  0  0  0  0  0  0
  1  2  1  0
  2  3  1  0
  2 19  1  0
  3  4  1  0
  3  5  2  0
  5  6  1  0
  6  7  1  0
  6 19  1  0
  7  8  2  0
  7 18  1  0
  8  9  1  0
  9 10  2  0
 10 11  1  0
 11 12  1  0
 11 18  2  0
 12 13  2  0
 12 17  1  0
 13 14  1  0
 14 15  2  0
 15 16  1  0
 16 17  2  0
 19 20  2  0
  1 21  1  0
  1 22  1  0
  1 23  1  0
  4 24  1  0
  4 25  1  0
  5 26  1  0
  8 27  1  0
  9 28  1  0
 10 29  1  0
 13 30  1  0
 14 31  1  0
 15 32  1  0
 17 33  1  0
 18 34  1  0
 35 46  1  0
 35 36  1  0
 36 37  1  0
 37 38  1  0
 38 39  1  0
 38 45  1  0
 39 44  1  0
 39 40  2  0
 40 41  1  0
 41 42  2  0
 42 43  1  0
 43 44  2  0
 45 46  1  0
 36 47  1  0
 36 48  1  0
 37 49  1  0
 37 50  1  0
 41 51  1  0
 42 52  1  0
 43 53  1  0
 45 54  1  0
 45 55  1  0
 46 56  1  0
 46 57  1  0
  6 35  1  6
M  CHG  1   5   1
M  END
>  <attachment_point>  (505) 
26

>  <score>  (505) 
<NA>

$$$$
CAT-4j
     RDKit          3D

 49 53  0  0  1  0  0  0  0  0999 V2000
   11.7106   -2.3098    1.2658 C   0  0  0  0  0  0  0  0  0  0  0  0
   13.0313   -2.6523    0.7225 N   0  0  0  0  0  0  0  0  0  0  0  0
   14.2010   -2.6281    1.3773 C   0  0  0  0  0  0  0  0  0  0  0  0
   14.3777   -2.3568    2.6732 N   0  0  0  0  0  0  0  0  0  0  0  0
   15.2217   -2.9197    0.5738 N   0  0  0  0  0  0  0  0  0  0  0  0
   14.7965   -3.2519   -0.7875 C   0  0  1  0  0  0  0  0  0  0  0  0
   15.3794   -2.2443   -1.7949 C   0  0  0  0  0  0  0  0  0  0  0  0
   15.9522   -2.6550   -3.0208 C   0  0  0  0  0  0  0  0  0  0  0  0
   16.4340   -1.6937   -3.9273 C   0  0  0  0  0  0  0  0  0  0  0  0
   16.3364   -0.3224   -3.6308 C   0  0  0  0  0  0  0  0  0  0  0  0
   15.7943    0.1250   -2.4073 C   0  0  0  0  0  0  0  0  0  0  0  0
   15.6711    1.5693   -2.0915 C   0  0  0  0  0  0  0  0  0  0  0  0
   15.3832    2.0354   -0.7903 C   0  0  0  0  0  0  0  0  0  0  0  0
   15.3534    3.4188   -0.5357 C   0  0  0  0  0  0  0  0  0  0  0  0
   15.5968    4.3049   -1.5946 C   0  0  0  0  0  0  0  0  0  0  0  0
   15.8275    3.8920   -2.8511 N   0  0  0  0  0  0  0  0  0  0  0  0
   15.8598    2.5642   -3.0762 C   0  0  0  0  0  0  0  0  0  0  0  0
   15.3327   -0.8573   -1.5012 C   0  0  0  0  0  0  0  0  0  0  0  0
   13.2767   -3.0094   -0.6368 C   0  0  0  0  0  0  0  0  0  0  0  0
   12.3981   -3.0674   -1.5055 O   0  0  0  0  0  0  0  0  0  0  0  0
    0.0000    0.0000    0.0000 H   0  0  0  0  0  0  0  0  0  0  0  0
    0.0000    0.0000    0.0000 H   0  0  0  0  0  0  0  0  0  0  0  0
    0.0000    0.0000    0.0000 H   0  0  0  0  0  0  0  0  0  0  0  0
    0.0000    0.0000    0.0000 H   0  0  0  0  0  0  0  0  0  0  0  0
    0.0000    0.0000    0.0000 H   0  0  0  0  0  0  0  0  0  0  0  0
    0.0000    0.0000    0.0000 H   0  0  0  0  0  0  0  0  0  0  0  0
    0.0000    0.0000    0.0000 H   0  0  0  0  0  0  0  0  0  0  0  0
    0.0000    0.0000    0.0000 H   0  0  0  0  0  0  0  0  0  0  0  0
    0.0000    0.0000    0.0000 H   0  0  0  0  0  0  0  0  0  0  0  0
    0.0000    0.0000    0.0000 H   0  0  0  0  0  0  0  0  0  0  0  0
    0.0000    0.0000    0.0000 H   0  0  0  0  0  0  0  0  0  0  0  0
    0.0000    0.0000    0.0000 H   0  0  0  0  0  0  0  0  0  0  0  0
    0.0000    0.0000    0.0000 H   0  0  0  0  0  0  0  0  0  0  0  0
    0.0000    0.0000    0.0000 H   0  0  0  0  0  0  0  0  0  0  0  0
    7.3983   -1.6259   -0.3938 N   0  0  0  0  0  0  0  0  0  0  0  0
    7.3983   -1.6259   -0.3938 C   0  0  0  0  0  0  0  0  0  0  0  0
    7.3983   -1.6259   -0.3938 O   0  0  0  0  0  0  0  0  0  0  0  0
    7.3983   -1.6259   -0.3938 C   0  0  0  0  0  0  0  0  0  0  0  0
    7.3983   -1.6259   -0.3938 C   0  0  0  0  0  0  0  0  0  0  0  0
    7.3983   -1.6259   -0.3938 C   0  0  0  0  0  0  0  0  0  0  0  0
    7.3983   -1.6259   -0.3938 C   0  0  0  0  0  0  0  0  0  0  0  0
    7.3983   -1.6259   -0.3938 C   0  0  0  0  0  0  0  0  0  0  0  0
    7.3983   -1.6259   -0.3938 C   0  0  0  0  0  0  0  0  0  0  0  0
    7.3983   -1.6259   -0.3938 C   0  0  0  0  0  0  0  0  0  0  0  0
    7.3983   -1.6259   -0.3938 O   0  0  0  0  0  0  0  0  0  0  0  0
    7.3983   -1.6259   -0.3938 H   0  0  0  0  0  0  0  0  0  0  0  0
    7.3983   -1.6259   -0.3938 H   0  0  0  0  0  0  0  0  0  0  0  0
    7.3983   -1.6259   -0.3938 H   0  0  0  0  0  0  0  0  0  0  0  0
    7.3983   -1.6259   -0.3938 H   0  0  0  0  0  0  0  0  0  0  0  0
  1  2  1  0
  2  3  1  0
  2 19  1  0
  3  4  1  0
  3  5  2  0
  5  6  1  0
  6  7  1  0
  6 19  1  0
  7  8  2  0
  7 18  1  0
  8  9  1  0
  9 10  2  0
 10 11  1  0
 11 12  1  0
 11 18  2  0
 12 13  2  0
 12 17  1  0
 13 14  1  0
 14 15  2  0
 15 16  1  0
 16 17  2  0
 19 20  2  0
  1 21  1  0
  1 22  1  0
  1 23  1  0
  4 24  1  0
  4 25  1  0
  5 26  1  0
  8 27  1  0
  9 28  1  0
 10 29  1  0
 13 30  1  0
 14 31  1  0
 15 32  1  0
 17 33  1  0
 18 34  1  0
 35 44  1  0
 35 36  1  0
 36 37  2  0
 36 38  1  0
 38 43  2  0
 38 39  1  0
 39 40  2  0
 40 41  1  0
 41 42  2  0
 42 43  1  0
 43 44  1  0
 44 45  2  0
 39 46  1  0
 40 47  1  0
 41 48  1  0
 42 49  1  0
  6 35  1  6
M  CHG  1   5   1
M  END
>  <attachment_point>  (506) 
26

>  <score>  (506) 
<NA>

$$$$
CAT-4j
     RDKit          3D

 53 56  0  0  1  0  0  0  0  0999 V2000
   11.7106   -2.3098    1.2658 C   0  0  0  0  0  0  0  0  0  0  0  0
   13.0313   -2.6523    0.7225 N   0  0  0  0  0  0  0  0  0  0  0  0
   14.2010   -2.6281    1.3773 C   0  0  0  0  0  0  0  0  0  0  0  0
   14.3777   -2.3568    2.6732 N   0  0  0  0  0  0  0  0  0  0  0  0
   15.2217   -2.9197    0.5738 N   0  0  0  0  0  0  0  0  0  0  0  0
   14.7965   -3.2519   -0.7875 C   0  0  1  0  0  0  0  0  0  0  0  0
   15.3794   -2.2443   -1.7949 C   0  0  0  0  0  0  0  0  0  0  0  0
   15.9522   -2.6550   -3.0208 C   0  0  0  0  0  0  0  0  0  0  0  0
   16.4340   -1.6937   -3.9273 C   0  0  0  0  0  0  0  0  0  0  0  0
   16.3364   -0.3224   -3.6308 C   0  0  0  0  0  0  0  0  0  0  0  0
   15.7943    0.1250   -2.4073 C   0  0  0  0  0  0  0  0  0  0  0  0
   15.6711    1.5693   -2.0915 C   0  0  0  0  0  0  0  0  0  0  0  0
   15.3832    2.0354   -0.7903 C   0  0  0  0  0  0  0  0  0  0  0  0
   15.3534    3.4188   -0.5357 C   0  0  0  0  0  0  0  0  0  0  0  0
   15.5968    4.3049   -1.5946 C   0  0  0  0  0  0  0  0  0  0  0  0
   15.8275    3.8920   -2.8511 N   0  0  0  0  0  0  0  0  0  0  0  0
   15.8598    2.5642   -3.0762 C   0  0  0  0  0  0  0  0  0  0  0  0
   15.3327   -0.8573   -1.5012 C   0  0  0  0  0  0  0  0  0  0  0  0
   13.2767   -3.0094   -0.6368 C   0  0  0  0  0  0  0  0  0  0  0  0
   12.3981   -3.0674   -1.5055 O   0  0  0  0  0  0  0  0  0  0  0  0
    0.0000    0.0000    0.0000 H   0  0  0  0  0  0  0  0  0  0  0  0
    0.0000    0.0000    0.0000 H   0  0  0  0  0  0  0  0  0  0  0  0
    0.0000    0.0000    0.0000 H   0  0  0  0  0  0  0  0  0  0  0  0
    0.0000    0.0000    0.0000 H   0  0  0  0  0  0  0  0  0  0  0  0
    0.0000    0.0000    0.0000 H   0  0  0  0  0  0  0  0  0  0  0  0
    0.0000    0.0000    0.0000 H   0  0  0  0  0  0  0  0  0  0  0  0
    0.0000    0.0000    0.0000 H   0  0  0  0  0  0  0  0  0  0  0  0
    0.0000    0.0000    0.0000 H   0  0  0  0  0  0  0  0  0  0  0  0
    0.0000    0.0000    0.0000 H   0  0  0  0  0  0  0  0  0  0  0  0
    0.0000    0.0000    0.0000 H   0  0  0  0  0  0  0  0  0  0  0  0
    0.0000    0.0000    0.0000 H   0  0  0  0  0  0  0  0  0  0  0  0
    0.0000    0.0000    0.0000 H   0  0  0  0  0  0  0  0  0  0  0  0
    0.0000    0.0000    0.0000 H   0  0  0  0  0  0  0  0  0  0  0  0
    0.0000    0.0000    0.0000 H   0  0  0  0  0  0  0  0  0  0  0  0
    7.3983   -1.6259   -0.3938 C   0  0  0  0  0  0  0  0  0  0  0  0
    7.3983   -1.6259   -0.3938 N   0  0  0  0  0  0  0  0  0  0  0  0
    7.3983   -1.6259   -0.3938 C   0  0  0  0  0  0  0  0  0  0  0  0
    7.3983   -1.6259   -0.3938 C   0  0  0  0  0  0  0  0  0  0  0  0
    7.3983   -1.6259   -0.3938 C   0  0  0  0  0  0  0  0  0  0  0  0
    7.3983   -1.6259   -0.3938 C   0  0  0  0  0  0  0  0  0  0  0  0
    7.3983   -1.6259   -0.3938 C   0  0  0  0  0  0  0  0  0  0  0  0
    7.3983   -1.6259   -0.3938 C   0  0  0  0  0  0  0  0  0  0  0  0
    7.3983   -1.6259   -0.3938 C   0  0  0  0  0  0  0  0  0  0  0  0
    7.3983   -1.6259   -0.3938 H   0  0  0  0  0  0  0  0  0  0  0  0
    7.3983   -1.6259   -0.3938 H   0  0  0  0  0  0  0  0  0  0  0  0
    7.3983   -1.6259   -0.3938 H   0  0  0  0  0  0  0  0  0  0  0  0
    7.3983   -1.6259   -0.3938 H   0  0  0  0  0  0  0  0  0  0  0  0
    7.3983   -1.6259   -0.3938 H   0  0  0  0  0  0  0  0  0  0  0  0
    7.3983   -1.6259   -0.3938 H   0  0  0  0  0  0  0  0  0  0  0  0
    7.3983   -1.6259   -0.3938 H   0  0  0  0  0  0  0  0  0  0  0  0
    7.3983   -1.6259   -0.3938 H   0  0  0  0  0  0  0  0  0  0  0  0
    7.3983   -1.6259   -0.3938 H   0  0  0  0  0  0  0  0  0  0  0  0
    7.3983   -1.6259   -0.3938 H   0  0  0  0  0  0  0  0  0  0  0  0
  1  2  1  0
  2  3  1  0
  2 19  1  0
  3  4  1  0
  3  5  2  0
  5  6  1  0
  6  7  1  0
  6 19  1  0
  7  8  2  0
  7 18  1  0
  8  9  1  0
  9 10  2  0
 10 11  1  0
 11 12  1  0
 11 18  2  0
 12 13  2  0
 12 17  1  0
 13 14  1  0
 14 15  2  0
 15 16  1  0
 16 17  2  0
 19 20  2  0
  1 21  1  0
  1 22  1  0
  1 23  1  0
  4 24  1  0
  4 25  1  0
  5 26  1  0
  8 27  1  0
  9 28  1  0
 10 29  1  0
 13 30  1  0
 14 31  1  0
 15 32  1  0
 17 33  1  0
 18 34  1  0
 35 36  1  0
 36 37  1  0
 36 38  1  0
 38 43  1  0
 38 39  2  0
 39 40  1  0
 40 41  2  0
 41 42  1  0
 42 43  2  0
 35 44  1  0
 35 45  1  0
 37 46  1  0
 37 47  1  0
 37 48  1  0
 39 49  1  0
 40 50  1  0
 41 51  1  0
 42 52  1  0
 43 53  1  0
  6 35  1  6
M  CHG  1   5   1
M  END
>  <attachment_point>  (507) 
26

>  <score>  (507) 
<NA>

$$$$
CAT-4j
     RDKit          3D

 45 48  0  0  1  0  0  0  0  0999 V2000
   11.7106   -2.3098    1.2658 C   0  0  0  0  0  0  0  0  0  0  0  0
   13.0313   -2.6523    0.7225 N   0  0  0  0  0  0  0  0  0  0  0  0
   14.2010   -2.6281    1.3773 C   0  0  0  0  0  0  0  0  0  0  0  0
   14.3777   -2.3568    2.6732 N   0  0  0  0  0  0  0  0  0  0  0  0
   15.2217   -2.9197    0.5738 N   0  0  0  0  0  0  0  0  0  0  0  0
   14.7965   -3.2519   -0.7875 C   0  0  1  0  0  0  0  0  0  0  0  0
   15.3794   -2.2443   -1.7949 C   0  0  0  0  0  0  0  0  0  0  0  0
   15.9522   -2.6550   -3.0208 C   0  0  0  0  0  0  0  0  0  0  0  0
   16.4340   -1.6937   -3.9273 C   0  0  0  0  0  0  0  0  0  0  0  0
   16.3364   -0.3224   -3.6308 C   0  0  0  0  0  0  0  0  0  0  0  0
   15.7943    0.1250   -2.4073 C   0  0  0  0  0  0  0  0  0  0  0  0
   15.6711    1.5693   -2.0915 C   0  0  0  0  0  0  0  0  0  0  0  0
   15.3832    2.0354   -0.7903 C   0  0  0  0  0  0  0  0  0  0  0  0
   15.3534    3.4188   -0.5357 C   0  0  0  0  0  0  0  0  0  0  0  0
   15.5968    4.3049   -1.5946 C   0  0  0  0  0  0  0  0  0  0  0  0
   15.8275    3.8920   -2.8511 N   0  0  0  0  0  0  0  0  0  0  0  0
   15.8598    2.5642   -3.0762 C   0  0  0  0  0  0  0  0  0  0  0  0
   15.3327   -0.8573   -1.5012 C   0  0  0  0  0  0  0  0  0  0  0  0
   13.2767   -3.0094   -0.6368 C   0  0  0  0  0  0  0  0  0  0  0  0
   12.3981   -3.0674   -1.5055 O   0  0  0  0  0  0  0  0  0  0  0  0
    0.0000    0.0000    0.0000 H   0  0  0  0  0  0  0  0  0  0  0  0
    0.0000    0.0000    0.0000 H   0  0  0  0  0  0  0  0  0  0  0  0
    0.0000    0.0000    0.0000 H   0  0  0  0  0  0  0  0  0  0  0  0
    0.0000    0.0000    0.0000 H   0  0  0  0  0  0  0  0  0  0  0  0
    0.0000    0.0000    0.0000 H   0  0  0  0  0  0  0  0  0  0  0  0
    0.0000    0.0000    0.0000 H   0  0  0  0  0  0  0  0  0  0  0  0
    0.0000    0.0000    0.0000 H   0  0  0  0  0  0  0  0  0  0  0  0
    0.0000    0.0000    0.0000 H   0  0  0  0  0  0  0  0  0  0  0  0
    0.0000    0.0000    0.0000 H   0  0  0  0  0  0  0  0  0  0  0  0
    0.0000    0.0000    0.0000 H   0  0  0  0  0  0  0  0  0  0  0  0
    0.0000    0.0000    0.0000 H   0  0  0  0  0  0  0  0  0  0  0  0
    0.0000    0.0000    0.0000 H   0  0  0  0  0  0  0  0  0  0  0  0
    0.0000    0.0000    0.0000 H   0  0  0  0  0  0  0  0  0  0  0  0
    0.0000    0.0000    0.0000 H   0  0  0  0  0  0  0  0  0  0  0  0
    2.6774   -0.5884   -0.1425 H   0  0  0  0  0  0  0  0  0  0  0  0
    5.9860   -3.6121   -0.3314 H   0  0  0  0  0  0  0  0  0  0  0  0
    6.9476    0.7696   -0.3570 H   0  0  0  0  0  0  0  0  0  0  0  0
    4.4214    1.3248   -0.2225 H   0  0  0  0  0  0  0  0  0  0  0  0
    3.4597   -3.0569   -0.1969 H   0  0  0  0  0  0  0  0  0  0  0  0
    6.6667   -1.4652   -0.3548 C   0  0  0  0  0  0  0  0  0  0  0  0
    5.6567   -2.5732   -0.3085 C   0  0  0  0  0  0  0  0  0  0  0  0
    4.1937   -2.2516   -0.2306 C   0  0  0  0  0  0  0  0  0  0  0  0
    3.7406   -0.8221   -0.1991 C   0  0  0  0  0  0  0  0  0  0  0  0
    4.7506    0.2859   -0.2454 C   0  0  0  0  0  0  0  0  0  0  0  0
    6.2136   -0.0356   -0.3233 C   0  0  0  0  0  0  0  0  0  0  0  0
  1  2  1  0
  2  3  1  0
  2 19  1  0
  3  4  1  0
  3  5  2  0
  5  6  1  0
  6  7  1  1
  6 19  1  0
  7  8  2  0
  7 18  1  0
  8  9  1  0
  9 10  2  0
 10 11  1  0
 11 12  1  0
 11 18  2  0
 12 13  2  0
 12 17  1  0
 13 14  1  0
 14 15  2  0
 15 16  1  0
 16 17  2  0
 19 20  2  0
  1 21  1  0
  1 22  1  0
  1 23  1  0
  4 24  1  0
  4 25  1  0
  5 26  1  0
  8 27  1  0
  9 28  1  0
 10 29  1  0
 13 30  1  0
 14 31  1  0
 15 32  1  0
 17 33  1  0
 18 34  1  0
 40 41  2  0
 36 41  1  0
 41 42  1  0
 39 42  1  0
 42 43  2  0
 35 43  1  0
 43 44  1  0
 38 44  1  0
 44 45  2  0
 37 45  1  0
 40 45  1  0
  6 40  1  0
M  CHG  1   5   1
M  END
>  <attachment_point>  (508) 
26

>  <score>  (508) 
<NA>

$$$$
