
     RDKit          3D

 47 48  0  0  0  0  0  0  0  0999 V2000
   20.3497   12.1996   29.1195 H   0  0  0  0  0  0  0  0  0  0  0  0
   20.5582   12.2893   30.0537 O   0  0  0  0  0  0  0  0  0  0  0  0
   21.9622   11.6439   29.9963 P   0  0  0  0  0  0  0  0  0  0  0  0
   21.8791   10.4436   29.1654 O   0  0  0  0  0  0  0  0  0  0  0  0
   22.8440   12.5141   29.1058 O   0  0  0  0  0  0  0  0  0  0  0  0
   22.6015   12.0299   28.3007 H   0  0  0  0  0  0  0  0  0  0  0  0
   22.5276   11.4355   31.5621 C   0  0  0  0  0  0  0  0  0  0  0  0
   22.3967   12.3428   32.1417 H   0  0  0  0  0  0  0  0  0  0  0  0
   23.5497   11.0746   31.5765 H   0  0  0  0  0  0  0  0  0  0  0  0
   21.5691   10.3986   31.8432 C   0  0  0  0  0  0  0  0  0  0  0  0
   21.8903    9.2231   31.3458 N   0  0  0  0  0  0  0  0  0  0  0  0
   21.0608    8.2242   31.5555 C   0  0  0  0  0  0  0  0  0  0  0  0
   21.5349    7.0782   31.0220 N   0  0  0  0  0  0  0  0  0  0  0  0
   22.4257    7.1529   30.5554 H   0  0  0  0  0  0  0  0  0  0  0  0
   20.9209    5.8611   31.1006 C   0  0  0  0  0  0  0  0  0  0  0  0
   19.8570    5.7626   31.6865 O   0  0  0  0  0  0  0  0  0  0  0  0
   21.5260    4.6510   30.3931 C   0  0  0  0  0  0  0  0  0  0  0  0
   21.5897    4.8553   29.3229 H   0  0  0  0  0  0  0  0  0  0  0  0
   20.8904    3.7708   30.5260 H   0  0  0  0  0  0  0  0  0  0  0  0
   22.9028    4.3579   30.9263 C   0  0  0  0  0  0  0  0  0  0  0  0
   23.1016    3.2140   31.7101 C   0  0  0  0  0  0  0  0  0  0  0  0
   22.2739    2.5385   31.9076 H   0  0  0  0  0  0  0  0  0  0  0  0
   24.3622    2.9111   32.2557 C   0  0  0  0  0  0  0  0  0  0  0  0
   24.5901    1.7866   33.0171 O   0  0  0  0  0  0  0  0  0  0  0  0
   23.5282    0.8209   33.0489 C   0  0  0  0  0  0  0  0  0  0  0  0
   23.2961    0.4646   32.0393 H   0  0  0  0  0  0  0  0  0  0  0  0
   23.8242   -0.0394   33.6577 H   0  0  0  0  0  0  0  0  0  0  0  0
   22.6237    1.2628   33.4796 H   0  0  0  0  0  0  0  0  0  0  0  0
   25.4292    3.7918   32.0130 C   0  0  0  0  0  0  0  0  0  0  0  0
   27.1621    3.4630   32.7659 Br  0  0  0  0  0  0  0  0  0  0  0  0
   25.2336    4.9299   31.2205 C   0  0  0  0  0  0  0  0  0  0  0  0
   26.0653    5.5990   31.0289 H   0  0  0  0  0  0  0  0  0  0  0  0
   23.9784    5.2279   30.6675 C   0  0  0  0  0  0  0  0  0  0  0  0
   23.7511    6.3563   29.9111 O   0  0  0  0  0  0  0  0  0  0  0  0
   24.8895    7.1730   29.6054 C   0  0  0  0  0  0  0  0  0  0  0  0
   25.3379    7.5792   30.5170 H   0  0  0  0  0  0  0  0  0  0  0  0
   25.6469    6.5878   29.0752 H   0  0  0  0  0  0  0  0  0  0  0  0
   24.5802    8.0091   28.9701 H   0  0  0  0  0  0  0  0  0  0  0  0
   19.8847    8.3477   32.2520 C   0  0  0  0  0  0  0  0  0  0  0  0
   19.2323    7.5154   32.4547 H   0  0  0  0  0  0  0  0  0  0  0  0
   19.5499    9.5904   32.6858 C   0  0  0  0  0  0  0  0  0  0  0  0
   18.3815    9.7248   33.3499 N   0  0  0  0  0  0  0  0  0  0  0  0
   18.2342   10.6303   33.7856 H   0  0  0  0  0  0  0  0  0  0  0  0
   18.0451    8.8957   33.8356 H   0  0  0  0  0  0  0  0  0  0  0  0
   20.3899   10.6538   32.5009 C   0  0  0  0  0  0  0  0  0  0  0  0
   20.1042   11.9499   33.0197 C   0  0  0  0  0  0  0  0  0  0  0  0
   19.9060   13.0062   33.4658 N   0  0  0  0  0  0  0  0  0  0  0  0
  1  2  1  0
  2  3  1  0
  3  4  2  0
  3  5  1  0
  5  6  1  0
  3  7  1  0
  7  8  1  0
  7  9  1  0
  7 10  1  0
 10 11  2  0
 11 12  1  0
 12 13  1  0
 13 14  1  0
 13 15  1  0
 15 16  2  0
 15 17  1  0
 17 18  1  0
 17 19  1  0
 17 20  1  0
 20 21  2  0
 21 22  1  0
 21 23  1  0
 23 24  1  0
 24 25  1  0
 25 26  1  0
 25 27  1  0
 25 28  1  0
 23 29  2  0
 29 30  1  0
 29 31  1  0
 31 32  1  0
 31 33  2  0
 33 34  1  0
 34 35  1  0
 35 36  1  0
 35 37  1  0
 35 38  1  0
 12 39  2  0
 39 40  1  0
 39 41  1  0
 41 42  1  0
 42 43  1  0
 42 44  1  0
 41 45  2  0
 45 46  1  0
 46 47  3  0
 45 10  1  0
 33 20  1  0
M  END
>  <score>  (1) 
6.37624

$$$$

     RDKit          3D

 54 55  0  0  0  0  0  0  0  0999 V2000
   22.7887   12.0120   27.4779 H   0  0  0  0  0  0  0  0  0  0  0  0
   22.2259   11.4271   28.0560 O   0  0  0  0  0  0  0  0  0  0  0  0
   23.3875   11.4252   28.9986 P   0  0  0  0  0  0  0  0  0  0  0  0
   24.6303   10.6693   28.7750 O   0  0  0  0  0  0  0  0  0  0  0  0
   23.1942   12.6499   28.0781 O   0  0  0  0  0  0  0  0  0  0  0  0
   22.2444   12.3764   27.9776 H   0  0  0  0  0  0  0  0  0  0  0  0
   23.1063   11.2709   30.7868 C   0  0  0  0  0  0  0  0  0  0  0  0
   23.7673   10.4891   31.1411 H   0  0  0  0  0  0  0  0  0  0  0  0
   21.7378   11.1819   31.6059 N   0  0  0  0  0  0  0  0  0  0  0  0
   21.3692   11.9733   32.1414 H   0  0  0  0  0  0  0  0  0  0  0  0
   21.0350   10.0326   31.9677 C   0  0  0  0  0  0  0  0  0  0  0  0
   21.4410    8.8887   31.4630 N   0  0  0  0  0  0  0  0  0  0  0  0
   20.7646    7.8314   31.8055 C   0  0  0  0  0  0  0  0  0  0  0  0
   21.3169    6.7602   31.2263 N   0  0  0  0  0  0  0  0  0  0  0  0
   22.1692    6.9454   30.7193 H   0  0  0  0  0  0  0  0  0  0  0  0
   20.7451    5.5285   31.1530 C   0  0  0  0  0  0  0  0  0  0  0  0
   19.6412    5.3346   31.6368 O   0  0  0  0  0  0  0  0  0  0  0  0
   21.4588    4.4380   30.3680 C   0  0  0  0  0  0  0  0  0  0  0  0
   20.8784    3.5143   30.4281 H   0  0  0  0  0  0  0  0  0  0  0  0
   21.5059    4.7379   29.3196 H   0  0  0  0  0  0  0  0  0  0  0  0
   22.8575    4.2170   30.9005 C   0  0  0  0  0  0  0  0  0  0  0  0
   23.1012    3.0870   31.6907 C   0  0  0  0  0  0  0  0  0  0  0  0
   22.2997    2.3801   31.8830 H   0  0  0  0  0  0  0  0  0  0  0  0
   24.3650    2.8431   32.2515 C   0  0  0  0  0  0  0  0  0  0  0  0
   24.6180    1.7402   33.0353 O   0  0  0  0  0  0  0  0  0  0  0  0
   23.5764    0.7543   33.0985 C   0  0  0  0  0  0  0  0  0  0  0  0
   23.8978   -0.0884   33.7178 H   0  0  0  0  0  0  0  0  0  0  0  0
   22.6689    1.1811   33.5373 H   0  0  0  0  0  0  0  0  0  0  0  0
   23.3421    0.3798   32.0963 H   0  0  0  0  0  0  0  0  0  0  0  0
   25.3976    3.7630   32.0060 C   0  0  0  0  0  0  0  0  0  0  0  0
   27.1426    3.5082   32.7518 Br  0  0  0  0  0  0  0  0  0  0  0  0
   25.1615    4.8866   31.2057 C   0  0  0  0  0  0  0  0  0  0  0  0
   25.9683    5.5846   31.0130 H   0  0  0  0  0  0  0  0  0  0  0  0
   23.8985    5.1349   30.6465 C   0  0  0  0  0  0  0  0  0  0  0  0
   23.6449    6.2507   29.8764 O   0  0  0  0  0  0  0  0  0  0  0  0
   24.7666    7.1015   29.5859 C   0  0  0  0  0  0  0  0  0  0  0  0
   25.5482    6.5463   29.0572 H   0  0  0  0  0  0  0  0  0  0  0  0
   24.4492    7.9361   28.9533 H   0  0  0  0  0  0  0  0  0  0  0  0
   25.1924    7.5082   30.5085 H   0  0  0  0  0  0  0  0  0  0  0  0
   19.6847    7.8297   32.6396 C   0  0  0  0  0  0  0  0  0  0  0  0
   19.1664    6.9242   32.9006 H   0  0  0  0  0  0  0  0  0  0  0  0
   19.3065    9.0275   33.1451 C   0  0  0  0  0  0  0  0  0  0  0  0
   18.2494    9.0549   33.9702 N   0  0  0  0  0  0  0  0  0  0  0  0
   17.7757    9.9494   34.0504 H   0  0  0  0  0  0  0  0  0  0  0  0
   17.7002    8.1979   34.0150 H   0  0  0  0  0  0  0  0  0  0  0  0
   19.9732   10.1666   32.8201 C   0  0  0  0  0  0  0  0  0  0  0  0
   19.6181   11.4442   33.3370 C   0  0  0  0  0  0  0  0  0  0  0  0
   19.4004   12.5264   33.6962 N   0  0  0  0  0  0  0  0  0  0  0  0
   24.2200   12.6706   30.4174 P   0  0  0  0  0  0  0  0  0  0  0  0
   23.3832   13.8445   30.1731 O   0  0  0  0  0  0  0  0  0  0  0  0
   25.5295   12.6781   29.5901 O   0  0  0  0  0  0  0  0  0  0  0  0
   25.9630   12.2425   30.3592 H   0  0  0  0  0  0  0  0  0  0  0  0
   25.5509   12.6481   31.1258 O   0  0  0  0  0  0  0  0  0  0  0  0
   25.9291   13.1102   30.3341 H   0  0  0  0  0  0  0  0  0  0  0  0
  1  2  1  0
  2  3  1  0
  3  4  2  0
  3  5  1  0
  5  6  1  0
  3  7  1  0
  7  8  1  0
  7  9  1  0
  9 10  1  0
  9 11  1  0
 11 12  2  0
 12 13  1  0
 13 14  1  0
 14 15  1  0
 14 16  1  0
 16 17  2  0
 16 18  1  0
 18 19  1  0
 18 20  1  0
 18 21  1  0
 21 22  2  0
 22 23  1  0
 22 24  1  0
 24 25  1  0
 25 26  1  0
 26 27  1  0
 26 28  1  0
 26 29  1  0
 24 30  2  0
 30 31  1  0
 30 32  1  0
 32 33  1  0
 32 34  2  0
 34 35  1  0
 35 36  1  0
 36 37  1  0
 36 38  1  0
 36 39  1  0
 13 40  2  0
 40 41  1  0
 40 42  1  0
 42 43  1  0
 43 44  1  0
 43 45  1  0
 42 46  2  0
 46 47  1  0
 47 48  3  0
  7 49  1  0
 49 50  2  0
 49 51  1  0
 51 52  1  0
 49 53  1  0
 53 54  1  0
 46 11  1  0
 34 21  1  0
M  END
>  <score>  (2) 
6.50676

$$$$

     RDKit          3D

 47 48  0  0  0  0  0  0  0  0999 V2000
   22.6112   12.3036   27.7945 H   0  0  0  0  0  0  0  0  0  0  0  0
   23.1207   12.2643   28.6158 O   0  0  0  0  0  0  0  0  0  0  0  0
   22.0295   11.6296   29.5695 P   0  0  0  0  0  0  0  0  0  0  0  0
   20.8159   12.4307   29.3449 O   0  0  0  0  0  0  0  0  0  0  0  0
   21.7204   10.2585   28.8557 O   0  0  0  0  0  0  0  0  0  0  0  0
   21.4190   10.6083   28.0071 H   0  0  0  0  0  0  0  0  0  0  0  0
   22.4869   11.5398   31.3436 C   0  0  0  0  0  0  0  0  0  0  0  0
   22.2418   12.6980   32.0446 F   0  0  0  0  0  0  0  0  0  0  0  0
   23.8111   11.2374   31.5408 F   0  0  0  0  0  0  0  0  0  0  0  0
   21.5554   10.4070   31.6846 C   0  0  0  0  0  0  0  0  0  0  0  0
   21.8163    9.2282   31.1061 N   0  0  0  0  0  0  0  0  0  0  0  0
   21.0487    8.1818   31.3739 C   0  0  0  0  0  0  0  0  0  0  0  0
   21.4796    7.0414   30.7796 N   0  0  0  0  0  0  0  0  0  0  0  0
   22.3650    7.1082   30.2994 H   0  0  0  0  0  0  0  0  0  0  0  0
   20.8986    5.8110   30.9183 C   0  0  0  0  0  0  0  0  0  0  0  0
   19.8437    5.6865   31.5191 O   0  0  0  0  0  0  0  0  0  0  0  0
   21.5612    4.5938   30.2822 C   0  0  0  0  0  0  0  0  0  0  0  0
   20.9267    3.7154   30.4275 H   0  0  0  0  0  0  0  0  0  0  0  0
   21.6462    4.7576   29.2055 H   0  0  0  0  0  0  0  0  0  0  0  0
   22.9311    4.3450   30.8760 C   0  0  0  0  0  0  0  0  0  0  0  0
   23.1276    3.2043   31.6673 C   0  0  0  0  0  0  0  0  0  0  0  0
   22.3036    2.5208   31.8480 H   0  0  0  0  0  0  0  0  0  0  0  0
   24.3749    2.9162   32.2437 C   0  0  0  0  0  0  0  0  0  0  0  0
   24.5772    1.8030   33.0284 O   0  0  0  0  0  0  0  0  0  0  0  0
   23.5215    0.8290   33.0451 C   0  0  0  0  0  0  0  0  0  0  0  0
   23.3051    0.4767   32.0316 H   0  0  0  0  0  0  0  0  0  0  0  0
   23.8183   -0.0319   33.6515 H   0  0  0  0  0  0  0  0  0  0  0  0
   22.6088    1.2553   33.4723 H   0  0  0  0  0  0  0  0  0  0  0  0
   25.4388    3.8071   32.0226 C   0  0  0  0  0  0  0  0  0  0  0  0
   27.1743    3.4906   32.7704 Br  0  0  0  0  0  0  0  0  0  0  0  0
   25.2458    4.9438   31.2291 C   0  0  0  0  0  0  0  0  0  0  0  0
   26.0705    5.6280   31.0700 H   0  0  0  0  0  0  0  0  0  0  0  0
   24.0014    5.2301   30.6458 C   0  0  0  0  0  0  0  0  0  0  0  0
   23.7823    6.3531   29.8778 O   0  0  0  0  0  0  0  0  0  0  0  0
   24.9278    7.1728   29.6168 C   0  0  0  0  0  0  0  0  0  0  0  0
   24.6407    8.0178   28.9869 H   0  0  0  0  0  0  0  0  0  0  0  0
   25.3478    7.5621   30.5481 H   0  0  0  0  0  0  0  0  0  0  0  0
   25.7004    6.5960   29.1007 H   0  0  0  0  0  0  0  0  0  0  0  0
   19.9684    8.2434   32.2115 C   0  0  0  0  0  0  0  0  0  0  0  0
   19.3757    7.3731   32.4323 H   0  0  0  0  0  0  0  0  0  0  0  0
   19.6630    9.4419   32.7708 C   0  0  0  0  0  0  0  0  0  0  0  0
   18.5542    9.4640   33.5508 N   0  0  0  0  0  0  0  0  0  0  0  0
   18.0044    8.6072   33.5672 H   0  0  0  0  0  0  0  0  0  0  0  0
   18.0675   10.3555   33.6448 H   0  0  0  0  0  0  0  0  0  0  0  0
   20.4405   10.5549   32.5163 C   0  0  0  0  0  0  0  0  0  0  0  0
   20.1051   11.8129   33.0963 C   0  0  0  0  0  0  0  0  0  0  0  0
   19.8479   12.8441   33.5690 N   0  0  0  0  0  0  0  0  0  0  0  0
  1  2  1  0
  2  3  1  0
  3  4  2  0
  3  5  1  0
  5  6  1  0
  3  7  1  0
  7  8  1  0
  7  9  1  0
  7 10  1  0
 10 11  2  0
 11 12  1  0
 12 13  1  0
 13 14  1  0
 13 15  1  0
 15 16  2  0
 15 17  1  0
 17 18  1  0
 17 19  1  0
 17 20  1  0
 20 21  2  0
 21 22  1  0
 21 23  1  0
 23 24  1  0
 24 25  1  0
 25 26  1  0
 25 27  1  0
 25 28  1  0
 23 29  2  0
 29 30  1  0
 29 31  1  0
 31 32  1  0
 31 33  2  0
 33 34  1  0
 34 35  1  0
 35 36  1  0
 35 37  1  0
 35 38  1  0
 12 39  2  0
 39 40  1  0
 39 41  1  0
 41 42  1  0
 42 43  1  0
 42 44  1  0
 41 45  2  0
 45 46  1  0
 46 47  3  0
 45 10  1  0
 33 20  1  0
M  END
>  <score>  (3) 
6.57839

$$$$

     RDKit          3D

 44 45  0  0  0  0  0  0  0  0999 V2000
   22.5926   11.8784   28.9377 H   0  0  0  0  0  0  0  0  0  0  0  0
   23.2467   11.9342   29.6800 O   0  0  0  0  0  0  0  0  0  0  0  0
   22.0705   11.8275   30.7014 P   0  0  0  0  0  0  0  0  0  0  0  0
   22.1039   12.8375   31.7824 O   0  0  0  0  0  0  0  0  0  0  0  0
   21.7835   12.2936   29.2463 O   0  0  0  0  0  0  0  0  0  0  0  0
   22.7207   12.6255   29.2423 H   0  0  0  0  0  0  0  0  0  0  0  0
   21.2420   10.1878   31.5178 C   0  0  0  0  0  0  0  0  0  0  0  0
   21.6524    8.9045   31.2486 N   0  0  0  0  0  0  0  0  0  0  0  0
   21.0275    7.8426   31.7532 C   0  0  0  0  0  0  0  0  0  0  0  0
   21.5851    6.6840   31.3492 N   0  0  0  0  0  0  0  0  0  0  0  0
   22.4326    6.7869   30.8095 H   0  0  0  0  0  0  0  0  0  0  0  0
   20.8718    5.5341   31.1837 C   0  0  0  0  0  0  0  0  0  0  0  0
   19.7125    5.4570   31.5586 O   0  0  0  0  0  0  0  0  0  0  0  0
   21.5147    4.4127   30.3881 C   0  0  0  0  0  0  0  0  0  0  0  0
   20.9109    3.5049   30.4643 H   0  0  0  0  0  0  0  0  0  0  0  0
   21.5468    4.7092   29.3394 H   0  0  0  0  0  0  0  0  0  0  0  0
   22.9162    4.1721   30.8960 C   0  0  0  0  0  0  0  0  0  0  0  0
   23.1566    3.0457   31.6857 C   0  0  0  0  0  0  0  0  0  0  0  0
   22.3502    2.3473   31.8853 H   0  0  0  0  0  0  0  0  0  0  0  0
   24.4222    2.7965   32.2396 C   0  0  0  0  0  0  0  0  0  0  0  0
   24.6693    1.6914   33.0204 O   0  0  0  0  0  0  0  0  0  0  0  0
   23.6033    0.7344   33.0955 C   0  0  0  0  0  0  0  0  0  0  0  0
   23.3559    0.3608   32.0966 H   0  0  0  0  0  0  0  0  0  0  0  0
   23.8986   -0.1123   33.7206 H   0  0  0  0  0  0  0  0  0  0  0  0
   22.7100    1.1934   33.5301 H   0  0  0  0  0  0  0  0  0  0  0  0
   25.4574    3.7135   31.9959 C   0  0  0  0  0  0  0  0  0  0  0  0
   27.2003    3.4654   32.7516 Br  0  0  0  0  0  0  0  0  0  0  0  0
   25.2219    4.8373   31.1974 C   0  0  0  0  0  0  0  0  0  0  0  0
   26.0271    5.5386   31.0080 H   0  0  0  0  0  0  0  0  0  0  0  0
   23.9576    5.0880   30.6429 C   0  0  0  0  0  0  0  0  0  0  0  0
   23.7032    6.2122   29.8875 O   0  0  0  0  0  0  0  0  0  0  0  0
   24.8287    7.0639   29.6251 C   0  0  0  0  0  0  0  0  0  0  0  0
   25.2373    7.4617   30.5598 H   0  0  0  0  0  0  0  0  0  0  0  0
   24.5237    7.9035   28.9946 H   0  0  0  0  0  0  0  0  0  0  0  0
   25.6171    6.5081   29.1071 H   0  0  0  0  0  0  0  0  0  0  0  0
   19.9311    7.9300   32.5607 C   0  0  0  0  0  0  0  0  0  0  0  0
   19.4236    7.0559   32.9387 H   0  0  0  0  0  0  0  0  0  0  0  0
   19.5123    9.1789   32.8929 C   0  0  0  0  0  0  0  0  0  0  0  0
   18.4405    9.2557   33.7238 N   0  0  0  0  0  0  0  0  0  0  0  0
   18.0427    8.3928   34.0876 H   0  0  0  0  0  0  0  0  0  0  0  0
   18.2568   10.1439   34.1845 H   0  0  0  0  0  0  0  0  0  0  0  0
   20.1499   10.3171   32.4110 C   0  0  0  0  0  0  0  0  0  0  0  0
   19.6641   11.5870   32.8511 C   0  0  0  0  0  0  0  0  0  0  0  0
   19.2627   12.6122   33.2297 N   0  0  0  0  0  0  0  0  0  0  0  0
  1  2  1  0
  2  3  1  0
  3  4  2  0
  3  5  1  0
  5  6  1  0
  3  7  1  0
  7  8  2  0
  8  9  1  0
  9 10  1  0
 10 11  1  0
 10 12  1  0
 12 13  2  0
 12 14  1  0
 14 15  1  0
 14 16  1  0
 14 17  1  0
 17 18  2  0
 18 19  1  0
 18 20  1  0
 20 21  1  0
 21 22  1  0
 22 23  1  0
 22 24  1  0
 22 25  1  0
 20 26  2  0
 26 27  1  0
 26 28  1  0
 28 29  1  0
 28 30  2  0
 30 31  1  0
 31 32  1  0
 32 33  1  0
 32 34  1  0
 32 35  1  0
  9 36  2  0
 36 37  1  0
 36 38  1  0
 38 39  1  0
 39 40  1  0
 39 41  1  0
 38 42  2  0
 42 43  1  0
 43 44  3  0
 42  7  1  0
 30 17  1  0
M  END
>  <score>  (4) 
6.65859

$$$$

     RDKit          3D

 45 46  0  0  0  0  0  0  0  0999 V2000
   21.4651   11.7873   28.1581 H   0  0  0  0  0  0  0  0  0  0  0  0
   21.8208   11.2126   28.8511 O   0  0  0  0  0  0  0  0  0  0  0  0
   21.6572   11.8962   29.9939 C   0  0  0  0  0  0  0  0  0  0  0  0
   21.0783   12.9612   30.0654 O   0  0  0  0  0  0  0  0  0  0  0  0
   22.2680   11.3372   31.2312 C   0  0  0  0  0  0  0  0  0  0  0  0
   23.2629   10.9431   31.0238 H   0  0  0  0  0  0  0  0  0  0  0  0
   22.3304   12.1048   31.9984 H   0  0  0  0  0  0  0  0  0  0  0  0
   21.3664   10.2526   31.6349 C   0  0  0  0  0  0  0  0  0  0  0  0
   21.7310    9.0332   31.2695 N   0  0  0  0  0  0  0  0  0  0  0  0
   21.0065    8.0080   31.6776 C   0  0  0  0  0  0  0  0  0  0  0  0
   21.5983    6.8419   31.3398 N   0  0  0  0  0  0  0  0  0  0  0  0
   22.4879    6.9519   30.8740 H   0  0  0  0  0  0  0  0  0  0  0  0
   20.9246    5.6690   31.1324 C   0  0  0  0  0  0  0  0  0  0  0  0
   19.7356    5.5964   31.3888 O   0  0  0  0  0  0  0  0  0  0  0  0
   21.6112    4.5581   30.3479 C   0  0  0  0  0  0  0  0  0  0  0  0
   21.7021    4.8952   29.3131 H   0  0  0  0  0  0  0  0  0  0  0  0
   20.9891    3.6576   30.3561 H   0  0  0  0  0  0  0  0  0  0  0  0
   22.9898    4.2554   30.8914 C   0  0  0  0  0  0  0  0  0  0  0  0
   23.1757    3.1469   31.7332 C   0  0  0  0  0  0  0  0  0  0  0  0
   22.3402    2.5008   31.9817 H   0  0  0  0  0  0  0  0  0  0  0  0
   24.4384    2.8477   32.2716 C   0  0  0  0  0  0  0  0  0  0  0  0
   24.6657    1.7852   33.1165 O   0  0  0  0  0  0  0  0  0  0  0  0
   23.6856    0.7382   33.1364 C   0  0  0  0  0  0  0  0  0  0  0  0
   24.0597   -0.0948   33.7394 H   0  0  0  0  0  0  0  0  0  0  0  0
   23.4925    0.3675   32.1241 H   0  0  0  0  0  0  0  0  0  0  0  0
   22.7470    1.0860   33.5788 H   0  0  0  0  0  0  0  0  0  0  0  0
   25.5217    3.6789   31.9448 C   0  0  0  0  0  0  0  0  0  0  0  0
   27.2707    3.3172   32.6355 Br  0  0  0  0  0  0  0  0  0  0  0  0
   25.3391    4.7831   31.1020 C   0  0  0  0  0  0  0  0  0  0  0  0
   26.1820    5.4157   30.8447 H   0  0  0  0  0  0  0  0  0  0  0  0
   24.0781    5.0921   30.5718 C   0  0  0  0  0  0  0  0  0  0  0  0
   23.8555    6.1809   29.7551 O   0  0  0  0  0  0  0  0  0  0  0  0
   24.9322    7.1154   29.5891 C   0  0  0  0  0  0  0  0  0  0  0  0
   25.2652    7.4981   30.5597 H   0  0  0  0  0  0  0  0  0  0  0  0
   24.5898    7.9621   28.9873 H   0  0  0  0  0  0  0  0  0  0  0  0
   25.7801    6.6514   29.0742 H   0  0  0  0  0  0  0  0  0  0  0  0
   19.8677    8.1378   32.4269 C   0  0  0  0  0  0  0  0  0  0  0  0
   19.2962    7.2858   32.7627 H   0  0  0  0  0  0  0  0  0  0  0  0
   19.5246    9.3974   32.8127 C   0  0  0  0  0  0  0  0  0  0  0  0
   18.4787    9.5030   33.6625 N   0  0  0  0  0  0  0  0  0  0  0  0
   18.1486   10.4251   33.9254 H   0  0  0  0  0  0  0  0  0  0  0  0
   17.9350    8.6703   33.8819 H   0  0  0  0  0  0  0  0  0  0  0  0
   20.2565   10.4951   32.4200 C   0  0  0  0  0  0  0  0  0  0  0  0
   19.9373   11.8167   32.8563 C   0  0  0  0  0  0  0  0  0  0  0  0
   19.7034   12.8961   33.2192 N   0  0  0  0  0  0  0  0  0  0  0  0
  1  2  1  0
  2  3  1  0
  3  4  2  0
  3  5  1  0
  5  6  1  0
  5  7  1  0
  5  8  1  0
  8  9  2  0
  9 10  1  0
 10 11  1  0
 11 12  1  0
 11 13  1  0
 13 14  2  0
 13 15  1  0
 15 16  1  0
 15 17  1  0
 15 18  1  0
 18 19  2  0
 19 20  1  0
 19 21  1  0
 21 22  1  0
 22 23  1  0
 23 24  1  0
 23 25  1  0
 23 26  1  0
 21 27  2  0
 27 28  1  0
 27 29  1  0
 29 30  1  0
 29 31  2  0
 31 32  1  0
 32 33  1  0
 33 34  1  0
 33 35  1  0
 33 36  1  0
 10 37  2  0
 37 38  1  0
 37 39  1  0
 39 40  1  0
 40 41  1  0
 40 42  1  0
 39 43  2  0
 43 44  1  0
 44 45  3  0
 43  8  1  0
 31 18  1  0
M  END
>  <score>  (5) 
6.73318

$$$$

     RDKit          3D

 40 41  0  0  0  0  0  0  0  0999 V2000
   22.7765   10.6933   30.8126 H   0  0  0  0  0  0  0  0  0  0  0  0
   22.1477   11.2044   31.3394 O   0  0  0  0  0  0  0  0  0  0  0  0
   21.3347   10.2413   31.7473 C   0  0  0  0  0  0  0  0  0  0  0  0
   21.7618    9.0569   31.3511 N   0  0  0  0  0  0  0  0  0  0  0  0
   21.0297    8.0266   31.7066 C   0  0  0  0  0  0  0  0  0  0  0  0
   21.6066    6.8661   31.3199 N   0  0  0  0  0  0  0  0  0  0  0  0
   22.5207    6.9584   30.9052 H   0  0  0  0  0  0  0  0  0  0  0  0
   20.9356    5.6941   31.1222 C   0  0  0  0  0  0  0  0  0  0  0  0
   19.7513    5.6227   31.3930 O   0  0  0  0  0  0  0  0  0  0  0  0
   21.6137    4.5690   30.3464 C   0  0  0  0  0  0  0  0  0  0  0  0
   21.7097    4.8979   29.3102 H   0  0  0  0  0  0  0  0  0  0  0  0
   20.9865    3.6703   30.3537 H   0  0  0  0  0  0  0  0  0  0  0  0
   22.9920    4.2607   30.8900 C   0  0  0  0  0  0  0  0  0  0  0  0
   23.1754    3.1499   31.7325 C   0  0  0  0  0  0  0  0  0  0  0  0
   22.3428    2.5011   31.9807 H   0  0  0  0  0  0  0  0  0  0  0  0
   24.4365    2.8439   32.2717 C   0  0  0  0  0  0  0  0  0  0  0  0
   24.6643    1.7826   33.1197 O   0  0  0  0  0  0  0  0  0  0  0  0
   23.6884    0.7353   33.1392 C   0  0  0  0  0  0  0  0  0  0  0  0
   22.7507    1.0780   33.5836 H   0  0  0  0  0  0  0  0  0  0  0  0
   24.0653   -0.0942   33.7412 H   0  0  0  0  0  0  0  0  0  0  0  0
   23.4966    0.3629   32.1290 H   0  0  0  0  0  0  0  0  0  0  0  0
   25.5214    3.6734   31.9445 C   0  0  0  0  0  0  0  0  0  0  0  0
   27.2714    3.3102   32.6345 Br  0  0  0  0  0  0  0  0  0  0  0  0
   25.3436    4.7815   31.1025 C   0  0  0  0  0  0  0  0  0  0  0  0
   26.1882    5.4128   30.8444 H   0  0  0  0  0  0  0  0  0  0  0  0
   24.0835    5.0937   30.5725 C   0  0  0  0  0  0  0  0  0  0  0  0
   23.8602    6.1824   29.7569 O   0  0  0  0  0  0  0  0  0  0  0  0
   24.9332    7.1165   29.5883 C   0  0  0  0  0  0  0  0  0  0  0  0
   25.2653    7.5025   30.5559 H   0  0  0  0  0  0  0  0  0  0  0  0
   25.7797    6.6557   29.0718 H   0  0  0  0  0  0  0  0  0  0  0  0
   24.5880    7.9597   28.9865 H   0  0  0  0  0  0  0  0  0  0  0  0
   19.8781    8.1283   32.4366 C   0  0  0  0  0  0  0  0  0  0  0  0
   19.2978    7.2642   32.7212 H   0  0  0  0  0  0  0  0  0  0  0  0
   19.5209    9.3773   32.8408 C   0  0  0  0  0  0  0  0  0  0  0  0
   18.4663    9.4815   33.6503 N   0  0  0  0  0  0  0  0  0  0  0  0
   18.1712   10.4092   33.9238 H   0  0  0  0  0  0  0  0  0  0  0  0
   17.9236    8.6564   33.8873 H   0  0  0  0  0  0  0  0  0  0  0  0
   20.2299   10.4876   32.5000 C   0  0  0  0  0  0  0  0  0  0  0  0
   19.9115   11.8196   32.9122 C   0  0  0  0  0  0  0  0  0  0  0  0
   19.7001   12.9246   33.2105 N   0  0  0  0  0  0  0  0  0  0  0  0
  1  2  1  0
  2  3  1  0
  3  4  2  0
  4  5  1  0
  5  6  1  0
  6  7  1  0
  6  8  1  0
  8  9  2  0
  8 10  1  0
 10 11  1  0
 10 12  1  0
 10 13  1  0
 13 14  2  0
 14 15  1  0
 14 16  1  0
 16 17  1  0
 17 18  1  0
 18 19  1  0
 18 20  1  0
 18 21  1  0
 16 22  2  0
 22 23  1  0
 22 24  1  0
 24 25  1  0
 24 26  2  0
 26 27  1  0
 27 28  1  0
 28 29  1  0
 28 30  1  0
 28 31  1  0
  5 32  2  0
 32 33  1  0
 32 34  1  0
 34 35  1  0
 35 36  1  0
 35 37  1  0
 34 38  2  0
 38 39  1  0
 39 40  3  0
 38  3  1  0
 26 13  1  0
M  END
>  <score>  (6) 
6.87041

$$$$

     RDKit          3D

 49 50  0  0  0  0  0  0  0  0999 V2000
   26.1441    5.4587   30.8630 H   0  0  0  0  0  0  0  0  0  0  0  0
   25.3086    4.8119   31.1091 C   0  0  0  0  0  0  0  0  0  0  0  0
   25.5150    3.7137   31.9473 C   0  0  0  0  0  0  0  0  0  0  0  0
   27.2727    3.4090   32.6489 Br  0  0  0  0  0  0  0  0  0  0  0  0
   24.4447    2.8596   32.2606 C   0  0  0  0  0  0  0  0  0  0  0  0
   24.6763    1.7803   33.0817 O   0  0  0  0  0  0  0  0  0  0  0  0
   23.6585    0.7703   33.1047 C   0  0  0  0  0  0  0  0  0  0  0  0
   23.9891   -0.0777   33.7110 H   0  0  0  0  0  0  0  0  0  0  0  0
   22.7336    1.1645   33.5351 H   0  0  0  0  0  0  0  0  0  0  0  0
   23.4536    0.4106   32.0917 H   0  0  0  0  0  0  0  0  0  0  0  0
   23.1729    3.1471   31.7313 C   0  0  0  0  0  0  0  0  0  0  0  0
   22.3463    2.4893   31.9800 H   0  0  0  0  0  0  0  0  0  0  0  0
   22.9591    4.2569   30.9010 C   0  0  0  0  0  0  0  0  0  0  0  0
   21.5644    4.5462   30.3786 C   0  0  0  0  0  0  0  0  0  0  0  0
   21.6233    4.8339   29.3284 H   0  0  0  0  0  0  0  0  0  0  0  0
   20.9303    3.6602   30.4565 H   0  0  0  0  0  0  0  0  0  0  0  0
   20.9101    5.6936   31.1264 C   0  0  0  0  0  0  0  0  0  0  0  0
   19.7416    5.6329   31.4711 O   0  0  0  0  0  0  0  0  0  0  0  0
   21.6088    6.8501   31.2860 N   0  0  0  0  0  0  0  0  0  0  0  0
   22.4609    6.9721   30.7617 H   0  0  0  0  0  0  0  0  0  0  0  0
   21.0567    7.9905   31.7240 C   0  0  0  0  0  0  0  0  0  0  0  0
   21.7945    9.0110   31.3603 N   0  0  0  0  0  0  0  0  0  0  0  0
   21.3977   10.2237   31.7215 C   0  0  0  0  0  0  0  0  0  0  0  0
   22.3066   11.3598   31.3827 C   0  0  0  0  0  0  0  0  0  0  0  0
   23.2883   10.9700   31.0906 H   0  0  0  0  0  0  0  0  0  0  0  0
   22.4127   11.9902   32.2581 H   0  0  0  0  0  0  0  0  0  0  0  0
   21.7310   12.2096   30.2741 C   0  0  0  0  0  0  0  0  0  0  0  0
   20.7434   12.5875   30.5542 H   0  0  0  0  0  0  0  0  0  0  0  0
   22.3835   13.0742   30.0852 H   0  0  0  0  0  0  0  0  0  0  0  0
   21.6105   11.3730   29.1308 O   0  0  0  0  0  0  0  0  0  0  0  0
   21.3566   12.1110   27.9338 C   0  0  0  0  0  0  0  0  0  0  0  0
   20.4362   12.6982   27.9986 H   0  0  0  0  0  0  0  0  0  0  0  0
   21.2442   11.3970   27.1107 H   0  0  0  0  0  0  0  0  0  0  0  0
   22.1801   12.7942   27.7211 H   0  0  0  0  0  0  0  0  0  0  0  0
   20.2462   10.4309   32.4612 C   0  0  0  0  0  0  0  0  0  0  0  0
   19.8909   11.7468   32.8785 C   0  0  0  0  0  0  0  0  0  0  0  0
   19.6547   12.8316   33.2158 N   0  0  0  0  0  0  0  0  0  0  0  0
   19.5147    9.3338   32.8319 C   0  0  0  0  0  0  0  0  0  0  0  0
   18.4184    9.4620   33.6118 N   0  0  0  0  0  0  0  0  0  0  0  0
   17.8954    8.6344   33.8860 H   0  0  0  0  0  0  0  0  0  0  0  0
   18.1131   10.3935   33.8761 H   0  0  0  0  0  0  0  0  0  0  0  0
   19.9070    8.0855   32.4641 C   0  0  0  0  0  0  0  0  0  0  0  0
   19.3516    7.2123   32.7630 H   0  0  0  0  0  0  0  0  0  0  0  0
   24.0400    5.1047   30.5834 C   0  0  0  0  0  0  0  0  0  0  0  0
   23.8188    6.2032   29.7833 O   0  0  0  0  0  0  0  0  0  0  0  0
   24.9326    7.0905   29.6126 C   0  0  0  0  0  0  0  0  0  0  0  0
   25.2822    7.4562   30.5832 H   0  0  0  0  0  0  0  0  0  0  0  0
   24.6361    7.9486   29.0052 H   0  0  0  0  0  0  0  0  0  0  0  0
   25.7593    6.5779   29.1111 H   0  0  0  0  0  0  0  0  0  0  0  0
  1  2  1  0
  2  3  2  0
  3  4  1  0
  3  5  1  0
  5  6  1  0
  6  7  1  0
  7  8  1  0
  7  9  1  0
  7 10  1  0
  5 11  2  0
 11 12  1  0
 11 13  1  0
 13 14  1  0
 14 15  1  0
 14 16  1  0
 14 17  1  0
 17 18  2  0
 17 19  1  0
 19 20  1  0
 19 21  1  0
 21 22  2  0
 22 23  1  0
 23 24  1  0
 24 25  1  0
 24 26  1  0
 24 27  1  0
 27 28  1  0
 27 29  1  0
 27 30  1  0
 30 31  1  0
 31 32  1  0
 31 33  1  0
 31 34  1  0
 23 35  2  0
 35 36  1  0
 36 37  3  0
 35 38  1  0
 38 39  1  0
 39 40  1  0
 39 41  1  0
 38 42  2  0
 42 43  1  0
 13 44  2  0
 44 45  1  0
 45 46  1  0
 46 47  1  0
 46 48  1  0
 46 49  1  0
 44  2  1  0
 42 21  1  0
M  END
>  <score>  (7) 
6.91731

$$$$

     RDKit          3D

 43 44  0  0  0  0  0  0  0  0999 V2000
   23.7109   11.7088   32.0274 H   0  0  0  0  0  0  0  0  0  0  0  0
   22.9425   12.2071   31.6811 O   0  0  0  0  0  0  0  0  0  0  0  0
   22.1044   11.3600   30.8626 C   0  0  0  0  0  0  0  0  0  0  0  0
   21.3262   11.9623   30.3763 H   0  0  0  0  0  0  0  0  0  0  0  0
   22.7273   10.9358   30.0678 H   0  0  0  0  0  0  0  0  0  0  0  0
   21.3861   10.2157   31.5793 C   0  0  0  0  0  0  0  0  0  0  0  0
   21.7769    8.9695   31.2797 N   0  0  0  0  0  0  0  0  0  0  0  0
   21.0628    7.9683   31.7390 C   0  0  0  0  0  0  0  0  0  0  0  0
   21.6109    6.8094   31.3349 N   0  0  0  0  0  0  0  0  0  0  0  0
   22.4607    6.9211   30.8043 H   0  0  0  0  0  0  0  0  0  0  0  0
   20.8974    5.6669   31.1483 C   0  0  0  0  0  0  0  0  0  0  0  0
   19.7146    5.6086   31.4442 O   0  0  0  0  0  0  0  0  0  0  0  0
   21.5714    4.5442   30.3690 C   0  0  0  0  0  0  0  0  0  0  0  0
   20.9532    3.6456   30.4122 H   0  0  0  0  0  0  0  0  0  0  0  0
   21.6460    4.8598   29.3260 H   0  0  0  0  0  0  0  0  0  0  0  0
   22.9640    4.2527   30.8942 C   0  0  0  0  0  0  0  0  0  0  0  0
   23.1731    3.1425   31.7295 C   0  0  0  0  0  0  0  0  0  0  0  0
   22.3465    2.4866   31.9818 H   0  0  0  0  0  0  0  0  0  0  0  0
   24.4434    2.8547   32.2653 C   0  0  0  0  0  0  0  0  0  0  0  0
   24.6762    1.7805   33.0953 O   0  0  0  0  0  0  0  0  0  0  0  0
   23.6686    0.7602   33.1154 C   0  0  0  0  0  0  0  0  0  0  0  0
   22.7379    1.1407   33.5467 H   0  0  0  0  0  0  0  0  0  0  0  0
   24.0116   -0.0849   33.7197 H   0  0  0  0  0  0  0  0  0  0  0  0
   23.4666    0.3996   32.1019 H   0  0  0  0  0  0  0  0  0  0  0  0
   25.5168    3.7040   31.9484 C   0  0  0  0  0  0  0  0  0  0  0  0
   27.2762    3.3870   32.6428 Br  0  0  0  0  0  0  0  0  0  0  0  0
   25.3161    4.8044   31.1074 C   0  0  0  0  0  0  0  0  0  0  0  0
   26.1542    5.4481   30.8568 H   0  0  0  0  0  0  0  0  0  0  0  0
   24.0481    5.0973   30.5778 C   0  0  0  0  0  0  0  0  0  0  0  0
   23.8259    6.1964   29.7768 O   0  0  0  0  0  0  0  0  0  0  0  0
   24.9315    7.0943   29.6058 C   0  0  0  0  0  0  0  0  0  0  0  0
   25.7647    6.5916   29.1045 H   0  0  0  0  0  0  0  0  0  0  0  0
   24.6235    7.9508   28.9986 H   0  0  0  0  0  0  0  0  0  0  0  0
   25.2782    7.4615   30.5768 H   0  0  0  0  0  0  0  0  0  0  0  0
   19.9299    8.1015   32.4957 C   0  0  0  0  0  0  0  0  0  0  0  0
   19.3447    7.2554   32.8195 H   0  0  0  0  0  0  0  0  0  0  0  0
   19.5812    9.3656   32.8630 C   0  0  0  0  0  0  0  0  0  0  0  0
   18.5083    9.5059   33.6742 N   0  0  0  0  0  0  0  0  0  0  0  0
   17.9530    8.6795   33.8600 H   0  0  0  0  0  0  0  0  0  0  0  0
   18.1426   10.4345   33.8762 H   0  0  0  0  0  0  0  0  0  0  0  0
   20.3003   10.4480   32.4231 C   0  0  0  0  0  0  0  0  0  0  0  0
   19.9479   11.7717   32.8241 C   0  0  0  0  0  0  0  0  0  0  0  0
   19.6797   12.8455   33.1837 N   0  0  0  0  0  0  0  0  0  0  0  0
  1  2  1  0
  2  3  1  0
  3  4  1  0
  3  5  1  0
  3  6  1  0
  6  7  2  0
  7  8  1  0
  8  9  1  0
  9 10  1  0
  9 11  1  0
 11 12  2  0
 11 13  1  0
 13 14  1  0
 13 15  1  0
 13 16  1  0
 16 17  2  0
 17 18  1  0
 17 19  1  0
 19 20  1  0
 20 21  1  0
 21 22  1  0
 21 23  1  0
 21 24  1  0
 19 25  2  0
 25 26  1  0
 25 27  1  0
 27 28  1  0
 27 29  2  0
 29 30  1  0
 30 31  1  0
 31 32  1  0
 31 33  1  0
 31 34  1  0
  8 35  2  0
 35 36  1  0
 35 37  1  0
 37 38  1  0
 38 39  1  0
 38 40  1  0
 37 41  2  0
 41 42  1  0
 42 43  3  0
 41  6  1  0
 29 16  1  0
M  END
>  <score>  (8) 
6.95229

$$$$

     RDKit          3D

 46 47  0  0  0  0  0  0  0  0999 V2000
   24.0931   14.0956   29.1511 H   0  0  0  0  0  0  0  0  0  0  0  0
   23.5713   13.2773   29.1440 O   0  0  0  0  0  0  0  0  0  0  0  0
   23.9627   12.5866   30.2441 C   0  0  0  0  0  0  0  0  0  0  0  0
   24.8247   12.9925   31.0075 O   0  0  0  0  0  0  0  0  0  0  0  0
   23.2946   11.2246   30.5413 C   0  0  0  0  0  0  0  0  0  0  0  0
   24.0445   10.5986   31.0320 H   0  0  0  0  0  0  0  0  0  0  0  0
   23.0236   10.7649   29.5871 H   0  0  0  0  0  0  0  0  0  0  0  0
   22.1188   11.3409   31.3785 O   0  0  0  0  0  0  0  0  0  0  0  0
   21.3825   10.2268   31.7144 C   0  0  0  0  0  0  0  0  0  0  0  0
   21.7692    9.0040   31.3508 N   0  0  0  0  0  0  0  0  0  0  0  0
   21.0246    7.9882   31.7252 C   0  0  0  0  0  0  0  0  0  0  0  0
   21.5996    6.8320   31.3564 N   0  0  0  0  0  0  0  0  0  0  0  0
   22.4827    6.9517   30.8900 H   0  0  0  0  0  0  0  0  0  0  0  0
   20.9274    5.6690   31.1314 C   0  0  0  0  0  0  0  0  0  0  0  0
   19.7380    5.5881   31.3892 O   0  0  0  0  0  0  0  0  0  0  0  0
   21.6115    4.5567   30.3454 C   0  0  0  0  0  0  0  0  0  0  0  0
   20.9931    3.6537   30.3515 H   0  0  0  0  0  0  0  0  0  0  0  0
   21.7038    4.8932   29.3118 H   0  0  0  0  0  0  0  0  0  0  0  0
   22.9894    4.2556   30.8891 C   0  0  0  0  0  0  0  0  0  0  0  0
   23.1747    3.1477   31.7325 C   0  0  0  0  0  0  0  0  0  0  0  0
   22.3392    2.5013   31.9819 H   0  0  0  0  0  0  0  0  0  0  0  0
   24.4377    2.8480   32.2717 C   0  0  0  0  0  0  0  0  0  0  0  0
   24.6663    1.7856   33.1169 O   0  0  0  0  0  0  0  0  0  0  0  0
   23.6868    0.7390   33.1368 C   0  0  0  0  0  0  0  0  0  0  0  0
   24.0602   -0.0939   33.7390 H   0  0  0  0  0  0  0  0  0  0  0  0
   22.7476    1.0847   33.5783 H   0  0  0  0  0  0  0  0  0  0  0  0
   23.4920    0.3674   32.1260 H   0  0  0  0  0  0  0  0  0  0  0  0
   25.5217    3.6782   31.9448 C   0  0  0  0  0  0  0  0  0  0  0  0
   27.2712    3.3142   32.6360 Br  0  0  0  0  0  0  0  0  0  0  0  0
   25.3396    4.7835   31.1022 C   0  0  0  0  0  0  0  0  0  0  0  0
   26.1834    5.4154   30.8444 H   0  0  0  0  0  0  0  0  0  0  0  0
   24.0783    5.0924   30.5707 C   0  0  0  0  0  0  0  0  0  0  0  0
   23.8557    6.1816   29.7536 O   0  0  0  0  0  0  0  0  0  0  0  0
   24.9321    7.1157   29.5892 C   0  0  0  0  0  0  0  0  0  0  0  0
   24.5908    7.9626   28.9883 H   0  0  0  0  0  0  0  0  0  0  0  0
   25.7810    6.6540   29.0751 H   0  0  0  0  0  0  0  0  0  0  0  0
   25.2665    7.4985   30.5585 H   0  0  0  0  0  0  0  0  0  0  0  0
   19.8680    8.1056   32.4459 C   0  0  0  0  0  0  0  0  0  0  0  0
   19.2721    7.2576   32.7409 H   0  0  0  0  0  0  0  0  0  0  0  0
   19.5230    9.3555   32.8368 C   0  0  0  0  0  0  0  0  0  0  0  0
   18.4552    9.4782   33.6433 N   0  0  0  0  0  0  0  0  0  0  0  0
   18.1619   10.4059   33.9294 H   0  0  0  0  0  0  0  0  0  0  0  0
   17.9178    8.6524   33.8951 H   0  0  0  0  0  0  0  0  0  0  0  0
   20.2599   10.4447   32.4742 C   0  0  0  0  0  0  0  0  0  0  0  0
   19.9310   11.7695   32.8867 C   0  0  0  0  0  0  0  0  0  0  0  0
   19.6982   12.8623   33.2060 N   0  0  0  0  0  0  0  0  0  0  0  0
  1  2  1  0
  2  3  1  0
  3  4  2  0
  3  5  1  0
  5  6  1  0
  5  7  1  0
  5  8  1  0
  8  9  1  0
  9 10  2  0
 10 11  1  0
 11 12  1  0
 12 13  1  0
 12 14  1  0
 14 15  2  0
 14 16  1  0
 16 17  1  0
 16 18  1  0
 16 19  1  0
 19 20  2  0
 20 21  1  0
 20 22  1  0
 22 23  1  0
 23 24  1  0
 24 25  1  0
 24 26  1  0
 24 27  1  0
 22 28  2  0
 28 29  1  0
 28 30  1  0
 30 31  1  0
 30 32  2  0
 32 33  1  0
 33 34  1  0
 34 35  1  0
 34 36  1  0
 34 37  1  0
 11 38  2  0
 38 39  1  0
 38 40  1  0
 40 41  1  0
 41 42  1  0
 41 43  1  0
 40 44  2  0
 44 45  1  0
 45 46  3  0
 44  9  1  0
 32 19  1  0
M  END
>  <score>  (9) 
6.9817

$$$$

     RDKit          3D

 48 49  0  0  0  0  0  0  0  0999 V2000
   25.0400   10.1029   29.8581 H   0  0  0  0  0  0  0  0  0  0  0  0
   24.1062   10.3385   29.7489 O   0  0  0  0  0  0  0  0  0  0  0  0
   23.7417   10.7867   30.9667 C   0  0  0  0  0  0  0  0  0  0  0  0
   24.4760   10.7283   31.9348 O   0  0  0  0  0  0  0  0  0  0  0  0
   22.3243   11.3417   31.1399 C   0  0  2  0  0  0  0  0  0  0  0  0
   22.3107   12.1440   31.8801 H   0  0  0  0  0  0  0  0  0  0  0  0
   21.5047   10.2127   31.6767 C   0  0  0  0  0  0  0  0  0  0  0  0
   21.8834    8.9761   31.3609 N   0  0  0  0  0  0  0  0  0  0  0  0
   21.1300    7.9742   31.7464 C   0  0  0  0  0  0  0  0  0  0  0  0
   21.6611    6.8161   31.3264 N   0  0  0  0  0  0  0  0  0  0  0  0
   22.5170    6.9234   30.7983 H   0  0  0  0  0  0  0  0  0  0  0  0
   20.9353    5.6833   31.1397 C   0  0  0  0  0  0  0  0  0  0  0  0
   19.7458    5.6529   31.4267 O   0  0  0  0  0  0  0  0  0  0  0  0
   21.5836    4.5527   30.3630 C   0  0  0  0  0  0  0  0  0  0  0  0
   20.9512    3.6685   30.4242 H   0  0  0  0  0  0  0  0  0  0  0  0
   21.6543    4.8610   29.3178 H   0  0  0  0  0  0  0  0  0  0  0  0
   22.9724    4.2469   30.8861 C   0  0  0  0  0  0  0  0  0  0  0  0
   23.1760    3.1411   31.7283 C   0  0  0  0  0  0  0  0  0  0  0  0
   22.3456    2.4898   31.9830 H   0  0  0  0  0  0  0  0  0  0  0  0
   24.4459    2.8525   32.2656 C   0  0  0  0  0  0  0  0  0  0  0  0
   24.6733    1.7804   33.1011 O   0  0  0  0  0  0  0  0  0  0  0  0
   23.6706    0.7564   33.1185 C   0  0  0  0  0  0  0  0  0  0  0  0
   22.7392    1.1320   33.5490 H   0  0  0  0  0  0  0  0  0  0  0  0
   23.4710    0.3971   32.1057 H   0  0  0  0  0  0  0  0  0  0  0  0
   24.0180   -0.0871   33.7212 H   0  0  0  0  0  0  0  0  0  0  0  0
   25.5203    3.7035   31.9483 C   0  0  0  0  0  0  0  0  0  0  0  0
   27.2787    3.3778   32.6428 Br  0  0  0  0  0  0  0  0  0  0  0  0
   25.3225    4.8012   31.1026 C   0  0  0  0  0  0  0  0  0  0  0  0
   26.1631    5.4429   30.8553 H   0  0  0  0  0  0  0  0  0  0  0  0
   24.0568    5.0924   30.5711 C   0  0  0  0  0  0  0  0  0  0  0  0
   23.8373    6.1898   29.7682 O   0  0  0  0  0  0  0  0  0  0  0  0
   24.9306    7.1006   29.6034 C   0  0  0  0  0  0  0  0  0  0  0  0
   25.7742    6.6047   29.1179 H   0  0  0  0  0  0  0  0  0  0  0  0
   24.6178    7.9472   28.9861 H   0  0  0  0  0  0  0  0  0  0  0  0
   25.2588    7.4783   30.5741 H   0  0  0  0  0  0  0  0  0  0  0  0
   19.9656    8.1089   32.4574 C   0  0  0  0  0  0  0  0  0  0  0  0
   19.3494    7.2682   32.7280 H   0  0  0  0  0  0  0  0  0  0  0  0
   19.6063    9.3702   32.8190 C   0  0  0  0  0  0  0  0  0  0  0  0
   18.4711    9.5206   33.5448 N   0  0  0  0  0  0  0  0  0  0  0  0
   18.2184   10.4406   33.8988 H   0  0  0  0  0  0  0  0  0  0  0  0
   17.9868    8.6900   33.8695 H   0  0  0  0  0  0  0  0  0  0  0  0
   20.3667   10.4505   32.4459 C   0  0  0  0  0  0  0  0  0  0  0  0
   19.9927   11.7702   32.8418 C   0  0  0  0  0  0  0  0  0  0  0  0
   19.7398   12.8536   33.1784 N   0  0  0  0  0  0  0  0  0  0  0  0
   21.7468   11.9031   29.8174 C   0  0  0  0  0  0  0  0  0  0  0  0
   21.7362   11.1302   29.0391 H   0  0  0  0  0  0  0  0  0  0  0  0
   22.3655   12.7374   29.4677 H   0  0  0  0  0  0  0  0  0  0  0  0
   20.7226   12.2720   29.9521 H   0  0  0  0  0  0  0  0  0  0  0  0
  1  2  1  0
  2  3  1  0
  3  4  2  0
  3  5  1  0
  5  6  1  1
  5  7  1  0
  7  8  2  0
  8  9  1  0
  9 10  1  0
 10 11  1  0
 10 12  1  0
 12 13  2  0
 12 14  1  0
 14 15  1  0
 14 16  1  0
 14 17  1  0
 17 18  2  0
 18 19  1  0
 18 20  1  0
 20 21  1  0
 21 22  1  0
 22 23  1  0
 22 24  1  0
 22 25  1  0
 20 26  2  0
 26 27  1  0
 26 28  1  0
 28 29  1  0
 28 30  2  0
 30 31  1  0
 31 32  1  0
 32 33  1  0
 32 34  1  0
 32 35  1  0
  9 36  2  0
 36 37  1  0
 36 38  1  0
 38 39  1  0
 39 40  1  0
 39 41  1  0
 38 42  2  0
 42 43  1  0
 43 44  3  0
  5 45  1  0
 45 46  1  0
 45 47  1  0
 45 48  1  0
 42  7  1  0
 30 17  1  0
M  END
>  <score>  (10) 
6.99414

$$$$

     RDKit          3D

 42 43  0  0  0  0  0  0  0  0999 V2000
   22.5075   13.2396   30.9449 H   0  0  0  0  0  0  0  0  0  0  0  0
   21.8130   12.6697   31.3189 O   0  0  0  0  0  0  0  0  0  0  0  0
   22.2752   11.3824   31.2279 C   0  0  0  0  0  0  0  0  0  0  0  0
   23.3990   11.1387   30.8041 O   0  0  0  0  0  0  0  0  0  0  0  0
   21.3953   10.2150   31.6827 C   0  0  0  0  0  0  0  0  0  0  0  0
   21.7359    8.9417   31.3660 N   0  0  0  0  0  0  0  0  0  0  0  0
   21.0102    7.9176   31.7546 C   0  0  0  0  0  0  0  0  0  0  0  0
   21.5883    6.7692   31.3747 N   0  0  0  0  0  0  0  0  0  0  0  0
   22.4568    6.9132   30.8806 H   0  0  0  0  0  0  0  0  0  0  0  0
   20.9100    5.6166   31.1291 C   0  0  0  0  0  0  0  0  0  0  0  0
   19.7187    5.5326   31.3838 O   0  0  0  0  0  0  0  0  0  0  0  0
   21.6098    4.5282   30.3338 C   0  0  0  0  0  0  0  0  0  0  0  0
   21.0009    3.6219   30.3331 H   0  0  0  0  0  0  0  0  0  0  0  0
   21.6977    4.8802   29.3047 H   0  0  0  0  0  0  0  0  0  0  0  0
   22.9903    4.2412   30.8831 C   0  0  0  0  0  0  0  0  0  0  0  0
   23.1801    3.1378   31.7306 C   0  0  0  0  0  0  0  0  0  0  0  0
   22.3454    2.4908   31.9816 H   0  0  0  0  0  0  0  0  0  0  0  0
   24.4432    2.8462   32.2722 C   0  0  0  0  0  0  0  0  0  0  0  0
   24.6688    1.7842   33.1190 O   0  0  0  0  0  0  0  0  0  0  0  0
   23.6865    0.7385   33.1371 C   0  0  0  0  0  0  0  0  0  0  0  0
   23.4921    0.3699   32.1248 H   0  0  0  0  0  0  0  0  0  0  0  0
   22.7474    1.0878   33.5769 H   0  0  0  0  0  0  0  0  0  0  0  0
   24.0571   -0.0967   33.7391 H   0  0  0  0  0  0  0  0  0  0  0  0
   25.5244    3.6810   31.9453 C   0  0  0  0  0  0  0  0  0  0  0  0
   27.2742    3.3222   32.6370 Br  0  0  0  0  0  0  0  0  0  0  0  0
   25.3375    4.7847   31.1020 C   0  0  0  0  0  0  0  0  0  0  0  0
   26.1798    5.4195   30.8481 H   0  0  0  0  0  0  0  0  0  0  0  0
   24.0752    5.0862   30.5691 C   0  0  0  0  0  0  0  0  0  0  0  0
   23.8506    6.1784   29.7570 O   0  0  0  0  0  0  0  0  0  0  0  0
   24.9296    7.1122   29.5919 C   0  0  0  0  0  0  0  0  0  0  0  0
   24.5905    7.9601   28.9899 H   0  0  0  0  0  0  0  0  0  0  0  0
   25.2654    7.4950   30.5611 H   0  0  0  0  0  0  0  0  0  0  0  0
   25.7782    6.6481   29.0789 H   0  0  0  0  0  0  0  0  0  0  0  0
   19.8667    8.0517   32.4728 C   0  0  0  0  0  0  0  0  0  0  0  0
   19.2709    7.2062   32.7684 H   0  0  0  0  0  0  0  0  0  0  0  0
   19.5170    9.3121   32.8447 C   0  0  0  0  0  0  0  0  0  0  0  0
   18.4590    9.3800   33.6776 N   0  0  0  0  0  0  0  0  0  0  0  0
   18.5202    8.6791   34.4083 H   0  0  0  0  0  0  0  0  0  0  0  0
   17.5719    9.3425   33.1794 H   0  0  0  0  0  0  0  0  0  0  0  0
   20.2503   10.4165   32.4625 C   0  0  0  0  0  0  0  0  0  0  0  0
   19.8802   11.7241   32.9046 C   0  0  0  0  0  0  0  0  0  0  0  0
   19.6243   12.8038   33.2514 N   0  0  0  0  0  0  0  0  0  0  0  0
  1  2  1  0
  2  3  1  0
  3  4  2  0
  3  5  1  0
  5  6  2  0
  6  7  1  0
  7  8  1  0
  8  9  1  0
  8 10  1  0
 10 11  2  0
 10 12  1  0
 12 13  1  0
 12 14  1  0
 12 15  1  0
 15 16  2  0
 16 17  1  0
 16 18  1  0
 18 19  1  0
 19 20  1  0
 20 21  1  0
 20 22  1  0
 20 23  1  0
 18 24  2  0
 24 25  1  0
 24 26  1  0
 26 27  1  0
 26 28  2  0
 28 29  1  0
 29 30  1  0
 30 31  1  0
 30 32  1  0
 30 33  1  0
  7 34  2  0
 34 35  1  0
 34 36  1  0
 36 37  1  0
 37 38  1  0
 37 39  1  0
 36 40  2  0
 40 41  1  0
 41 42  3  0
 40  5  1  0
 28 15  1  0
M  END
>  <score>  (11) 
7.00027

$$$$

     RDKit          3D

 46 47  0  0  0  0  0  0  0  0999 V2000
   26.1761    5.5787   30.9556 H   0  0  0  0  0  0  0  0  0  0  0  0
   25.3135    4.9658   31.1936 C   0  0  0  0  0  0  0  0  0  0  0  0
   25.4828    3.8165   31.9724 C   0  0  0  0  0  0  0  0  0  0  0  0
   27.2401    3.3700   32.5852 Br  0  0  0  0  0  0  0  0  0  0  0  0
   24.3803    2.9982   32.2676 C   0  0  0  0  0  0  0  0  0  0  0  0
   24.5720    1.8682   33.0295 O   0  0  0  0  0  0  0  0  0  0  0  0
   23.5166    0.8944   33.0109 C   0  0  0  0  0  0  0  0  0  0  0  0
   23.3212    0.5584   31.9869 H   0  0  0  0  0  0  0  0  0  0  0  0
   22.5942    1.3121   33.4263 H   0  0  0  0  0  0  0  0  0  0  0  0
   23.8059    0.0254   33.6113 H   0  0  0  0  0  0  0  0  0  0  0  0
   23.1183    3.3617   31.7675 C   0  0  0  0  0  0  0  0  0  0  0  0
   22.2648    2.7277   31.9930 H   0  0  0  0  0  0  0  0  0  0  0  0
   22.9460    4.5102   30.9806 C   0  0  0  0  0  0  0  0  0  0  0  0
   21.5621    4.8214   30.4581 C   0  0  0  0  0  0  0  0  0  0  0  0
   21.6063    5.0022   29.3835 H   0  0  0  0  0  0  0  0  0  0  0  0
   20.9106    3.9562   30.6273 H   0  0  0  0  0  0  0  0  0  0  0  0
   20.9494    6.0424   31.1302 C   0  0  0  0  0  0  0  0  0  0  0  0
   19.8549    5.9297   31.6519 O   0  0  0  0  0  0  0  0  0  0  0  0
   21.5711    7.2587   31.0925 N   0  0  0  0  0  0  0  0  0  0  0  0
   22.4398    7.3588   30.5887 H   0  0  0  0  0  0  0  0  0  0  0  0
   21.0875    8.3771   31.6711 C   0  0  0  0  0  0  0  0  0  0  0  0
   21.8643    9.4128   31.4542 N   0  0  0  0  0  0  0  0  0  0  0  0
   21.4548   10.5321   31.9855 C   0  0  0  0  0  0  0  0  0  0  0  0
   22.2254   11.5039   31.6230 N   0  0  0  0  0  0  0  0  0  0  0  0
   23.0946   11.1728   31.2835 H   0  0  0  0  0  0  0  0  0  0  0  0
   21.4741   11.7372   30.2424 S   0  0  0  0  0  0  0  0  0  0  0  0
   22.4210   11.5711   29.1576 O   0  0  0  0  0  0  0  0  0  0  0  0
   20.6580   12.9367   30.2809 O   0  0  0  0  0  0  0  0  0  0  0  0
   22.6371   12.7200   30.7247 N   0  0  0  0  0  0  0  0  0  0  0  0
   23.4592   12.1642   30.7598 H   0  0  0  0  0  0  0  0  0  0  0  0
   22.3468   13.0628   31.6214 H   0  0  0  0  0  0  0  0  0  0  0  0
   20.2915   10.7382   32.6549 C   0  0  0  0  0  0  0  0  0  0  0  0
   19.8996   12.0472   33.0617 C   0  0  0  0  0  0  0  0  0  0  0  0
   19.6277   13.1342   33.3694 N   0  0  0  0  0  0  0  0  0  0  0  0
   19.5306    9.6375   32.8424 C   0  0  0  0  0  0  0  0  0  0  0  0
   18.3562    9.7056   33.4767 N   0  0  0  0  0  0  0  0  0  0  0  0
   17.9428    8.8153   33.7324 H   0  0  0  0  0  0  0  0  0  0  0  0
   18.2222   10.5088   34.0849 H   0  0  0  0  0  0  0  0  0  0  0  0
   19.9146    8.4272   32.3811 C   0  0  0  0  0  0  0  0  0  0  0  0
   19.2798    7.5736   32.5440 H   0  0  0  0  0  0  0  0  0  0  0  0
   24.0543    5.3339   30.6904 C   0  0  0  0  0  0  0  0  0  0  0  0
   23.8697    6.4709   29.9321 O   0  0  0  0  0  0  0  0  0  0  0  0
   25.0459    7.2307   29.6141 C   0  0  0  0  0  0  0  0  0  0  0  0
   25.5060    7.6269   30.5249 H   0  0  0  0  0  0  0  0  0  0  0  0
   24.7791    8.0682   28.9627 H   0  0  0  0  0  0  0  0  0  0  0  0
   25.7818    6.6092   29.0938 H   0  0  0  0  0  0  0  0  0  0  0  0
  1  2  1  0
  2  3  2  0
  3  4  1  0
  3  5  1  0
  5  6  1  0
  6  7  1  0
  7  8  1  0
  7  9  1  0
  7 10  1  0
  5 11  2  0
 11 12  1  0
 11 13  1  0
 13 14  1  0
 14 15  1  0
 14 16  1  0
 14 17  1  0
 17 18  2  0
 17 19  1  0
 19 20  1  0
 19 21  1  0
 21 22  2  0
 22 23  1  0
 23 24  1  0
 24 25  1  0
 24 26  1  0
 26 27  2  0
 26 28  2  0
 26 29  1  0
 29 30  1  0
 29 31  1  0
 23 32  2  0
 32 33  1  0
 33 34  3  0
 32 35  1  0
 35 36  1  0
 36 37  1  0
 36 38  1  0
 35 39  2  0
 39 40  1  0
 13 41  2  0
 41 42  1  0
 42 43  1  0
 43 44  1  0
 43 45  1  0
 43 46  1  0
 41  2  1  0
 39 21  1  0
M  END
>  <score>  (12) 
7.00058

$$$$

     RDKit          3D

 47 48  0  0  0  0  0  0  0  0999 V2000
   24.8833   12.4733   31.2764 H   0  0  0  0  0  0  0  0  0  0  0  0
   24.7968   11.4326   31.5767 C   0  0  0  0  0  0  0  0  0  0  0  0
   25.4731   11.0725   32.3397 H   0  0  0  0  0  0  0  0  0  0  0  0
   23.8367   10.5868   31.0812 C   0  0  0  0  0  0  0  0  0  0  0  0
   23.7916    9.5620   31.4366 H   0  0  0  0  0  0  0  0  0  0  0  0
   22.8171   11.0524   30.0880 C   0  0  0  0  0  0  0  0  0  0  0  0
   22.7154   10.3270   29.2719 H   0  0  0  0  0  0  0  0  0  0  0  0
   23.1505   11.9996   29.6623 H   0  0  0  0  0  0  0  0  0  0  0  0
   21.5693   11.2499   30.7641 O   0  0  0  0  0  0  0  0  0  0  0  0
   21.0631   10.1424   31.3888 C   0  0  0  0  0  0  0  0  0  0  0  0
   21.5614    8.9459   31.0783 N   0  0  0  0  0  0  0  0  0  0  0  0
   21.0418    7.9145   31.6807 C   0  0  0  0  0  0  0  0  0  0  0  0
   21.5929    6.7841   31.2504 N   0  0  0  0  0  0  0  0  0  0  0  0
   22.3209    6.9144   30.5658 H   0  0  0  0  0  0  0  0  0  0  0  0
   20.8933    5.6201   31.1842 C   0  0  0  0  0  0  0  0  0  0  0  0
   19.7532    5.5269   31.6143 O   0  0  0  0  0  0  0  0  0  0  0  0
   21.5247    4.4874   30.4032 C   0  0  0  0  0  0  0  0  0  0  0  0
   21.5283    4.7607   29.3464 H   0  0  0  0  0  0  0  0  0  0  0  0
   20.9166    3.5855   30.5270 H   0  0  0  0  0  0  0  0  0  0  0  0
   22.9412    4.2432   30.8897 C   0  0  0  0  0  0  0  0  0  0  0  0
   23.1768    3.1004   31.6588 C   0  0  0  0  0  0  0  0  0  0  0  0
   22.3676    2.4020   31.8411 H   0  0  0  0  0  0  0  0  0  0  0  0
   24.4327    2.8300   32.2233 C   0  0  0  0  0  0  0  0  0  0  0  0
   24.6555    1.7127   32.9972 O   0  0  0  0  0  0  0  0  0  0  0  0
   23.5738    0.7687   33.0707 C   0  0  0  0  0  0  0  0  0  0  0  0
   22.6801    1.2318   33.5023 H   0  0  0  0  0  0  0  0  0  0  0  0
   23.3241    0.3897   32.0736 H   0  0  0  0  0  0  0  0  0  0  0  0
   23.8606   -0.0772   33.7012 H   0  0  0  0  0  0  0  0  0  0  0  0
   25.4783    3.7427   32.0012 C   0  0  0  0  0  0  0  0  0  0  0  0
   27.2123    3.4696   32.7712 Br  0  0  0  0  0  0  0  0  0  0  0  0
   25.2630    4.8772   31.2077 C   0  0  0  0  0  0  0  0  0  0  0  0
   26.0850    5.5649   31.0296 H   0  0  0  0  0  0  0  0  0  0  0  0
   24.0023    5.1465   30.6421 C   0  0  0  0  0  0  0  0  0  0  0  0
   23.7704    6.2725   29.8797 O   0  0  0  0  0  0  0  0  0  0  0  0
   24.9009    7.1211   29.6124 C   0  0  0  0  0  0  0  0  0  0  0  0
   25.6849    6.5740   29.0770 H   0  0  0  0  0  0  0  0  0  0  0  0
   25.3196    7.5096   30.5465 H   0  0  0  0  0  0  0  0  0  0  0  0
   24.5928    7.9691   28.9924 H   0  0  0  0  0  0  0  0  0  0  0  0
   20.0451    7.9674   32.5991 C   0  0  0  0  0  0  0  0  0  0  0  0
   19.6964    7.0660   33.0716 H   0  0  0  0  0  0  0  0  0  0  0  0
   19.5422    9.1829   32.8956 C   0  0  0  0  0  0  0  0  0  0  0  0
   18.5227    9.1702   33.7587 N   0  0  0  0  0  0  0  0  0  0  0  0
   17.8383    9.9154   33.6573 H   0  0  0  0  0  0  0  0  0  0  0  0
   18.1941    8.2299   33.9668 H   0  0  0  0  0  0  0  0  0  0  0  0
   20.0531   10.3104   32.3176 C   0  0  0  0  0  0  0  0  0  0  0  0
   19.6527   11.6162   32.7220 C   0  0  0  0  0  0  0  0  0  0  0  0
   19.4087   12.6933   33.0848 N   0  0  0  0  0  0  0  0  0  0  0  0
  1  2  1  0
  2  3  1  0
  2  4  2  0
  4  5  1  0
  4  6  1  0
  6  7  1  0
  6  8  1  0
  6  9  1  0
  9 10  1  0
 10 11  2  0
 11 12  1  0
 12 13  1  0
 13 14  1  0
 13 15  1  0
 15 16  2  0
 15 17  1  0
 17 18  1  0
 17 19  1  0
 17 20  1  0
 20 21  2  0
 21 22  1  0
 21 23  1  0
 23 24  1  0
 24 25  1  0
 25 26  1  0
 25 27  1  0
 25 28  1  0
 23 29  2  0
 29 30  1  0
 29 31  1  0
 31 32  1  0
 31 33  2  0
 33 34  1  0
 34 35  1  0
 35 36  1  0
 35 37  1  0
 35 38  1  0
 12 39  2  0
 39 40  1  0
 39 41  1  0
 41 42  1  0
 42 43  1  0
 42 44  1  0
 41 45  2  0
 45 46  1  0
 46 47  3  0
 45 10  1  0
 33 20  1  0
M  END
>  <score>  (13) 
7.00626

$$$$

     RDKit          3D

 42 43  0  0  0  0  0  0  0  0999 V2000
   22.8564   13.2468   33.5024 H   0  0  0  0  0  0  0  0  0  0  0  0
   22.4932   13.3415   32.5524 N   0  0  0  0  0  0  0  0  0  0  0  0
   22.3486   12.2918   31.8541 N   0  0  0  0  0  4  0  0  0  0  0  0
   22.2634   11.2128   31.1977 N   0  0  0  0  0  0  0  0  0  0  0  0
   21.4084   10.2303   31.6782 C   0  0  0  0  0  0  0  0  0  0  0  0
   21.7610    8.9896   31.3469 N   0  0  0  0  0  0  0  0  0  0  0  0
   21.0168    7.9823   31.7460 C   0  0  0  0  0  0  0  0  0  0  0  0
   21.5960    6.8274   31.3624 N   0  0  0  0  0  0  0  0  0  0  0  0
   22.4620    6.9568   30.8678 H   0  0  0  0  0  0  0  0  0  0  0  0
   20.9220    5.6645   31.1350 C   0  0  0  0  0  0  0  0  0  0  0  0
   19.7306    5.6020   31.3836 O   0  0  0  0  0  0  0  0  0  0  0  0
   21.6067    4.5549   30.3504 C   0  0  0  0  0  0  0  0  0  0  0  0
   21.6950    4.8917   29.3155 H   0  0  0  0  0  0  0  0  0  0  0  0
   20.9829    3.6577   30.3610 H   0  0  0  0  0  0  0  0  0  0  0  0
   22.9872    4.2536   30.8915 C   0  0  0  0  0  0  0  0  0  0  0  0
   23.1773    3.1433   31.7310 C   0  0  0  0  0  0  0  0  0  0  0  0
   22.3478    2.4904   31.9809 H   0  0  0  0  0  0  0  0  0  0  0  0
   24.4396    2.8468   32.2704 C   0  0  0  0  0  0  0  0  0  0  0  0
   24.6672    1.7847   33.1159 O   0  0  0  0  0  0  0  0  0  0  0  0
   23.6848    0.7402   33.1340 C   0  0  0  0  0  0  0  0  0  0  0  0
   24.0553   -0.0937   33.7370 H   0  0  0  0  0  0  0  0  0  0  0  0
   23.4930    0.3711   32.1209 H   0  0  0  0  0  0  0  0  0  0  0  0
   22.7472    1.0904   33.5767 H   0  0  0  0  0  0  0  0  0  0  0  0
   25.5203    3.6810   31.9439 C   0  0  0  0  0  0  0  0  0  0  0  0
   27.2684    3.3228   32.6353 Br  0  0  0  0  0  0  0  0  0  0  0  0
   25.3341    4.7866   31.1024 C   0  0  0  0  0  0  0  0  0  0  0  0
   26.1726    5.4239   30.8419 H   0  0  0  0  0  0  0  0  0  0  0  0
   24.0723    5.0938   30.5751 C   0  0  0  0  0  0  0  0  0  0  0  0
   23.8470    6.1890   29.7681 O   0  0  0  0  0  0  0  0  0  0  0  0
   24.9334    7.1107   29.5928 C   0  0  0  0  0  0  0  0  0  0  0  0
   25.2718    7.4948   30.5609 H   0  0  0  0  0  0  0  0  0  0  0  0
   24.6000    7.9580   28.9877 H   0  0  0  0  0  0  0  0  0  0  0  0
   25.7740    6.6346   29.0769 H   0  0  0  0  0  0  0  0  0  0  0  0
   19.8647    8.1225   32.4687 C   0  0  0  0  0  0  0  0  0  0  0  0
   19.2557    7.2801   32.7560 H   0  0  0  0  0  0  0  0  0  0  0  0
   19.5361    9.3837   32.8582 C   0  0  0  0  0  0  0  0  0  0  0  0
   18.4588    9.4822   33.6753 N   0  0  0  0  0  0  0  0  0  0  0  0
   18.1131   10.3995   33.9420 H   0  0  0  0  0  0  0  0  0  0  0  0
   17.9107    8.6473   33.8881 H   0  0  0  0  0  0  0  0  0  0  0  0
   20.2915   10.4805   32.4779 C   0  0  0  0  0  0  0  0  0  0  0  0
   19.9654   11.8098   32.8938 C   0  0  0  0  0  0  0  0  0  0  0  0
   19.7290   12.9003   33.2232 N   0  0  0  0  0  0  0  0  0  0  0  0
  1  2  1  0
  2  3  2  0
  3  4  2  0
  4  5  1  0
  5  6  2  0
  6  7  1  0
  7  8  1  0
  8  9  1  0
  8 10  1  0
 10 11  2  0
 10 12  1  0
 12 13  1  0
 12 14  1  0
 12 15  1  0
 15 16  2  0
 16 17  1  0
 16 18  1  0
 18 19  1  0
 19 20  1  0
 20 21  1  0
 20 22  1  0
 20 23  1  0
 18 24  2  0
 24 25  1  0
 24 26  1  0
 26 27  1  0
 26 28  2  0
 28 29  1  0
 29 30  1  0
 30 31  1  0
 30 32  1  0
 30 33  1  0
  7 34  2  0
 34 35  1  0
 34 36  1  0
 36 37  1  0
 37 38  1  0
 37 39  1  0
 36 40  2  0
 40 41  1  0
 41 42  3  0
 40  5  1  0
 28 15  1  0
M  CHG  1   3   1
M  END
>  <score>  (14) 
7.0289

$$$$

     RDKit          3D

 41 42  0  0  0  0  0  0  0  0999 V2000
   26.1774    5.4269   30.8512 H   0  0  0  0  0  0  0  0  0  0  0  0
   25.3310    4.7961   31.1000 C   0  0  0  0  0  0  0  0  0  0  0  0
   25.5243    3.6993   31.9459 C   0  0  0  0  0  0  0  0  0  0  0  0
   27.2772    3.3460   32.6390 Br  0  0  0  0  0  0  0  0  0  0  0  0
   24.4447    2.8566   32.2665 C   0  0  0  0  0  0  0  0  0  0  0  0
   24.6694    1.7858   33.1037 O   0  0  0  0  0  0  0  0  0  0  0  0
   23.6769    0.7478   33.1267 C   0  0  0  0  0  0  0  0  0  0  0  0
   24.0388   -0.0928   33.7310 H   0  0  0  0  0  0  0  0  0  0  0  0
   22.7405    1.1132   33.5605 H   0  0  0  0  0  0  0  0  0  0  0  0
   23.4770    0.3836   32.1137 H   0  0  0  0  0  0  0  0  0  0  0  0
   23.1742    3.1482   31.7337 C   0  0  0  0  0  0  0  0  0  0  0  0
   22.3358    2.5037   31.9843 H   0  0  0  0  0  0  0  0  0  0  0  0
   22.9767    4.2625   30.9004 C   0  0  0  0  0  0  0  0  0  0  0  0
   21.5988    4.5848   30.3639 C   0  0  0  0  0  0  0  0  0  0  0  0
   21.6802    4.8879   29.3179 H   0  0  0  0  0  0  0  0  0  0  0  0
   20.9612    3.7054   30.4153 H   0  0  0  0  0  0  0  0  0  0  0  0
   20.9359    5.7241   31.1260 C   0  0  0  0  0  0  0  0  0  0  0  0
   19.7504    5.6669   31.4142 O   0  0  0  0  0  0  0  0  0  0  0  0
   21.6278    6.8823   31.3156 N   0  0  0  0  0  0  0  0  0  0  0  0
   22.4963    7.0230   30.8240 H   0  0  0  0  0  0  0  0  0  0  0  0
   21.0526    8.0221   31.7210 C   0  0  0  0  0  0  0  0  0  0  0  0
   21.7945    9.0323   31.3577 N   0  0  0  0  0  0  0  0  0  0  0  0
   21.3769   10.1962   31.7721 C   0  0  0  0  0  0  0  0  0  0  0  0
   22.2596   11.1471   31.4507 N   0  0  0  0  0  0  0  0  0  0  0  0
   22.8649   10.8425   30.7024 H   0  0  0  0  0  0  0  0  0  0  0  0
   21.9182   12.0954   31.4717 H   0  0  0  0  0  0  0  0  0  0  0  0
   20.2476   10.4436   32.4895 C   0  0  0  0  0  0  0  0  0  0  0  0
   19.9241   11.7709   32.8890 C   0  0  0  0  0  0  0  0  0  0  0  0
   19.7467   12.8761   33.1939 N   0  0  0  0  0  0  0  0  0  0  0  0
   19.5097    9.3607   32.8399 C   0  0  0  0  0  0  0  0  0  0  0  0
   18.4386    9.4877   33.6450 N   0  0  0  0  0  0  0  0  0  0  0  0
   18.1377   10.4210   33.9227 H   0  0  0  0  0  0  0  0  0  0  0  0
   17.9070    8.6552   33.8892 H   0  0  0  0  0  0  0  0  0  0  0  0
   19.8879    8.1156   32.4466 C   0  0  0  0  0  0  0  0  0  0  0  0
   19.3120    7.2518   32.7290 H   0  0  0  0  0  0  0  0  0  0  0  0
   24.0652    5.0971   30.5765 C   0  0  0  0  0  0  0  0  0  0  0  0
   23.8465    6.1909   29.7674 O   0  0  0  0  0  0  0  0  0  0  0  0
   24.9362    7.1094   29.5968 C   0  0  0  0  0  0  0  0  0  0  0  0
   24.6075    7.9611   28.9908 H   0  0  0  0  0  0  0  0  0  0  0  0
   25.2779    7.4815   30.5676 H   0  0  0  0  0  0  0  0  0  0  0  0
   25.7781    6.6245   29.0926 H   0  0  0  0  0  0  0  0  0  0  0  0
  1  2  1  0
  2  3  2  0
  3  4  1  0
  3  5  1  0
  5  6  1  0
  6  7  1  0
  7  8  1  0
  7  9  1  0
  7 10  1  0
  5 11  2  0
 11 12  1  0
 11 13  1  0
 13 14  1  0
 14 15  1  0
 14 16  1  0
 14 17  1  0
 17 18  2  0
 17 19  1  0
 19 20  1  0
 19 21  1  0
 21 22  2  0
 22 23  1  0
 23 24  1  0
 24 25  1  0
 24 26  1  0
 23 27  2  0
 27 28  1  0
 28 29  3  0
 27 30  1  0
 30 31  1  0
 31 32  1  0
 31 33  1  0
 30 34  2  0
 34 35  1  0
 13 36  2  0
 36 37  1  0
 37 38  1  0
 38 39  1  0
 38 40  1  0
 38 41  1  0
 36  2  1  0
 34 21  1  0
M  END
>  <score>  (15) 
7.05634

$$$$

     RDKit          3D

 49 50  0  0  0  0  0  0  0  0999 V2000
   26.1503    5.4530   30.8627 H   0  0  0  0  0  0  0  0  0  0  0  0
   25.3133    4.8069   31.1097 C   0  0  0  0  0  0  0  0  0  0  0  0
   25.5149    3.7071   31.9490 C   0  0  0  0  0  0  0  0  0  0  0  0
   27.2769    3.4095   32.6455 Br  0  0  0  0  0  0  0  0  0  0  0  0
   24.4427    2.8550   32.2620 C   0  0  0  0  0  0  0  0  0  0  0  0
   24.6787    1.7798   33.0875 O   0  0  0  0  0  0  0  0  0  0  0  0
   23.6633    0.7676   33.1086 C   0  0  0  0  0  0  0  0  0  0  0  0
   23.9961   -0.0803   33.7135 H   0  0  0  0  0  0  0  0  0  0  0  0
   23.4592    0.4088   32.0951 H   0  0  0  0  0  0  0  0  0  0  0  0
   22.7364    1.1580   33.5386 H   0  0  0  0  0  0  0  0  0  0  0  0
   23.1726    3.1445   31.7269 C   0  0  0  0  0  0  0  0  0  0  0  0
   22.3464    2.4877   31.9788 H   0  0  0  0  0  0  0  0  0  0  0  0
   22.9632    4.2555   30.8942 C   0  0  0  0  0  0  0  0  0  0  0  0
   21.5653    4.5447   30.3735 C   0  0  0  0  0  0  0  0  0  0  0  0
   20.9363    3.6548   30.4443 H   0  0  0  0  0  0  0  0  0  0  0  0
   21.6263    4.8458   29.3252 H   0  0  0  0  0  0  0  0  0  0  0  0
   20.8986    5.6790   31.1355 C   0  0  0  0  0  0  0  0  0  0  0  0
   19.7197    5.6145   31.4584 O   0  0  0  0  0  0  0  0  0  0  0  0
   21.6067    6.8259   31.3205 N   0  0  0  0  0  0  0  0  0  0  0  0
   22.4795    6.9396   30.8255 H   0  0  0  0  0  0  0  0  0  0  0  0
   21.0656    7.9695   31.7780 C   0  0  0  0  0  0  0  0  0  0  0  0
   21.8173    8.9861   31.4243 N   0  0  0  0  0  0  0  0  0  0  0  0
   21.4157   10.2145   31.7608 C   0  0  0  0  0  0  0  0  0  0  0  0
   22.2931   11.3746   31.3511 C   0  0  0  0  0  0  0  0  0  0  0  0
   23.2522   11.0023   30.9755 H   0  0  0  0  0  0  0  0  0  0  0  0
   22.4742   11.9652   32.2382 H   0  0  0  0  0  0  0  0  0  0  0  0
   21.6813   12.2609   30.4052 O   0  0  0  0  0  0  0  0  0  0  0  0
   21.8410   11.8307   29.0561 C   0  0  0  0  0  0  0  0  0  0  0  0
   21.3784   10.8472   28.9166 H   0  0  0  0  0  0  0  0  0  0  0  0
   22.9022   11.7318   28.8002 H   0  0  0  0  0  0  0  0  0  0  0  0
   21.1710   12.8760   28.1795 C   0  0  0  0  0  0  0  0  0  0  0  0
   21.2090   12.5622   27.1466 H   0  0  0  0  0  0  0  0  0  0  0  0
   20.1218   12.9897   28.4510 H   0  0  0  0  0  0  0  0  0  0  0  0
   21.6638   13.8475   28.2750 H   0  0  0  0  0  0  0  0  0  0  0  0
   20.2550   10.4165   32.5052 C   0  0  0  0  0  0  0  0  0  0  0  0
   19.8735   11.7261   32.9245 C   0  0  0  0  0  0  0  0  0  0  0  0
   19.6192   12.8017   33.2801 N   0  0  0  0  0  0  0  0  0  0  0  0
   19.5099    9.3229   32.8734 C   0  0  0  0  0  0  0  0  0  0  0  0
   18.3768    9.4533   33.6160 N   0  0  0  0  0  0  0  0  0  0  0  0
   17.8666    8.6265   33.9102 H   0  0  0  0  0  0  0  0  0  0  0  0
   18.0818   10.3758   33.9259 H   0  0  0  0  0  0  0  0  0  0  0  0
   19.9025    8.0710   32.5014 C   0  0  0  0  0  0  0  0  0  0  0  0
   19.3277    7.1979   32.7632 H   0  0  0  0  0  0  0  0  0  0  0  0
   24.0463    5.1004   30.5779 C   0  0  0  0  0  0  0  0  0  0  0  0
   23.8192    6.2001   29.7807 O   0  0  0  0  0  0  0  0  0  0  0  0
   24.9323    7.0884   29.6109 C   0  0  0  0  0  0  0  0  0  0  0  0
   25.7612    6.5769   29.1104 H   0  0  0  0  0  0  0  0  0  0  0  0
   25.2812    7.4527   30.5828 H   0  0  0  0  0  0  0  0  0  0  0  0
   24.6332    7.9467   29.0036 H   0  0  0  0  0  0  0  0  0  0  0  0
  1  2  1  0
  2  3  2  0
  3  4  1  0
  3  5  1  0
  5  6  1  0
  6  7  1  0
  7  8  1  0
  7  9  1  0
  7 10  1  0
  5 11  2  0
 11 12  1  0
 11 13  1  0
 13 14  1  0
 14 15  1  0
 14 16  1  0
 14 17  1  0
 17 18  2  0
 17 19  1  0
 19 20  1  0
 19 21  1  0
 21 22  2  0
 22 23  1  0
 23 24  1  0
 24 25  1  0
 24 26  1  0
 24 27  1  0
 27 28  1  0
 28 29  1  0
 28 30  1  0
 28 31  1  0
 31 32  1  0
 31 33  1  0
 31 34  1  0
 23 35  2  0
 35 36  1  0
 36 37  3  0
 35 38  1  0
 38 39  1  0
 39 40  1  0
 39 41  1  0
 38 42  2  0
 42 43  1  0
 13 44  2  0
 44 45  1  0
 45 46  1  0
 46 47  1  0
 46 48  1  0
 46 49  1  0
 44  2  1  0
 42 21  1  0
M  END
>  <score>  (16) 
7.05683

$$$$

     RDKit          3D

 43 44  0  0  0  0  0  0  0  0999 V2000
   26.0869    5.4882   30.8807 H   0  0  0  0  0  0  0  0  0  0  0  0
   25.2611    4.8286   31.1231 C   0  0  0  0  0  0  0  0  0  0  0  0
   25.4864    3.7309   31.9532 C   0  0  0  0  0  0  0  0  0  0  0  0
   27.2453    3.4558   32.6623 Br  0  0  0  0  0  0  0  0  0  0  0  0
   24.4304    2.8603   32.2555 C   0  0  0  0  0  0  0  0  0  0  0  0
   24.6732    1.7740   33.0605 O   0  0  0  0  0  0  0  0  0  0  0  0
   23.6365    0.7841   33.0884 C   0  0  0  0  0  0  0  0  0  0  0  0
   23.4229    0.4256   32.0757 H   0  0  0  0  0  0  0  0  0  0  0  0
   23.9497   -0.0663   33.6992 H   0  0  0  0  0  0  0  0  0  0  0  0
   22.7195    1.2020   33.5153 H   0  0  0  0  0  0  0  0  0  0  0  0
   23.1568    3.1275   31.7244 C   0  0  0  0  0  0  0  0  0  0  0  0
   22.3397    2.4569   31.9698 H   0  0  0  0  0  0  0  0  0  0  0  0
   22.9274    4.2238   30.8864 C   0  0  0  0  0  0  0  0  0  0  0  0
   21.5197    4.4576   30.3731 C   0  0  0  0  0  0  0  0  0  0  0  0
   20.9216    3.5459   30.4475 H   0  0  0  0  0  0  0  0  0  0  0  0
   21.5521    4.7539   29.3195 H   0  0  0  0  0  0  0  0  0  0  0  0
   20.8555    5.5534   31.1944 C   0  0  0  0  0  0  0  0  0  0  0  0
   19.6829    5.4734   31.5384 O   0  0  0  0  0  0  0  0  0  0  0  0
   21.5725    6.6878   31.4160 N   0  0  0  0  0  0  0  0  0  0  0  0
   22.4310    6.7990   30.8931 H   0  0  0  0  0  0  0  0  0  0  0  0
   21.0591    7.8472   31.8644 C   0  0  0  0  0  0  0  0  0  0  0  0
   21.7948    8.8594   31.4481 N   0  0  0  0  0  0  0  0  0  0  0  0
   21.4410   10.1444   31.7089 C   0  0  0  0  0  0  0  0  0  0  0  0
   22.1714   11.3039   31.0107 C   0  0  0  0  0  0  0  0  0  0  0  0
   21.8695   12.4809   31.1896 O   0  0  0  0  0  0  0  0  0  0  0  0
   23.1626   11.1852   30.0470 N   0  0  0  0  0  0  0  0  0  0  0  0
   23.3250   12.0242   29.4924 H   0  0  0  0  0  0  0  0  0  0  0  0
   23.3693   10.2741   29.6430 H   0  0  0  0  0  0  0  0  0  0  0  0
   20.3231   10.3603   32.5426 C   0  0  0  0  0  0  0  0  0  0  0  0
   19.9237   11.6743   32.9431 C   0  0  0  0  0  0  0  0  0  0  0  0
   19.6314   12.7622   33.2357 N   0  0  0  0  0  0  0  0  0  0  0  0
   19.5624    9.2661   32.9163 C   0  0  0  0  0  0  0  0  0  0  0  0
   18.3899    9.4297   33.5645 N   0  0  0  0  0  0  0  0  0  0  0  0
   17.9173    8.6191   33.9538 H   0  0  0  0  0  0  0  0  0  0  0  0
   18.1767   10.3590   33.9050 H   0  0  0  0  0  0  0  0  0  0  0  0
   19.9099    7.9963   32.5810 C   0  0  0  0  0  0  0  0  0  0  0  0
   19.2996    7.1542   32.8602 H   0  0  0  0  0  0  0  0  0  0  0  0
   23.9921    5.1041   30.5881 C   0  0  0  0  0  0  0  0  0  0  0  0
   23.7785    6.2144   29.7986 O   0  0  0  0  0  0  0  0  0  0  0  0
   24.9178    7.0733   29.6165 C   0  0  0  0  0  0  0  0  0  0  0  0
   25.2799    7.4341   30.5853 H   0  0  0  0  0  0  0  0  0  0  0  0
   24.6513    7.9365   29.0014 H   0  0  0  0  0  0  0  0  0  0  0  0
   25.7317    6.5325   29.1213 H   0  0  0  0  0  0  0  0  0  0  0  0
  1  2  1  0
  2  3  2  0
  3  4  1  0
  3  5  1  0
  5  6  1  0
  6  7  1  0
  7  8  1  0
  7  9  1  0
  7 10  1  0
  5 11  2  0
 11 12  1  0
 11 13  1  0
 13 14  1  0
 14 15  1  0
 14 16  1  0
 14 17  1  0
 17 18  2  0
 17 19  1  0
 19 20  1  0
 19 21  1  0
 21 22  2  0
 22 23  1  0
 23 24  1  0
 24 25  2  0
 24 26  1  0
 26 27  1  0
 26 28  1  0
 23 29  2  0
 29 30  1  0
 30 31  3  0
 29 32  1  0
 32 33  1  0
 33 34  1  0
 33 35  1  0
 32 36  2  0
 36 37  1  0
 13 38  2  0
 38 39  1  0
 39 40  1  0
 40 41  1  0
 40 42  1  0
 40 43  1  0
 38  2  1  0
 36 21  1  0
M  END
>  <score>  (17) 
7.05714

$$$$

     RDKit          3D

 46 47  0  0  0  0  0  0  0  0999 V2000
   21.4190   11.4717   28.1272 H   0  0  0  0  0  0  0  0  0  0  0  0
   21.6980   11.0767   28.9701 O   0  0  0  0  0  0  0  0  0  0  0  0
   21.7218   12.0564   29.9951 C   0  0  0  0  0  0  0  0  0  0  0  0
   20.7126   12.4479   30.1714 H   0  0  0  0  0  0  0  0  0  0  0  0
   22.3670   12.8920   29.7032 H   0  0  0  0  0  0  0  0  0  0  0  0
   22.2815   11.3767   31.2267 C   0  0  0  0  0  0  0  0  0  0  0  0
   23.2725   10.9781   31.0040 H   0  0  0  0  0  0  0  0  0  0  0  0
   22.3743   12.1041   32.0336 H   0  0  0  0  0  0  0  0  0  0  0  0
   21.3884   10.2550   31.6521 C   0  0  0  0  0  0  0  0  0  0  0  0
   21.7494    9.0146   31.3327 N   0  0  0  0  0  0  0  0  0  0  0  0
   20.9991    8.0117   31.7400 C   0  0  0  0  0  0  0  0  0  0  0  0
   21.5695    6.8456   31.3685 N   0  0  0  0  0  0  0  0  0  0  0  0
   22.4558    6.9561   30.8954 H   0  0  0  0  0  0  0  0  0  0  0  0
   20.8972    5.6771   31.1528 C   0  0  0  0  0  0  0  0  0  0  0  0
   19.7052    5.5820   31.3984 O   0  0  0  0  0  0  0  0  0  0  0  0
   21.5962    4.5752   30.3657 C   0  0  0  0  0  0  0  0  0  0  0  0
   21.6831    4.9222   29.3334 H   0  0  0  0  0  0  0  0  0  0  0  0
   20.9768    3.6736   30.3706 H   0  0  0  0  0  0  0  0  0  0  0  0
   22.9806    4.2681   30.9030 C   0  0  0  0  0  0  0  0  0  0  0  0
   23.1744    3.1530   31.7364 C   0  0  0  0  0  0  0  0  0  0  0  0
   22.3432    2.5016   31.9817 H   0  0  0  0  0  0  0  0  0  0  0  0
   24.4383    2.8500   32.2699 C   0  0  0  0  0  0  0  0  0  0  0  0
   24.6660    1.7838   33.1111 O   0  0  0  0  0  0  0  0  0  0  0  0
   23.6823    0.7415   33.1323 C   0  0  0  0  0  0  0  0  0  0  0  0
   23.4906    0.3721   32.1191 H   0  0  0  0  0  0  0  0  0  0  0  0
   24.0520   -0.0925   33.7364 H   0  0  0  0  0  0  0  0  0  0  0  0
   22.7465    1.0953   33.5764 H   0  0  0  0  0  0  0  0  0  0  0  0
   25.5195    3.6832   31.9438 C   0  0  0  0  0  0  0  0  0  0  0  0
   27.2695    3.3311   32.6336 Br  0  0  0  0  0  0  0  0  0  0  0  0
   25.3344    4.7878   31.1032 C   0  0  0  0  0  0  0  0  0  0  0  0
   26.1777    5.4191   30.8458 H   0  0  0  0  0  0  0  0  0  0  0  0
   24.0717    5.0988   30.5790 C   0  0  0  0  0  0  0  0  0  0  0  0
   23.8524    6.1844   29.7589 O   0  0  0  0  0  0  0  0  0  0  0  0
   24.9334    7.1115   29.5927 C   0  0  0  0  0  0  0  0  0  0  0  0
   24.5962    7.9595   28.9904 H   0  0  0  0  0  0  0  0  0  0  0  0
   25.7773    6.6406   29.0768 H   0  0  0  0  0  0  0  0  0  0  0  0
   25.2641    7.4918   30.5652 H   0  0  0  0  0  0  0  0  0  0  0  0
   19.8483    8.1690   32.4724 C   0  0  0  0  0  0  0  0  0  0  0  0
   19.2320    7.3492   32.8086 H   0  0  0  0  0  0  0  0  0  0  0  0
   19.5036    9.4393   32.8191 C   0  0  0  0  0  0  0  0  0  0  0  0
   18.4252    9.6217   33.6225 N   0  0  0  0  0  0  0  0  0  0  0  0
   17.7237   10.2280   33.2076 H   0  0  0  0  0  0  0  0  0  0  0  0
   18.6955    9.9289   34.5520 H   0  0  0  0  0  0  0  0  0  0  0  0
   20.2638   10.5115   32.4207 C   0  0  0  0  0  0  0  0  0  0  0  0
   19.9474   11.8345   32.8428 C   0  0  0  0  0  0  0  0  0  0  0  0
   19.7545   12.9344   33.1754 N   0  0  0  0  0  0  0  0  0  0  0  0
  1  2  1  0
  2  3  1  0
  3  4  1  0
  3  5  1  0
  3  6  1  0
  6  7  1  0
  6  8  1  0
  6  9  1  0
  9 10  2  0
 10 11  1  0
 11 12  1  0
 12 13  1  0
 12 14  1  0
 14 15  2  0
 14 16  1  0
 16 17  1  0
 16 18  1  0
 16 19  1  0
 19 20  2  0
 20 21  1  0
 20 22  1  0
 22 23  1  0
 23 24  1  0
 24 25  1  0
 24 26  1  0
 24 27  1  0
 22 28  2  0
 28 29  1  0
 28 30  1  0
 30 31  1  0
 30 32  2  0
 32 33  1  0
 33 34  1  0
 34 35  1  0
 34 36  1  0
 34 37  1  0
 11 38  2  0
 38 39  1  0
 38 40  1  0
 40 41  1  0
 41 42  1  0
 41 43  1  0
 40 44  2  0
 44 45  1  0
 45 46  3  0
 44  9  1  0
 32 19  1  0
M  END
>  <score>  (18) 
7.06999

$$$$

     RDKit          3D

 46 47  0  0  0  0  0  0  0  0999 V2000
   26.1725    5.4260   30.8478 H   0  0  0  0  0  0  0  0  0  0  0  0
   25.3316    4.7900   31.1012 C   0  0  0  0  0  0  0  0  0  0  0  0
   25.5232    3.6906   31.9463 C   0  0  0  0  0  0  0  0  0  0  0  0
   27.2745    3.3367   32.6387 Br  0  0  0  0  0  0  0  0  0  0  0  0
   24.4438    2.8524   32.2707 C   0  0  0  0  0  0  0  0  0  0  0  0
   24.6697    1.7864   33.1120 O   0  0  0  0  0  0  0  0  0  0  0  0
   23.6804    0.7460   33.1305 C   0  0  0  0  0  0  0  0  0  0  0  0
   24.0441   -0.0935   33.7335 H   0  0  0  0  0  0  0  0  0  0  0  0
   22.7422    1.1045   33.5666 H   0  0  0  0  0  0  0  0  0  0  0  0
   23.4836    0.3805   32.1169 H   0  0  0  0  0  0  0  0  0  0  0  0
   23.1777    3.1406   31.7323 C   0  0  0  0  0  0  0  0  0  0  0  0
   22.3417    2.4947   31.9839 H   0  0  0  0  0  0  0  0  0  0  0  0
   22.9852    4.2444   30.8870 C   0  0  0  0  0  0  0  0  0  0  0  0
   21.6073    4.5387   30.3428 C   0  0  0  0  0  0  0  0  0  0  0  0
   21.6891    4.8760   29.3079 H   0  0  0  0  0  0  0  0  0  0  0  0
   20.9889    3.6406   30.3657 H   0  0  0  0  0  0  0  0  0  0  0  0
   20.9222    5.6394   31.1331 C   0  0  0  0  0  0  0  0  0  0  0  0
   19.7329    5.5695   31.3893 O   0  0  0  0  0  0  0  0  0  0  0  0
   21.6086    6.7931   31.3636 N   0  0  0  0  0  0  0  0  0  0  0  0
   22.4579    6.9432   30.8400 H   0  0  0  0  0  0  0  0  0  0  0  0
   21.0255    7.9355   31.7457 C   0  0  0  0  0  0  0  0  0  0  0  0
   21.7558    8.9534   31.3653 N   0  0  0  0  0  0  0  0  0  0  0  0
   21.3697   10.1769   31.7159 C   0  0  0  0  0  0  0  0  0  0  0  0
   22.4484   11.4858   31.2395 S   0  0  0  0  0  0  0  0  0  0  0  0
   21.8528   11.8056   29.5279 C   0  0  0  0  0  0  0  0  0  0  0  0
   21.6427   10.8624   29.0088 H   0  0  0  0  0  0  0  0  0  0  0  0
   22.6256   12.3417   28.9651 H   0  0  0  0  0  0  0  0  0  0  0  0
   20.5942   12.6586   29.6130 C   0  0  0  0  0  0  0  0  0  0  0  0
   19.8940   12.2051   30.3193 H   0  0  0  0  0  0  0  0  0  0  0  0
   20.1156   12.7662   28.6303 H   0  0  0  0  0  0  0  0  0  0  0  0
   20.8492   13.6525   29.9857 H   0  0  0  0  0  0  0  0  0  0  0  0
   20.2344   10.3933   32.4762 C   0  0  0  0  0  0  0  0  0  0  0  0
   19.8798   11.7062   32.9024 C   0  0  0  0  0  0  0  0  0  0  0  0
   19.6253   12.7853   33.2449 N   0  0  0  0  0  0  0  0  0  0  0  0
   19.4929    9.2999   32.8363 C   0  0  0  0  0  0  0  0  0  0  0  0
   18.4064    9.3805   33.6397 N   0  0  0  0  0  0  0  0  0  0  0  0
   17.5512    9.1235   33.1544 H   0  0  0  0  0  0  0  0  0  0  0  0
   18.5460    8.8654   34.5047 H   0  0  0  0  0  0  0  0  0  0  0  0
   19.8618    8.0474   32.4589 C   0  0  0  0  0  0  0  0  0  0  0  0
   19.2755    7.1905   32.7473 H   0  0  0  0  0  0  0  0  0  0  0  0
   24.0684    5.0890   30.5698 C   0  0  0  0  0  0  0  0  0  0  0  0
   23.8473    6.1817   29.7570 O   0  0  0  0  0  0  0  0  0  0  0  0
   24.9321    7.1091   29.5940 C   0  0  0  0  0  0  0  0  0  0  0  0
   25.2693    7.4841   30.5663 H   0  0  0  0  0  0  0  0  0  0  0  0
   25.7788    6.6355   29.0856 H   0  0  0  0  0  0  0  0  0  0  0  0
   24.6006    7.9613   28.9916 H   0  0  0  0  0  0  0  0  0  0  0  0
  1  2  1  0
  2  3  2  0
  3  4  1  0
  3  5  1  0
  5  6  1  0
  6  7  1  0
  7  8  1  0
  7  9  1  0
  7 10  1  0
  5 11  2  0
 11 12  1  0
 11 13  1  0
 13 14  1  0
 14 15  1  0
 14 16  1  0
 14 17  1  0
 17 18  2  0
 17 19  1  0
 19 20  1  0
 19 21  1  0
 21 22  2  0
 22 23  1  0
 23 24  1  0
 24 25  1  0
 25 26  1  0
 25 27  1  0
 25 28  1  0
 28 29  1  0
 28 30  1  0
 28 31  1  0
 23 32  2  0
 32 33  1  0
 33 34  3  0
 32 35  1  0
 35 36  1  0
 36 37  1  0
 36 38  1  0
 35 39  2  0
 39 40  1  0
 13 41  2  0
 41 42  1  0
 42 43  1  0
 43 44  1  0
 43 45  1  0
 43 46  1  0
 41  2  1  0
 39 21  1  0
M  END
>  <score>  (19) 
7.07483

$$$$

     RDKit          3D

 53 54  0  0  0  0  0  0  0  0999 V2000
   26.1612    5.4396   30.8560 H   0  0  0  0  0  0  0  0  0  0  0  0
   25.3191    4.8029   31.1029 C   0  0  0  0  0  0  0  0  0  0  0  0
   25.5196    3.7062   31.9465 C   0  0  0  0  0  0  0  0  0  0  0  0
   27.2776    3.3829   32.6421 Br  0  0  0  0  0  0  0  0  0  0  0  0
   24.4452    2.8597   32.2642 C   0  0  0  0  0  0  0  0  0  0  0  0
   24.6742    1.7847   33.0951 O   0  0  0  0  0  0  0  0  0  0  0  0
   23.6683    0.7618   33.1158 C   0  0  0  0  0  0  0  0  0  0  0  0
   22.7353    1.1414   33.5455 H   0  0  0  0  0  0  0  0  0  0  0  0
   24.0117   -0.0861   33.7199 H   0  0  0  0  0  0  0  0  0  0  0  0
   23.4654    0.4016   32.1017 H   0  0  0  0  0  0  0  0  0  0  0  0
   23.1728    3.1464   31.7322 C   0  0  0  0  0  0  0  0  0  0  0  0
   22.3386    2.4984   31.9837 H   0  0  0  0  0  0  0  0  0  0  0  0
   22.9689    4.2547   30.8950 C   0  0  0  0  0  0  0  0  0  0  0  0
   21.5804    4.5572   30.3691 C   0  0  0  0  0  0  0  0  0  0  0  0
   21.6465    4.8711   29.3234 H   0  0  0  0  0  0  0  0  0  0  0  0
   20.9490    3.6706   30.4338 H   0  0  0  0  0  0  0  0  0  0  0  0
   20.9188    5.6820   31.1408 C   0  0  0  0  0  0  0  0  0  0  0  0
   19.7323    5.6288   31.4291 O   0  0  0  0  0  0  0  0  0  0  0  0
   21.6235    6.8329   31.3038 N   0  0  0  0  0  0  0  0  0  0  0  0
   22.4911    6.9369   30.7976 H   0  0  0  0  0  0  0  0  0  0  0  0
   21.0645    7.9899   31.7017 C   0  0  0  0  0  0  0  0  0  0  0  0
   21.7929    9.0044   31.2998 N   0  0  0  0  0  0  0  0  0  0  0  0
   21.3827   10.2304   31.6121 C   0  0  0  0  0  0  0  0  0  0  0  0
   22.2890   11.3609   31.2450 C   0  0  0  0  0  0  0  0  0  0  0  0
   21.7514   12.3100   31.2915 H   0  0  0  0  0  0  0  0  0  0  0  0
   23.1041   11.3759   31.9514 H   0  0  0  0  0  0  0  0  0  0  0  0
   22.9079   11.1751   29.8845 C   0  0  0  0  0  0  0  0  0  0  0  0
   23.4645   10.2327   29.8639 H   0  0  0  0  0  0  0  0  0  0  0  0
   23.6271   11.9744   29.6841 H   0  0  0  0  0  0  0  0  0  0  0  0
   21.8484   11.1760   28.8733 N   0  0  0  0  0  0  0  0  0  0  0  0
   22.1668   10.2744   27.7585 C   0  0  0  0  0  0  0  0  0  0  0  0
   21.4451   10.3700   26.9410 H   0  0  0  0  0  0  0  0  0  0  0  0
   22.1577    9.2383   28.1160 H   0  0  0  0  0  0  0  0  0  0  0  0
   23.1653   10.5017   27.3664 H   0  0  0  0  0  0  0  0  0  0  0  0
   21.3193   12.5166   28.5487 C   0  0  0  0  0  0  0  0  0  0  0  0
   20.7682   12.9143   29.4046 H   0  0  0  0  0  0  0  0  0  0  0  0
   20.6325   12.4862   27.6964 H   0  0  0  0  0  0  0  0  0  0  0  0
   22.1389   13.1994   28.3100 H   0  0  0  0  0  0  0  0  0  0  0  0
   20.2517   10.4433   32.3888 C   0  0  0  0  0  0  0  0  0  0  0  0
   19.9142   11.7508   32.8302 C   0  0  0  0  0  0  0  0  0  0  0  0
   19.7095   12.8304   33.2113 N   0  0  0  0  0  0  0  0  0  0  0  0
   19.5280    9.3562   32.7999 C   0  0  0  0  0  0  0  0  0  0  0  0
   18.4611    9.4949   33.6240 N   0  0  0  0  0  0  0  0  0  0  0  0
   18.1369   10.4277   33.8775 H   0  0  0  0  0  0  0  0  0  0  0  0
   17.9255    8.6671   33.8717 H   0  0  0  0  0  0  0  0  0  0  0  0
   19.9125    8.1029   32.4375 C   0  0  0  0  0  0  0  0  0  0  0  0
   19.3449    7.2442   32.7525 H   0  0  0  0  0  0  0  0  0  0  0  0
   24.0514    5.0973   30.5754 C   0  0  0  0  0  0  0  0  0  0  0  0
   23.8315    6.1940   29.7684 O   0  0  0  0  0  0  0  0  0  0  0  0
   24.9312    7.0993   29.6035 C   0  0  0  0  0  0  0  0  0  0  0  0
   25.7714    6.6021   29.1071 H   0  0  0  0  0  0  0  0  0  0  0  0
   24.6197    7.9550   28.9949 H   0  0  0  0  0  0  0  0  0  0  0  0
   25.2722    7.4678   30.5768 H   0  0  0  0  0  0  0  0  0  0  0  0
  1  2  1  0
  2  3  2  0
  3  4  1  0
  3  5  1  0
  5  6  1  0
  6  7  1  0
  7  8  1  0
  7  9  1  0
  7 10  1  0
  5 11  2  0
 11 12  1  0
 11 13  1  0
 13 14  1  0
 14 15  1  0
 14 16  1  0
 14 17  1  0
 17 18  2  0
 17 19  1  0
 19 20  1  0
 19 21  1  0
 21 22  2  0
 22 23  1  0
 23 24  1  0
 24 25  1  0
 24 26  1  0
 24 27  1  0
 27 28  1  0
 27 29  1  0
 27 30  1  0
 30 31  1  0
 31 32  1  0
 31 33  1  0
 31 34  1  0
 30 35  1  0
 35 36  1  0
 35 37  1  0
 35 38  1  0
 23 39  2  0
 39 40  1  0
 40 41  3  0
 39 42  1  0
 42 43  1  0
 43 44  1  0
 43 45  1  0
 42 46  2  0
 46 47  1  0
 13 48  2  0
 48 49  1  0
 49 50  1  0
 50 51  1  0
 50 52  1  0
 50 53  1  0
 48  2  1  0
 46 21  1  0
M  END
>  <score>  (20) 
7.07936

$$$$

     RDKit          3D

 41 42  0  0  0  0  0  0  0  0999 V2000
   26.1868    5.4144   30.8454 H   0  0  0  0  0  0  0  0  0  0  0  0
   25.3428    4.7828   31.1023 C   0  0  0  0  0  0  0  0  0  0  0  0
   25.5230    3.6764   31.9448 C   0  0  0  0  0  0  0  0  0  0  0  0
   27.2713    3.3107   32.6351 Br  0  0  0  0  0  0  0  0  0  0  0  0
   24.4391    2.8460   32.2723 C   0  0  0  0  0  0  0  0  0  0  0  0
   24.6647    1.7836   33.1195 O   0  0  0  0  0  0  0  0  0  0  0  0
   23.6878    0.7350   33.1391 C   0  0  0  0  0  0  0  0  0  0  0  0
   23.4958    0.3636   32.1273 H   0  0  0  0  0  0  0  0  0  0  0  0
   22.7492    1.0799   33.5830 H   0  0  0  0  0  0  0  0  0  0  0  0
   24.0653   -0.0958   33.7419 H   0  0  0  0  0  0  0  0  0  0  0  0
   23.1778    3.1463   31.7321 C   0  0  0  0  0  0  0  0  0  0  0  0
   22.3430    2.4998   31.9806 H   0  0  0  0  0  0  0  0  0  0  0  0
   22.9918    4.2540   30.8870 C   0  0  0  0  0  0  0  0  0  0  0  0
   21.6111    4.5537   30.3390 C   0  0  0  0  0  0  0  0  0  0  0  0
   20.9942    3.6482   30.3401 H   0  0  0  0  0  0  0  0  0  0  0  0
   21.7103    4.8918   29.3043 H   0  0  0  0  0  0  0  0  0  0  0  0
   20.9154    5.6589   31.1289 C   0  0  0  0  0  0  0  0  0  0  0  0
   19.7255    5.5711   31.3871 O   0  0  0  0  0  0  0  0  0  0  0  0
   21.5794    6.8203   31.3762 N   0  0  0  0  0  0  0  0  0  0  0  0
   22.4633    6.9580   30.9114 H   0  0  0  0  0  0  0  0  0  0  0  0
   20.9915    7.9638   31.7424 C   0  0  0  0  0  0  0  0  0  0  0  0
   21.7437    8.9529   31.3568 N   0  0  0  0  0  0  0  0  0  0  0  0
   21.3712   10.1671   31.7129 C   0  0  0  0  0  0  0  0  0  0  0  0
   22.2146   11.1380   31.2854 N   0  0  0  0  0  0  0  0  0  0  0  0
   23.2101   11.2190   30.6377 C   0  0  0  0  0  0  0  0  0  0  0  0
   24.5250   11.2223   29.7604 S   0  0  0  0  0  0  0  0  0  0  0  0
   20.2673   10.4509   32.4708 C   0  0  0  0  0  0  0  0  0  0  0  0
   19.9723   11.7877   32.8647 C   0  0  0  0  0  0  0  0  0  0  0  0
   19.7388   12.8841   33.1801 N   0  0  0  0  0  0  0  0  0  0  0  0
   19.5163    9.3691   32.8412 C   0  0  0  0  0  0  0  0  0  0  0  0
   18.4566    9.4996   33.6518 N   0  0  0  0  0  0  0  0  0  0  0  0
   17.9188    8.6737   33.8970 H   0  0  0  0  0  0  0  0  0  0  0  0
   18.1523   10.4223   33.9388 H   0  0  0  0  0  0  0  0  0  0  0  0
   19.8375    8.1026   32.4621 C   0  0  0  0  0  0  0  0  0  0  0  0
   19.2311    7.2630   32.7681 H   0  0  0  0  0  0  0  0  0  0  0  0
   24.0820    5.0913   30.5714 C   0  0  0  0  0  0  0  0  0  0  0  0
   23.8592    6.1808   29.7555 O   0  0  0  0  0  0  0  0  0  0  0  0
   24.9323    7.1179   29.5883 C   0  0  0  0  0  0  0  0  0  0  0  0
   24.5885    7.9589   28.9796 H   0  0  0  0  0  0  0  0  0  0  0  0
   25.7833    6.6545   29.0790 H   0  0  0  0  0  0  0  0  0  0  0  0
   25.2590    7.5085   30.5574 H   0  0  0  0  0  0  0  0  0  0  0  0
  1  2  1  0
  2  3  2  0
  3  4  1  0
  3  5  1  0
  5  6  1  0
  6  7  1  0
  7  8  1  0
  7  9  1  0
  7 10  1  0
  5 11  2  0
 11 12  1  0
 11 13  1  0
 13 14  1  0
 14 15  1  0
 14 16  1  0
 14 17  1  0
 17 18  2  0
 17 19  1  0
 19 20  1  0
 19 21  1  0
 21 22  2  0
 22 23  1  0
 23 24  1  0
 24 25  2  0
 25 26  2  0
 23 27  2  0
 27 28  1  0
 28 29  3  0
 27 30  1  0
 30 31  1  0
 31 32  1  0
 31 33  1  0
 30 34  2  0
 34 35  1  0
 13 36  2  0
 36 37  1  0
 37 38  1  0
 38 39  1  0
 38 40  1  0
 38 41  1  0
 36  2  1  0
 34 21  1  0
M  END
>  <score>  (21) 
7.0808

$$$$

     RDKit          3D

 46 47  0  0  0  0  0  0  0  0999 V2000
   26.1629    5.4344   30.8539 H   0  0  0  0  0  0  0  0  0  0  0  0
   25.3227    4.7958   31.1016 C   0  0  0  0  0  0  0  0  0  0  0  0
   25.5234    3.6980   31.9448 C   0  0  0  0  0  0  0  0  0  0  0  0
   27.2772    3.3640   32.6410 Br  0  0  0  0  0  0  0  0  0  0  0  0
   24.4492    2.8519   32.2675 C   0  0  0  0  0  0  0  0  0  0  0  0
   24.6745    1.7833   33.1071 O   0  0  0  0  0  0  0  0  0  0  0  0
   23.6768    0.7512   33.1257 C   0  0  0  0  0  0  0  0  0  0  0  0
   22.7411    1.1199   33.5574 H   0  0  0  0  0  0  0  0  0  0  0  0
   24.0292   -0.0934   33.7281 H   0  0  0  0  0  0  0  0  0  0  0  0
   23.4783    0.3907   32.1115 H   0  0  0  0  0  0  0  0  0  0  0  0
   23.1791    3.1345   31.7315 C   0  0  0  0  0  0  0  0  0  0  0  0
   22.3472    2.4822   31.9814 H   0  0  0  0  0  0  0  0  0  0  0  0
   22.9741    4.2412   30.8903 C   0  0  0  0  0  0  0  0  0  0  0  0
   21.5874    4.5384   30.3556 C   0  0  0  0  0  0  0  0  0  0  0  0
   21.6610    4.8833   29.3200 H   0  0  0  0  0  0  0  0  0  0  0  0
   20.9740    3.6358   30.3834 H   0  0  0  0  0  0  0  0  0  0  0  0
   20.8988    5.6360   31.1477 C   0  0  0  0  0  0  0  0  0  0  0  0
   19.7085    5.5705   31.4045 O   0  0  0  0  0  0  0  0  0  0  0  0
   21.5881    6.7897   31.3551 N   0  0  0  0  0  0  0  0  0  0  0  0
   22.4436    6.9122   30.8290 H   0  0  0  0  0  0  0  0  0  0  0  0
   21.0162    7.9456   31.7340 C   0  0  0  0  0  0  0  0  0  0  0  0
   21.7392    8.9646   31.3141 N   0  0  0  0  0  0  0  0  0  0  0  0
   21.4028   10.2405   31.6325 C   0  0  0  0  0  0  0  0  0  0  0  0
   22.2599   11.4280   31.1509 C   0  0  0  0  0  0  0  0  0  0  0  0
   22.8412   11.4056   30.0623 O   0  0  0  0  0  0  0  0  0  0  0  0
   22.4470   12.5846   31.9195 N   0  0  0  0  0  0  0  0  0  0  0  0
   22.0495   12.5929   32.8575 H   0  0  0  0  0  0  0  0  0  0  0  0
   23.4933   13.5655   31.6289 C   0  0  0  0  0  0  0  0  0  0  0  0
   23.1239   14.3201   30.9260 H   0  0  0  0  0  0  0  0  0  0  0  0
   23.8074   14.0720   32.5463 H   0  0  0  0  0  0  0  0  0  0  0  0
   24.3737   13.0662   31.2052 H   0  0  0  0  0  0  0  0  0  0  0  0
   20.2742   10.4416   32.4543 C   0  0  0  0  0  0  0  0  0  0  0  0
   19.9034   11.7487   32.8907 C   0  0  0  0  0  0  0  0  0  0  0  0
   19.6806   12.8231   33.2731 N   0  0  0  0  0  0  0  0  0  0  0  0
   19.5284    9.3511   32.8559 C   0  0  0  0  0  0  0  0  0  0  0  0
   18.4584    9.4823   33.6818 N   0  0  0  0  0  0  0  0  0  0  0  0
   18.1220   10.4145   33.9161 H   0  0  0  0  0  0  0  0  0  0  0  0
   17.9034    8.6533   33.8870 H   0  0  0  0  0  0  0  0  0  0  0  0
   19.8782    8.0926   32.4752 C   0  0  0  0  0  0  0  0  0  0  0  0
   19.2927    7.2478   32.7891 H   0  0  0  0  0  0  0  0  0  0  0  0
   24.0558    5.0886   30.5739 C   0  0  0  0  0  0  0  0  0  0  0  0
   23.8355    6.1832   29.7648 O   0  0  0  0  0  0  0  0  0  0  0  0
   24.9285    7.0994   29.5998 C   0  0  0  0  0  0  0  0  0  0  0  0
   25.2696    7.4701   30.5714 H   0  0  0  0  0  0  0  0  0  0  0  0
   25.7708    6.6152   29.0957 H   0  0  0  0  0  0  0  0  0  0  0  0
   24.6076    7.9544   28.9961 H   0  0  0  0  0  0  0  0  0  0  0  0
  1  2  1  0
  2  3  2  0
  3  4  1  0
  3  5  1  0
  5  6  1  0
  6  7  1  0
  7  8  1  0
  7  9  1  0
  7 10  1  0
  5 11  2  0
 11 12  1  0
 11 13  1  0
 13 14  1  0
 14 15  1  0
 14 16  1  0
 14 17  1  0
 17 18  2  0
 17 19  1  0
 19 20  1  0
 19 21  1  0
 21 22  2  0
 22 23  1  0
 23 24  1  0
 24 25  2  0
 24 26  1  0
 26 27  1  0
 26 28  1  0
 28 29  1  0
 28 30  1  0
 28 31  1  0
 23 32  2  0
 32 33  1  0
 33 34  3  0
 32 35  1  0
 35 36  1  0
 36 37  1  0
 36 38  1  0
 35 39  2  0
 39 40  1  0
 13 41  2  0
 41 42  1  0
 42 43  1  0
 43 44  1  0
 43 45  1  0
 43 46  1  0
 41  2  1  0
 39 21  1  0
M  END
>  <score>  (22) 
7.08445

$$$$

     RDKit          3D

 44 45  0  0  0  0  0  0  0  0999 V2000
   26.1177    5.4698   30.8547 H   0  0  0  0  0  0  0  0  0  0  0  0
   25.2848    4.8204   31.1009 C   0  0  0  0  0  0  0  0  0  0  0  0
   25.4913    3.7277   31.9456 C   0  0  0  0  0  0  0  0  0  0  0  0
   27.2506    3.4253   32.6399 Br  0  0  0  0  0  0  0  0  0  0  0  0
   24.4255    2.8694   32.2589 C   0  0  0  0  0  0  0  0  0  0  0  0
   24.6616    1.7943   33.0826 O   0  0  0  0  0  0  0  0  0  0  0  0
   23.6509    0.7776   33.1009 C   0  0  0  0  0  0  0  0  0  0  0  0
   23.4482    0.4170   32.0870 H   0  0  0  0  0  0  0  0  0  0  0  0
   23.9899   -0.0675   33.7071 H   0  0  0  0  0  0  0  0  0  0  0  0
   22.7224    1.1655   33.5304 H   0  0  0  0  0  0  0  0  0  0  0  0
   23.1568    3.1418   31.7196 C   0  0  0  0  0  0  0  0  0  0  0  0
   22.3262    2.4881   31.9686 H   0  0  0  0  0  0  0  0  0  0  0  0
   22.9481    4.2375   30.8734 C   0  0  0  0  0  0  0  0  0  0  0  0
   21.5518    4.4916   30.3520 C   0  0  0  0  0  0  0  0  0  0  0  0
   21.6052    4.7924   29.3028 H   0  0  0  0  0  0  0  0  0  0  0  0
   20.9387    3.5899   30.4143 H   0  0  0  0  0  0  0  0  0  0  0  0
   20.8907    5.6129   31.1368 C   0  0  0  0  0  0  0  0  0  0  0  0
   19.8256    5.4616   31.7165 O   0  0  0  0  0  0  0  0  0  0  0  0
   21.4668    6.8404   31.0531 N   0  0  0  0  0  0  0  0  0  0  0  0
   22.3345    6.9406   30.5424 H   0  0  0  0  0  0  0  0  0  0  0  0
   20.9715    7.9857   31.5535 C   0  0  0  0  0  0  0  0  0  0  0  0
   21.6907    8.9954   31.1218 N   0  0  0  0  0  0  0  0  0  0  0  0
   21.4075   10.2435   31.5289 C   0  0  0  0  0  0  0  0  0  0  0  0
   22.1538   11.4116   30.8362 C   0  0  0  0  0  0  0  0  0  0  0  0
   21.4170   12.2029   30.6666 H   0  0  0  0  0  0  0  0  0  0  0  0
   22.4260   11.0446   29.8431 H   0  0  0  0  0  0  0  0  0  0  0  0
   23.3993   12.0160   31.4330 N   0  0  0  0  0  0  0  0  0  0  0  0
   24.0378   11.3120   31.8187 H   0  0  0  0  0  0  0  0  0  0  0  0
   23.2086   12.7697   32.0986 H   0  0  0  0  0  0  0  0  0  0  0  0
   20.3587   10.4516   32.4297 C   0  0  0  0  0  0  0  0  0  0  0  0
   20.0154   11.7592   32.8844 C   0  0  0  0  0  0  0  0  0  0  0  0
   19.7473   12.8339   33.2324 N   0  0  0  0  0  0  0  0  0  0  0  0
   19.6411    9.3628   32.8663 C   0  0  0  0  0  0  0  0  0  0  0  0
   18.6335    9.4874   33.7604 N   0  0  0  0  0  0  0  0  0  0  0  0
   18.0055    8.6908   33.8232 H   0  0  0  0  0  0  0  0  0  0  0  0
   18.2302   10.4168   33.8309 H   0  0  0  0  0  0  0  0  0  0  0  0
   19.9076    8.1142   32.3998 C   0  0  0  0  0  0  0  0  0  0  0  0
   19.3125    7.2688   32.6993 H   0  0  0  0  0  0  0  0  0  0  0  0
   24.0210    5.0998   30.5601 C   0  0  0  0  0  0  0  0  0  0  0  0
   23.8051    6.1993   29.7568 O   0  0  0  0  0  0  0  0  0  0  0  0
   24.9239    7.0882   29.6043 C   0  0  0  0  0  0  0  0  0  0  0  0
   25.7571    6.5766   29.1109 H   0  0  0  0  0  0  0  0  0  0  0  0
   24.6399    7.9539   28.9996 H   0  0  0  0  0  0  0  0  0  0  0  0
   25.2648    7.4441   30.5824 H   0  0  0  0  0  0  0  0  0  0  0  0
  1  2  1  0
  2  3  2  0
  3  4  1  0
  3  5  1  0
  5  6  1  0
  6  7  1  0
  7  8  1  0
  7  9  1  0
  7 10  1  0
  5 11  2  0
 11 12  1  0
 11 13  1  0
 13 14  1  0
 14 15  1  0
 14 16  1  0
 14 17  1  0
 17 18  2  0
 17 19  1  0
 19 20  1  0
 19 21  1  0
 21 22  2  0
 22 23  1  0
 23 24  1  0
 24 25  1  0
 24 26  1  0
 24 27  1  0
 27 28  1  0
 27 29  1  0
 23 30  2  0
 30 31  1  0
 31 32  3  0
 30 33  1  0
 33 34  1  0
 34 35  1  0
 34 36  1  0
 33 37  2  0
 37 38  1  0
 13 39  2  0
 39 40  1  0
 40 41  1  0
 41 42  1  0
 41 43  1  0
 41 44  1  0
 39  2  1  0
 37 21  1  0
M  END
>  <score>  (23) 
7.08862

$$$$

     RDKit          3D

 49 51  0  0  0  0  0  0  0  0999 V2000
   26.1244    5.4932   30.9105 H   0  0  0  0  0  0  0  0  0  0  0  0
   25.2999    4.8243   31.1289 C   0  0  0  0  0  0  0  0  0  0  0  0
   25.5093    3.7187   31.9589 C   0  0  0  0  0  0  0  0  0  0  0  0
   27.2550    3.4296   32.6915 Br  0  0  0  0  0  0  0  0  0  0  0  0
   24.4472    2.8461   32.2460 C   0  0  0  0  0  0  0  0  0  0  0  0
   24.6676    1.7660   33.0682 O   0  0  0  0  0  0  0  0  0  0  0  0
   23.6306    0.7743   33.0975 C   0  0  0  0  0  0  0  0  0  0  0  0
   23.4191    0.4143   32.0854 H   0  0  0  0  0  0  0  0  0  0  0  0
   23.9452   -0.0764   33.7092 H   0  0  0  0  0  0  0  0  0  0  0  0
   22.7115    1.1886   33.5239 H   0  0  0  0  0  0  0  0  0  0  0  0
   23.1863    3.1136   31.6909 C   0  0  0  0  0  0  0  0  0  0  0  0
   22.3608    2.4461   31.9196 H   0  0  0  0  0  0  0  0  0  0  0  0
   22.9767    4.2198   30.8609 C   0  0  0  0  0  0  0  0  0  0  0  0
   21.5840    4.4817   30.3451 C   0  0  0  0  0  0  0  0  0  0  0  0
   21.6203    4.7268   29.2803 H   0  0  0  0  0  0  0  0  0  0  0  0
   20.9662    3.5860   30.4603 H   0  0  0  0  0  0  0  0  0  0  0  0
   20.9525    5.6339   31.1225 C   0  0  0  0  0  0  0  0  0  0  0  0
   19.8113    5.5359   31.5422 O   0  0  0  0  0  0  0  0  0  0  0  0
   21.6470    6.8055   31.2942 N   0  0  0  0  0  0  0  0  0  0  0  0
   22.4982    6.9354   30.7692 H   0  0  0  0  0  0  0  0  0  0  0  0
   21.1065    7.9328   31.8132 C   0  0  0  0  0  0  0  0  0  0  0  0
   21.7261    9.0357   31.4269 N   0  0  0  0  0  0  0  0  0  0  0  0
   21.2474   10.2387   31.8158 C   0  0  0  0  0  0  0  0  0  0  0  0
   21.9860   11.5230   31.3819 C   0  0  2  0  0  0  0  0  0  0  0  0
   22.3703   12.0004   32.2783 H   0  0  0  0  0  0  0  0  0  0  0  0
   21.1861   12.5305   30.6450 N   0  0  0  0  0  0  0  0  0  0  0  0
   21.7286   12.6142   29.4819 C   0  0  0  0  0  0  0  0  0  0  0  0
   21.0831   13.4436   28.6546 N   0  0  0  0  0  0  0  0  0  0  0  0
   20.2653   13.7850   29.1437 H   0  0  0  0  0  0  0  0  0  0  0  0
   20.9579   13.0387   27.7397 H   0  0  0  0  0  0  0  0  0  0  0  0
   22.7811   11.8281   29.1941 O   0  0  0  0  0  0  0  0  0  0  0  0
   23.1512   11.2329   30.4364 C   0  0  0  0  0  0  0  0  0  0  0  0
   23.3168   10.1585   30.3217 H   0  0  0  0  0  0  0  0  0  0  0  0
   24.0760   11.6909   30.8055 H   0  0  0  0  0  0  0  0  0  0  0  0
   20.1244   10.3234   32.6395 C   0  0  0  0  0  0  0  0  0  0  0  0
   19.6437   11.5815   33.1113 C   0  0  0  0  0  0  0  0  0  0  0  0
   19.2972   12.6162   33.5214 N   0  0  0  0  0  0  0  0  0  0  0  0
   19.5316    9.1472   33.0316 C   0  0  0  0  0  0  0  0  0  0  0  0
   18.4269    9.1245   33.8005 N   0  0  0  0  0  0  0  0  0  0  0  0
   17.8761    9.9837   33.8157 H   0  0  0  0  0  0  0  0  0  0  0  0
   17.9450    8.2272   33.8303 H   0  0  0  0  0  0  0  0  0  0  0  0
   20.0209    7.9407   32.6441 C   0  0  0  0  0  0  0  0  0  0  0  0
   19.5604    7.0265   32.9850 H   0  0  0  0  0  0  0  0  0  0  0  0
   24.0400    5.0990   30.5761 C   0  0  0  0  0  0  0  0  0  0  0  0
   23.8096    6.2078   29.7900 O   0  0  0  0  0  0  0  0  0  0  0  0
   24.9233    7.0932   29.6060 C   0  0  0  0  0  0  0  0  0  0  0  0
   24.6237    7.9495   28.9958 H   0  0  0  0  0  0  0  0  0  0  0  0
   25.2816    7.4622   30.5723 H   0  0  0  0  0  0  0  0  0  0  0  0
   25.7448    6.5751   29.1012 H   0  0  0  0  0  0  0  0  0  0  0  0
  1  2  1  0
  2  3  2  0
  3  4  1  0
  3  5  1  0
  5  6  1  0
  6  7  1  0
  7  8  1  0
  7  9  1  0
  7 10  1  0
  5 11  2  0
 11 12  1  0
 11 13  1  0
 13 14  1  0
 14 15  1  0
 14 16  1  0
 14 17  1  0
 17 18  2  0
 17 19  1  0
 19 20  1  0
 19 21  1  0
 21 22  2  0
 22 23  1  0
 23 24  1  0
 24 25  1  1
 24 26  1  0
 26 27  2  0
 27 28  1  0
 28 29  1  0
 28 30  1  0
 27 31  1  0
 31 32  1  0
 32 33  1  0
 32 34  1  0
 23 35  2  0
 35 36  1  0
 36 37  3  0
 35 38  1  0
 38 39  1  0
 39 40  1  0
 39 41  1  0
 38 42  2  0
 42 43  1  0
 13 44  2  0
 44 45  1  0
 45 46  1  0
 46 47  1  0
 46 48  1  0
 46 49  1  0
 44  2  1  0
 42 21  1  0
 32 24  1  0
M  END
>  <score>  (24) 
7.08976

$$$$

     RDKit          3D

 44 45  0  0  0  0  0  0  0  0999 V2000
   22.3643    9.6860   28.4131 H   0  0  0  0  0  0  0  0  0  0  0  0
   21.9141   10.4903   28.7395 O   0  0  0  0  0  0  0  0  0  0  0  0
   22.6862   11.2715   29.6665 N   0  0  0  0  0  0  0  0  0  0  0  0
   23.0267   12.1796   29.3546 H   0  0  0  0  0  0  0  0  0  0  0  0
   22.3313   11.2730   31.0087 C   0  0  0  0  0  0  0  0  0  0  0  0
   22.6197   12.3010   31.6243 O   0  0  0  0  0  0  0  0  0  0  0  0
   21.5261   10.1342   31.5888 C   0  0  0  0  0  0  0  0  0  0  0  0
   21.8643    8.8611   31.2762 N   0  0  0  0  0  0  0  0  0  0  0  0
   21.1080    7.8591   31.6760 C   0  0  0  0  0  0  0  0  0  0  0  0
   21.6411    6.6797   31.3063 N   0  0  0  0  0  0  0  0  0  0  0  0
   22.5512    6.7426   30.8765 H   0  0  0  0  0  0  0  0  0  0  0  0
   20.9264    5.5377   31.1092 C   0  0  0  0  0  0  0  0  0  0  0  0
   19.7576    5.4720   31.4508 O   0  0  0  0  0  0  0  0  0  0  0  0
   21.5808    4.4176   30.3151 C   0  0  0  0  0  0  0  0  0  0  0  0
   20.9725    3.5117   30.3974 H   0  0  0  0  0  0  0  0  0  0  0  0
   21.6231    4.7088   29.2601 H   0  0  0  0  0  0  0  0  0  0  0  0
   22.9765    4.1768   30.8444 C   0  0  0  0  0  0  0  0  0  0  0  0
   23.1897    3.0884   31.6968 C   0  0  0  0  0  0  0  0  0  0  0  0
   22.3662    2.4243   31.9421 H   0  0  0  0  0  0  0  0  0  0  0  0
   24.4528    2.8331   32.2513 C   0  0  0  0  0  0  0  0  0  0  0  0
   24.6788    1.7656   33.0872 O   0  0  0  0  0  0  0  0  0  0  0  0
   23.6550    0.7613   33.1117 C   0  0  0  0  0  0  0  0  0  0  0  0
   22.7307    1.1624   33.5396 H   0  0  0  0  0  0  0  0  0  0  0  0
   23.9811   -0.0873   33.7197 H   0  0  0  0  0  0  0  0  0  0  0  0
   23.4495    0.4039   32.0974 H   0  0  0  0  0  0  0  0  0  0  0  0
   25.5115    3.7032   31.9477 C   0  0  0  0  0  0  0  0  0  0  0  0
   27.2612    3.4255   32.6743 Br  0  0  0  0  0  0  0  0  0  0  0  0
   25.2954    4.8025   31.1125 C   0  0  0  0  0  0  0  0  0  0  0  0
   26.1164    5.4735   30.8885 H   0  0  0  0  0  0  0  0  0  0  0  0
   24.0339    5.0672   30.5612 C   0  0  0  0  0  0  0  0  0  0  0  0
   23.8027    6.1780   29.7776 O   0  0  0  0  0  0  0  0  0  0  0  0
   24.9137    7.0736   29.6112 C   0  0  0  0  0  0  0  0  0  0  0  0
   25.7454    6.5645   29.1131 H   0  0  0  0  0  0  0  0  0  0  0  0
   25.2602    7.4403   30.5832 H   0  0  0  0  0  0  0  0  0  0  0  0
   24.6168    7.9323   29.0027 H   0  0  0  0  0  0  0  0  0  0  0  0
   19.9415    8.0194   32.3661 C   0  0  0  0  0  0  0  0  0  0  0  0
   19.3349    7.1702   32.6379 H   0  0  0  0  0  0  0  0  0  0  0  0
   19.6014    9.2840   32.7279 C   0  0  0  0  0  0  0  0  0  0  0  0
   18.4465    9.4110   33.4224 N   0  0  0  0  0  0  0  0  0  0  0  0
   17.9217    8.5483   33.5600 H   0  0  0  0  0  0  0  0  0  0  0  0
   18.4570   10.0913   34.1747 H   0  0  0  0  0  0  0  0  0  0  0  0
   20.4010   10.3608   32.3975 C   0  0  0  0  0  0  0  0  0  0  0  0
   20.0121   11.6754   32.7966 C   0  0  0  0  0  0  0  0  0  0  0  0
   19.6819   12.7475   33.0951 N   0  0  0  0  0  0  0  0  0  0  0  0
  1  2  1  0
  2  3  1  0
  3  4  1  0
  3  5  1  0
  5  6  2  0
  5  7  1  0
  7  8  2  0
  8  9  1  0
  9 10  1  0
 10 11  1  0
 10 12  1  0
 12 13  2  0
 12 14  1  0
 14 15  1  0
 14 16  1  0
 14 17  1  0
 17 18  2  0
 18 19  1  0
 18 20  1  0
 20 21  1  0
 21 22  1  0
 22 23  1  0
 22 24  1  0
 22 25  1  0
 20 26  2  0
 26 27  1  0
 26 28  1  0
 28 29  1  0
 28 30  2  0
 30 31  1  0
 31 32  1  0
 32 33  1  0
 32 34  1  0
 32 35  1  0
  9 36  2  0
 36 37  1  0
 36 38  1  0
 38 39  1  0
 39 40  1  0
 39 41  1  0
 38 42  2  0
 42 43  1  0
 43 44  3  0
 42  7  1  0
 30 17  1  0
M  END
>  <score>  (25) 
7.09659

$$$$

     RDKit          3D

 52 53  0  0  0  0  0  0  0  0999 V2000
   26.1704    5.4329   30.8520 H   0  0  0  0  0  0  0  0  0  0  0  0
   25.3277    4.7974   31.1015 C   0  0  0  0  0  0  0  0  0  0  0  0
   25.5240    3.6977   31.9442 C   0  0  0  0  0  0  0  0  0  0  0  0
   27.2764    3.3540   32.6390 Br  0  0  0  0  0  0  0  0  0  0  0  0
   24.4469    2.8540   32.2671 C   0  0  0  0  0  0  0  0  0  0  0  0
   24.6725    1.7853   33.1062 O   0  0  0  0  0  0  0  0  0  0  0  0
   23.6782    0.7495   33.1269 C   0  0  0  0  0  0  0  0  0  0  0  0
   23.4791    0.3858   32.1146 H   0  0  0  0  0  0  0  0  0  0  0  0
   22.7422    1.1136   33.5605 H   0  0  0  0  0  0  0  0  0  0  0  0
   24.0354   -0.0921   33.7296 H   0  0  0  0  0  0  0  0  0  0  0  0
   23.1779    3.1415   31.7310 C   0  0  0  0  0  0  0  0  0  0  0  0
   22.3435    2.4924   31.9823 H   0  0  0  0  0  0  0  0  0  0  0  0
   22.9788    4.2501   30.8912 C   0  0  0  0  0  0  0  0  0  0  0  0
   21.5965    4.5592   30.3566 C   0  0  0  0  0  0  0  0  0  0  0  0
   21.6743    4.8815   29.3153 H   0  0  0  0  0  0  0  0  0  0  0  0
   20.9646    3.6733   30.4030 H   0  0  0  0  0  0  0  0  0  0  0  0
   20.9360    5.6872   31.1317 C   0  0  0  0  0  0  0  0  0  0  0  0
   19.7451    5.6411   31.3996 O   0  0  0  0  0  0  0  0  0  0  0  0
   21.6360    6.8342   31.3241 N   0  0  0  0  0  0  0  0  0  0  0  0
   22.5013    6.9422   30.8189 H   0  0  0  0  0  0  0  0  0  0  0  0
   21.0856    7.9956   31.7239 C   0  0  0  0  0  0  0  0  0  0  0  0
   21.8300    9.0062   31.3370 N   0  0  0  0  0  0  0  0  0  0  0  0
   21.4440   10.2273   31.6874 C   0  0  0  0  0  0  0  0  0  0  0  0
   22.2316   11.3756   31.1953 C   0  0  0  0  0  0  0  0  0  0  0  0
   22.2886   12.1368   31.9749 H   0  0  0  0  0  0  0  0  0  0  0  0
   21.7522   11.8060   30.3165 H   0  0  0  0  0  0  0  0  0  0  0  0
   23.6172   10.8992   30.8391 C   0  0  0  0  0  0  0  0  0  0  0  0
   24.4400   10.8194   31.7365 O   0  0  0  0  0  0  0  0  0  0  0  0
   23.9875   10.7335   29.5096 N   0  0  0  0  0  0  0  0  0  0  0  0
   25.4021   10.7272   29.1373 C   0  0  0  0  0  0  0  0  0  0  0  0
   25.5139   10.5840   28.0570 H   0  0  0  0  0  0  0  0  0  0  0  0
   25.8623   11.6871   29.3989 H   0  0  0  0  0  0  0  0  0  0  0  0
   25.9342    9.9183   29.6495 H   0  0  0  0  0  0  0  0  0  0  0  0
   22.9841   10.6527   28.4499 C   0  0  0  0  0  0  0  0  0  0  0  0
   22.2269    9.8977   28.6977 H   0  0  0  0  0  0  0  0  0  0  0  0
   23.4516   10.3557   27.5020 H   0  0  0  0  0  0  0  0  0  0  0  0
   22.4952   11.6241   28.3059 H   0  0  0  0  0  0  0  0  0  0  0  0
   20.3140   10.4474   32.4566 C   0  0  0  0  0  0  0  0  0  0  0  0
   19.9540   11.7656   32.8574 C   0  0  0  0  0  0  0  0  0  0  0  0
   19.7044   12.8442   33.2082 N   0  0  0  0  0  0  0  0  0  0  0  0
   19.5619    9.3677   32.8316 C   0  0  0  0  0  0  0  0  0  0  0  0
   18.4598    9.4994   33.6046 N   0  0  0  0  0  0  0  0  0  0  0  0
   18.1726   10.4237   33.9225 H   0  0  0  0  0  0  0  0  0  0  0  0
   17.9521    8.6641   33.8804 H   0  0  0  0  0  0  0  0  0  0  0  0
   19.9235    8.1171   32.4463 C   0  0  0  0  0  0  0  0  0  0  0  0
   19.3270    7.2699   32.7290 H   0  0  0  0  0  0  0  0  0  0  0  0
   24.0623    5.0945   30.5742 C   0  0  0  0  0  0  0  0  0  0  0  0
   23.8409    6.1884   29.7648 O   0  0  0  0  0  0  0  0  0  0  0  0
   24.9300    7.1099   29.5997 C   0  0  0  0  0  0  0  0  0  0  0  0
   25.2546    7.4988   30.5689 H   0  0  0  0  0  0  0  0  0  0  0  0
   24.6106    7.9524   28.9790 H   0  0  0  0  0  0  0  0  0  0  0  0
   25.7823    6.6253   29.1143 H   0  0  0  0  0  0  0  0  0  0  0  0
  1  2  1  0
  2  3  2  0
  3  4  1  0
  3  5  1  0
  5  6  1  0
  6  7  1  0
  7  8  1  0
  7  9  1  0
  7 10  1  0
  5 11  2  0
 11 12  1  0
 11 13  1  0
 13 14  1  0
 14 15  1  0
 14 16  1  0
 14 17  1  0
 17 18  2  0
 17 19  1  0
 19 20  1  0
 19 21  1  0
 21 22  2  0
 22 23  1  0
 23 24  1  0
 24 25  1  0
 24 26  1  0
 24 27  1  0
 27 28  2  0
 27 29  1  0
 29 30  1  0
 30 31  1  0
 30 32  1  0
 30 33  1  0
 29 34  1  0
 34 35  1  0
 34 36  1  0
 34 37  1  0
 23 38  2  0
 38 39  1  0
 39 40  3  0
 38 41  1  0
 41 42  1  0
 42 43  1  0
 42 44  1  0
 41 45  2  0
 45 46  1  0
 13 47  2  0
 47 48  1  0
 48 49  1  0
 49 50  1  0
 49 51  1  0
 49 52  1  0
 47  2  1  0
 45 21  1  0
M  END
>  <score>  (26) 
7.11119

$$$$

     RDKit          3D

 55 56  0  0  0  0  0  0  0  0999 V2000
   26.1745    5.4333   30.8545 H   0  0  0  0  0  0  0  0  0  0  0  0
   25.3288    4.8006   31.1025 C   0  0  0  0  0  0  0  0  0  0  0  0
   25.5211    3.7008   31.9465 C   0  0  0  0  0  0  0  0  0  0  0  0
   27.2786    3.3640   32.6404 Br  0  0  0  0  0  0  0  0  0  0  0  0
   24.4426    2.8563   32.2638 C   0  0  0  0  0  0  0  0  0  0  0  0
   24.6710    1.7830   33.0979 O   0  0  0  0  0  0  0  0  0  0  0  0
   23.6732    0.7548   33.1207 C   0  0  0  0  0  0  0  0  0  0  0  0
   24.0255   -0.0871   33.7241 H   0  0  0  0  0  0  0  0  0  0  0  0
   23.4705    0.3914   32.1102 H   0  0  0  0  0  0  0  0  0  0  0  0
   22.7403    1.1259   33.5520 H   0  0  0  0  0  0  0  0  0  0  0  0
   23.1715    3.1528   31.7329 C   0  0  0  0  0  0  0  0  0  0  0  0
   22.3354    2.5059   31.9829 H   0  0  0  0  0  0  0  0  0  0  0  0
   22.9748    4.2685   30.8987 C   0  0  0  0  0  0  0  0  0  0  0  0
   21.5933    4.5982   30.3739 C   0  0  0  0  0  0  0  0  0  0  0  0
   20.9464    3.7217   30.4455 H   0  0  0  0  0  0  0  0  0  0  0  0
   21.6677    4.8875   29.3223 H   0  0  0  0  0  0  0  0  0  0  0  0
   20.9459    5.7504   31.1346 C   0  0  0  0  0  0  0  0  0  0  0  0
   19.7664    5.6955   31.4356 O   0  0  0  0  0  0  0  0  0  0  0  0
   21.6412    6.9100   31.3152 N   0  0  0  0  0  0  0  0  0  0  0  0
   22.5218    7.0300   30.8367 H   0  0  0  0  0  0  0  0  0  0  0  0
   21.0764    8.0550   31.7334 C   0  0  0  0  0  0  0  0  0  0  0  0
   21.8254    9.0709   31.3991 N   0  0  0  0  0  0  0  0  0  0  0  0
   21.3597   10.2411   31.7582 C   0  0  0  0  0  0  0  0  0  0  0  0
   22.2227   11.1983   31.3429 N   0  0  0  0  0  0  0  0  0  0  0  0
   23.0466   10.6915   31.0354 H   0  0  0  0  0  0  0  0  0  0  0  0
   21.7664   12.2559   30.4037 C   0  0  0  0  0  0  0  0  0  0  0  0
   20.6696   12.2823   30.3959 H   0  0  0  0  0  0  0  0  0  0  0  0
   22.0997   11.9986   29.3879 H   0  0  0  0  0  0  0  0  0  0  0  0
   22.2674   13.6906   30.7309 C   0  0  0  0  0  0  0  0  0  0  0  0
   22.5042   13.7561   31.7992 H   0  0  0  0  0  0  0  0  0  0  0  0
   21.4399   14.3864   30.5493 H   0  0  0  0  0  0  0  0  0  0  0  0
   23.4392   14.1355   29.9283 N   0  0  0  0  0  0  0  0  0  0  0  0
   23.1911   14.4941   28.5211 C   0  0  0  0  0  0  0  0  0  0  0  0
   22.3094   15.1350   28.4351 H   0  0  0  0  0  0  0  0  0  0  0  0
   23.0310   13.6003   27.9132 H   0  0  0  0  0  0  0  0  0  0  0  0
   24.0528   15.0359   28.1236 H   0  0  0  0  0  0  0  0  0  0  0  0
   24.6710   13.3666   30.1654 C   0  0  0  0  0  0  0  0  0  0  0  0
   24.8315   13.2236   31.2385 H   0  0  0  0  0  0  0  0  0  0  0  0
   25.5308   13.8981   29.7495 H   0  0  0  0  0  0  0  0  0  0  0  0
   24.6021   12.3822   29.6940 H   0  0  0  0  0  0  0  0  0  0  0  0
   20.2102   10.4696   32.4554 C   0  0  0  0  0  0  0  0  0  0  0  0
   19.8671   11.7895   32.8518 C   0  0  0  0  0  0  0  0  0  0  0  0
   19.6775   12.8843   33.1887 N   0  0  0  0  0  0  0  0  0  0  0  0
   19.4924    9.3772   32.8209 C   0  0  0  0  0  0  0  0  0  0  0  0
   18.3915    9.4887   33.5947 N   0  0  0  0  0  0  0  0  0  0  0  0
   17.9138    8.6481   33.8997 H   0  0  0  0  0  0  0  0  0  0  0  0
   18.1011   10.4005   33.9368 H   0  0  0  0  0  0  0  0  0  0  0  0
   19.9053    8.1381   32.4408 C   0  0  0  0  0  0  0  0  0  0  0  0
   19.3538    7.2577   32.7215 H   0  0  0  0  0  0  0  0  0  0  0  0
   24.0631    5.1023   30.5780 C   0  0  0  0  0  0  0  0  0  0  0  0
   23.8423    6.1983   29.7725 O   0  0  0  0  0  0  0  0  0  0  0  0
   24.9361    7.1050   29.6011 C   0  0  0  0  0  0  0  0  0  0  0  0
   24.6167    7.9574   28.9952 H   0  0  0  0  0  0  0  0  0  0  0  0
   25.2813    7.4741   30.5696 H   0  0  0  0  0  0  0  0  0  0  0  0
   25.7725    6.6123   29.0998 H   0  0  0  0  0  0  0  0  0  0  0  0
  1  2  1  0
  2  3  2  0
  3  4  1  0
  3  5  1  0
  5  6  1  0
  6  7  1  0
  7  8  1  0
  7  9  1  0
  7 10  1  0
  5 11  2  0
 11 12  1  0
 11 13  1  0
 13 14  1  0
 14 15  1  0
 14 16  1  0
 14 17  1  0
 17 18  2  0
 17 19  1  0
 19 20  1  0
 19 21  1  0
 21 22  2  0
 22 23  1  0
 23 24  1  0
 24 25  1  0
 24 26  1  0
 26 27  1  0
 26 28  1  0
 26 29  1  0
 29 30  1  0
 29 31  1  0
 29 32  1  0
 32 33  1  0
 33 34  1  0
 33 35  1  0
 33 36  1  0
 32 37  1  0
 37 38  1  0
 37 39  1  0
 37 40  1  0
 23 41  2  0
 41 42  1  0
 42 43  3  0
 41 44  1  0
 44 45  1  0
 45 46  1  0
 45 47  1  0
 44 48  2  0
 48 49  1  0
 13 50  2  0
 50 51  1  0
 51 52  1  0
 52 53  1  0
 52 54  1  0
 52 55  1  0
 50  2  1  0
 48 21  1  0
M  END
>  <score>  (27) 
7.11206

$$$$

     RDKit          3D

 45 46  0  0  0  0  0  0  0  0999 V2000
   26.1839    5.4172   30.8448 H   0  0  0  0  0  0  0  0  0  0  0  0
   25.3411    4.7848   31.1026 C   0  0  0  0  0  0  0  0  0  0  0  0
   25.5232    3.6794   31.9453 C   0  0  0  0  0  0  0  0  0  0  0  0
   27.2715    3.3144   32.6358 Br  0  0  0  0  0  0  0  0  0  0  0  0
   24.4399    2.8474   32.2727 C   0  0  0  0  0  0  0  0  0  0  0  0
   24.6653    1.7841   33.1181 O   0  0  0  0  0  0  0  0  0  0  0  0
   23.6865    0.7364   33.1376 C   0  0  0  0  0  0  0  0  0  0  0  0
   23.4936    0.3660   32.1258 H   0  0  0  0  0  0  0  0  0  0  0  0
   22.7478    1.0830   33.5799 H   0  0  0  0  0  0  0  0  0  0  0  0
   24.0621   -0.0957   33.7404 H   0  0  0  0  0  0  0  0  0  0  0  0
   23.1774    3.1455   31.7334 C   0  0  0  0  0  0  0  0  0  0  0  0
   22.3419    2.4990   31.9815 H   0  0  0  0  0  0  0  0  0  0  0  0
   22.9916    4.2529   30.8890 C   0  0  0  0  0  0  0  0  0  0  0  0
   21.6151    4.5566   30.3401 C   0  0  0  0  0  0  0  0  0  0  0  0
   21.7126    4.8910   29.3049 H   0  0  0  0  0  0  0  0  0  0  0  0
   20.9891    3.6598   30.3522 H   0  0  0  0  0  0  0  0  0  0  0  0
   20.9408    5.6788   31.1175 C   0  0  0  0  0  0  0  0  0  0  0  0
   19.7526    5.6071   31.3883 O   0  0  0  0  0  0  0  0  0  0  0  0
   21.6288    6.8418   31.3092 N   0  0  0  0  0  0  0  0  0  0  0  0
   22.5233    6.9428   30.8616 H   0  0  0  0  0  0  0  0  0  0  0  0
   21.0615    8.0055   31.6656 C   0  0  0  0  0  0  0  0  0  0  0  0
   21.7849    9.0322   31.2879 N   0  0  0  0  0  0  0  0  0  0  0  0
   21.3977   10.2322   31.6804 C   0  0  0  0  0  0  0  0  0  0  0  0
   22.1923   11.2749   31.3496 N   0  0  0  0  0  0  0  0  0  0  0  0
   22.1166   12.1398   31.8494 H   0  0  0  0  0  0  0  0  0  0  0  0
   23.0481   11.1856   30.3114 C   0  0  0  0  0  0  0  0  0  0  0  0
   23.0388   10.2754   29.5206 O   0  0  0  0  0  0  0  0  0  0  0  0
   23.8904   12.2194   30.1078 N   0  0  0  0  0  0  0  0  0  0  0  0
   23.8985   12.9950   30.7552 H   0  0  0  0  0  0  0  0  0  0  0  0
   24.4858   12.1838   29.2861 H   0  0  0  0  0  0  0  0  0  0  0  0
   20.2975   10.4604   32.4617 C   0  0  0  0  0  0  0  0  0  0  0  0
   19.9516   11.7772   32.8900 C   0  0  0  0  0  0  0  0  0  0  0  0
   19.7035   12.8640   33.2199 N   0  0  0  0  0  0  0  0  0  0  0  0
   19.5679    9.3543   32.8069 C   0  0  0  0  0  0  0  0  0  0  0  0
   18.4957    9.4203   33.6066 N   0  0  0  0  0  0  0  0  0  0  0  0
   18.6282    8.8483   34.4364 H   0  0  0  0  0  0  0  0  0  0  0  0
   17.6468    9.1791   33.1097 H   0  0  0  0  0  0  0  0  0  0  0  0
   19.9194    8.1044   32.4078 C   0  0  0  0  0  0  0  0  0  0  0  0
   19.3394    7.2407   32.7047 H   0  0  0  0  0  0  0  0  0  0  0  0
   24.0798    5.0914   30.5725 C   0  0  0  0  0  0  0  0  0  0  0  0
   23.8567    6.1796   29.7556 O   0  0  0  0  0  0  0  0  0  0  0  0
   24.9296    7.1177   29.5888 C   0  0  0  0  0  0  0  0  0  0  0  0
   25.2554    7.5079   30.5581 H   0  0  0  0  0  0  0  0  0  0  0  0
   24.5869    7.9587   28.9790 H   0  0  0  0  0  0  0  0  0  0  0  0
   25.7821    6.6535   29.0829 H   0  0  0  0  0  0  0  0  0  0  0  0
  1  2  1  0
  2  3  2  0
  3  4  1  0
  3  5  1  0
  5  6  1  0
  6  7  1  0
  7  8  1  0
  7  9  1  0
  7 10  1  0
  5 11  2  0
 11 12  1  0
 11 13  1  0
 13 14  1  0
 14 15  1  0
 14 16  1  0
 14 17  1  0
 17 18  2  0
 17 19  1  0
 19 20  1  0
 19 21  1  0
 21 22  2  0
 22 23  1  0
 23 24  1  0
 24 25  1  0
 24 26  1  0
 26 27  2  0
 26 28  1  0
 28 29  1  0
 28 30  1  0
 23 31  2  0
 31 32  1  0
 32 33  3  0
 31 34  1  0
 34 35  1  0
 35 36  1  0
 35 37  1  0
 34 38  2  0
 38 39  1  0
 13 40  2  0
 40 41  1  0
 41 42  1  0
 42 43  1  0
 42 44  1  0
 42 45  1  0
 40  2  1  0
 38 21  1  0
M  END
>  <score>  (28) 
7.11658

$$$$

     RDKit          3D

 39 40  0  0  0  0  0  0  0  0999 V2000
   26.1909    5.4106   30.8469 H   0  0  0  0  0  0  0  0  0  0  0  0
   25.3449    4.7808   31.1025 C   0  0  0  0  0  0  0  0  0  0  0  0
   25.5239    3.6737   31.9452 C   0  0  0  0  0  0  0  0  0  0  0  0
   27.2726    3.3063   32.6352 Br  0  0  0  0  0  0  0  0  0  0  0  0
   24.4391    2.8440   32.2731 C   0  0  0  0  0  0  0  0  0  0  0  0
   24.6648    1.7831   33.1216 O   0  0  0  0  0  0  0  0  0  0  0  0
   23.6896    0.7333   33.1410 C   0  0  0  0  0  0  0  0  0  0  0  0
   23.4972    0.3611   32.1304 H   0  0  0  0  0  0  0  0  0  0  0  0
   24.0684   -0.0965   33.7431 H   0  0  0  0  0  0  0  0  0  0  0  0
   22.7508    1.0754   33.5844 H   0  0  0  0  0  0  0  0  0  0  0  0
   23.1781    3.1448   31.7318 C   0  0  0  0  0  0  0  0  0  0  0  0
   22.3412    2.5005   31.9800 H   0  0  0  0  0  0  0  0  0  0  0  0
   22.9951    4.2492   30.8829 C   0  0  0  0  0  0  0  0  0  0  0  0
   21.6162    4.5408   30.3291 C   0  0  0  0  0  0  0  0  0  0  0  0
   21.7150    4.8848   29.2969 H   0  0  0  0  0  0  0  0  0  0  0  0
   21.0017    3.6347   30.3283 H   0  0  0  0  0  0  0  0  0  0  0  0
   20.9142    5.6400   31.1186 C   0  0  0  0  0  0  0  0  0  0  0  0
   19.7272    5.5401   31.3872 O   0  0  0  0  0  0  0  0  0  0  0  0
   21.5772    6.8072   31.3554 N   0  0  0  0  0  0  0  0  0  0  0  0
   22.4768    6.9452   30.9205 H   0  0  0  0  0  0  0  0  0  0  0  0
   20.9874    7.9475   31.7397 C   0  0  0  0  0  0  0  0  0  0  0  0
   21.7155    8.9751   31.3725 N   0  0  0  0  0  0  0  0  0  0  0  0
   21.3233   10.1909   31.7482 C   0  0  0  0  0  0  0  0  0  0  0  0
   22.0771   11.2518   31.3852 F   0  0  0  0  0  0  0  0  0  0  0  0
   20.2067   10.3939   32.5131 C   0  0  0  0  0  0  0  0  0  0  0  0
   19.8836   11.7238   32.9174 C   0  0  0  0  0  0  0  0  0  0  0  0
   19.6775   12.8282   33.2108 N   0  0  0  0  0  0  0  0  0  0  0  0
   19.4845    9.2869   32.8583 C   0  0  0  0  0  0  0  0  0  0  0  0
   18.4121    9.3644   33.6513 N   0  0  0  0  0  0  0  0  0  0  0  0
   17.5634    9.1035   33.1617 H   0  0  0  0  0  0  0  0  0  0  0  0
   18.5424    8.8086   34.4902 H   0  0  0  0  0  0  0  0  0  0  0  0
   19.8385    8.0389   32.4662 C   0  0  0  0  0  0  0  0  0  0  0  0
   19.2529    7.1774   32.7494 H   0  0  0  0  0  0  0  0  0  0  0  0
   24.0842    5.0893   30.5702 C   0  0  0  0  0  0  0  0  0  0  0  0
   23.8601    6.1792   29.7557 O   0  0  0  0  0  0  0  0  0  0  0  0
   24.9316    7.1178   29.5875 C   0  0  0  0  0  0  0  0  0  0  0  0
   24.5835    7.9610   28.9854 H   0  0  0  0  0  0  0  0  0  0  0  0
   25.7800    6.6592   29.0716 H   0  0  0  0  0  0  0  0  0  0  0  0
   25.2647    7.5047   30.5548 H   0  0  0  0  0  0  0  0  0  0  0  0
  1  2  1  0
  2  3  2  0
  3  4  1  0
  3  5  1  0
  5  6  1  0
  6  7  1  0
  7  8  1  0
  7  9  1  0
  7 10  1  0
  5 11  2  0
 11 12  1  0
 11 13  1  0
 13 14  1  0
 14 15  1  0
 14 16  1  0
 14 17  1  0
 17 18  2  0
 17 19  1  0
 19 20  1  0
 19 21  1  0
 21 22  2  0
 22 23  1  0
 23 24  1  0
 23 25  2  0
 25 26  1  0
 26 27  3  0
 25 28  1  0
 28 29  1  0
 29 30  1  0
 29 31  1  0
 28 32  2  0
 32 33  1  0
 13 34  2  0
 34 35  1  0
 35 36  1  0
 36 37  1  0
 36 38  1  0
 36 39  1  0
 34  2  1  0
 32 21  1  0
M  END
>  <score>  (29) 
7.12799

$$$$

     RDKit          3D

 54 55  0  0  0  0  0  0  0  0999 V2000
   26.1571    5.4385   30.8448 H   0  0  0  0  0  0  0  0  0  0  0  0
   25.3140    4.8044   31.0984 C   0  0  0  0  0  0  0  0  0  0  0  0
   25.5054    3.7042   31.9419 C   0  0  0  0  0  0  0  0  0  0  0  0
   27.2600    3.3579   32.6318 Br  0  0  0  0  0  0  0  0  0  0  0  0
   24.4272    2.8629   32.2628 C   0  0  0  0  0  0  0  0  0  0  0  0
   24.6608    1.7935   33.0982 O   0  0  0  0  0  0  0  0  0  0  0  0
   23.6729    0.7542   33.1222 C   0  0  0  0  0  0  0  0  0  0  0  0
   22.7373    1.1149   33.5594 H   0  0  0  0  0  0  0  0  0  0  0  0
   23.4744    0.3852   32.1111 H   0  0  0  0  0  0  0  0  0  0  0  0
   24.0379   -0.0821   33.7270 H   0  0  0  0  0  0  0  0  0  0  0  0
   23.1601    3.1535   31.7240 C   0  0  0  0  0  0  0  0  0  0  0  0
   22.3280    2.5018   31.9727 H   0  0  0  0  0  0  0  0  0  0  0  0
   22.9650    4.2602   30.8792 C   0  0  0  0  0  0  0  0  0  0  0  0
   21.5871    4.5486   30.3220 C   0  0  0  0  0  0  0  0  0  0  0  0
   21.6802    4.8328   29.2704 H   0  0  0  0  0  0  0  0  0  0  0  0
   20.9549    3.6595   30.3743 H   0  0  0  0  0  0  0  0  0  0  0  0
   20.9178    5.6948   31.0712 C   0  0  0  0  0  0  0  0  0  0  0  0
   19.8587    5.5303   31.6552 O   0  0  0  0  0  0  0  0  0  0  0  0
   21.4704    6.9355   30.9908 N   0  0  0  0  0  0  0  0  0  0  0  0
   22.3326    7.0677   30.4880 H   0  0  0  0  0  0  0  0  0  0  0  0
   20.9718    8.0506   31.5487 C   0  0  0  0  0  0  0  0  0  0  0  0
   21.7120    9.0691   31.2021 N   0  0  0  0  0  0  0  0  0  0  0  0
   21.3781   10.2692   31.6736 C   0  0  0  0  0  0  0  0  0  0  0  0
   22.1427   11.3621   31.3572 O   0  0  0  0  0  0  0  0  0  0  0  0
   23.2488   11.1739   30.4491 C   0  0  0  0  0  0  0  0  0  0  0  0
   23.9149   12.0393   30.5162 H   0  0  0  0  0  0  0  0  0  0  0  0
   23.8258   10.2818   30.7165 H   0  0  0  0  0  0  0  0  0  0  0  0
   22.7893   11.0256   29.0004 C   0  0  0  0  0  0  0  0  0  0  0  0
   22.0783   10.1908   28.9395 H   0  0  0  0  0  0  0  0  0  0  0  0
   22.2716   11.9342   28.6745 H   0  0  0  0  0  0  0  0  0  0  0  0
   23.9624   10.7768   28.1303 N   0  0  0  0  0  0  0  0  0  0  0  0
   23.7159    9.8194   27.0351 C   0  0  0  0  0  0  0  0  0  0  0  0
   22.8089   10.0641   26.4709 H   0  0  0  0  0  0  0  0  0  0  0  0
   23.5884    8.8131   27.4467 H   0  0  0  0  0  0  0  0  0  0  0  0
   24.5654    9.8182   26.3448 H   0  0  0  0  0  0  0  0  0  0  0  0
   24.8226   11.9336   27.7958 C   0  0  0  0  0  0  0  0  0  0  0  0
   25.6544   11.6188   27.1514 H   0  0  0  0  0  0  0  0  0  0  0  0
   24.2376   12.6877   27.2635 H   0  0  0  0  0  0  0  0  0  0  0  0
   25.2421   12.3986   28.6961 H   0  0  0  0  0  0  0  0  0  0  0  0
   20.2861   10.4573   32.4889 C   0  0  0  0  0  0  0  0  0  0  0  0
   19.9407   11.7662   32.9317 C   0  0  0  0  0  0  0  0  0  0  0  0
   19.6940   12.8566   33.2469 N   0  0  0  0  0  0  0  0  0  0  0  0
   19.5653    9.3595   32.8464 C   0  0  0  0  0  0  0  0  0  0  0  0
   18.5271    9.4670   33.6987 N   0  0  0  0  0  0  0  0  0  0  0  0
   18.1691   10.3956   33.9058 H   0  0  0  0  0  0  0  0  0  0  0  0
   17.9522    8.6455   33.8598 H   0  0  0  0  0  0  0  0  0  0  0  0
   19.8869    8.1276   32.3769 C   0  0  0  0  0  0  0  0  0  0  0  0
   19.3157    7.2617   32.6637 H   0  0  0  0  0  0  0  0  0  0  0  0
   24.0511    5.1031   30.5648 C   0  0  0  0  0  0  0  0  0  0  0  0
   23.8357    6.1942   29.7495 O   0  0  0  0  0  0  0  0  0  0  0  0
   24.9293    7.1111   29.5948 C   0  0  0  0  0  0  0  0  0  0  0  0
   24.6102    7.9686   28.9951 H   0  0  0  0  0  0  0  0  0  0  0  0
   25.7733    6.6294   29.0910 H   0  0  0  0  0  0  0  0  0  0  0  0
   25.2651    7.4764   30.5703 H   0  0  0  0  0  0  0  0  0  0  0  0
  1  2  1  0
  2  3  2  0
  3  4  1  0
  3  5  1  0
  5  6  1  0
  6  7  1  0
  7  8  1  0
  7  9  1  0
  7 10  1  0
  5 11  2  0
 11 12  1  0
 11 13  1  0
 13 14  1  0
 14 15  1  0
 14 16  1  0
 14 17  1  0
 17 18  2  0
 17 19  1  0
 19 20  1  0
 19 21  1  0
 21 22  2  0
 22 23  1  0
 23 24  1  0
 24 25  1  0
 25 26  1  0
 25 27  1  0
 25 28  1  0
 28 29  1  0
 28 30  1  0
 28 31  1  0
 31 32  1  0
 32 33  1  0
 32 34  1  0
 32 35  1  0
 31 36  1  0
 36 37  1  0
 36 38  1  0
 36 39  1  0
 23 40  2  0
 40 41  1  0
 41 42  3  0
 40 43  1  0
 43 44  1  0
 44 45  1  0
 44 46  1  0
 43 47  2  0
 47 48  1  0
 13 49  2  0
 49 50  1  0
 50 51  1  0
 51 52  1  0
 51 53  1  0
 51 54  1  0
 49  2  1  0
 47 21  1  0
M  END
>  <score>  (30) 
7.14061

$$$$

     RDKit          3D

 43 44  0  0  0  0  0  0  0  0999 V2000
   26.1930    5.4069   30.8452 H   0  0  0  0  0  0  0  0  0  0  0  0
   25.3460    4.7773   31.0994 C   0  0  0  0  0  0  0  0  0  0  0  0
   25.5240    3.6727   31.9463 C   0  0  0  0  0  0  0  0  0  0  0  0
   27.2707    3.2928   32.6355 Br  0  0  0  0  0  0  0  0  0  0  0  0
   24.4373    2.8442   32.2728 C   0  0  0  0  0  0  0  0  0  0  0  0
   24.6608    1.7836   33.1233 O   0  0  0  0  0  0  0  0  0  0  0  0
   23.6906    0.7295   33.1437 C   0  0  0  0  0  0  0  0  0  0  0  0
   22.7516    1.0693   33.5879 H   0  0  0  0  0  0  0  0  0  0  0  0
   24.0774   -0.0970   33.7464 H   0  0  0  0  0  0  0  0  0  0  0  0
   23.4993    0.3572   32.1332 H   0  0  0  0  0  0  0  0  0  0  0  0
   23.1756    3.1463   31.7324 C   0  0  0  0  0  0  0  0  0  0  0  0
   22.3369    2.5046   31.9797 H   0  0  0  0  0  0  0  0  0  0  0  0
   22.9930    4.2515   30.8835 C   0  0  0  0  0  0  0  0  0  0  0  0
   21.6169    4.5436   30.3291 C   0  0  0  0  0  0  0  0  0  0  0  0
   21.0160    3.6313   30.3147 H   0  0  0  0  0  0  0  0  0  0  0  0
   21.7250    4.8830   29.2964 H   0  0  0  0  0  0  0  0  0  0  0  0
   20.9083    5.6395   31.1250 C   0  0  0  0  0  0  0  0  0  0  0  0
   19.7188    5.5461   31.3924 O   0  0  0  0  0  0  0  0  0  0  0  0
   21.5649    6.8081   31.3686 N   0  0  0  0  0  0  0  0  0  0  0  0
   22.4804    6.9349   30.9539 H   0  0  0  0  0  0  0  0  0  0  0  0
   20.9902    7.9661   31.7372 C   0  0  0  0  0  0  0  0  0  0  0  0
   21.7456    8.9789   31.3720 N   0  0  0  0  0  0  0  0  0  0  0  0
   21.3882   10.2133   31.7353 C   0  0  0  0  0  0  0  0  0  0  0  0
   22.4079   11.5440   31.1844 S   0  0  0  0  0  0  0  0  0  0  0  0
   21.5612   11.9017   29.5958 C   0  0  0  0  0  0  0  0  0  0  0  0
   22.0685   12.7193   29.0804 H   0  0  0  0  0  0  0  0  0  0  0  0
   21.5771   11.0203   28.9478 H   0  0  0  0  0  0  0  0  0  0  0  0
   20.5236   12.1956   29.7760 H   0  0  0  0  0  0  0  0  0  0  0  0
   20.2655   10.4601   32.5047 C   0  0  0  0  0  0  0  0  0  0  0  0
   19.9314   11.7899   32.9083 C   0  0  0  0  0  0  0  0  0  0  0  0
   19.7036   12.8984   33.1876 N   0  0  0  0  0  0  0  0  0  0  0  0
   19.5109    9.3668   32.8538 C   0  0  0  0  0  0  0  0  0  0  0  0
   18.4399    9.4919   33.6551 N   0  0  0  0  0  0  0  0  0  0  0  0
   17.9130    8.6611   33.9032 H   0  0  0  0  0  0  0  0  0  0  0  0
   18.1432   10.4137   33.9577 H   0  0  0  0  0  0  0  0  0  0  0  0
   19.8366    8.1011   32.4602 C   0  0  0  0  0  0  0  0  0  0  0  0
   19.2338    7.2557   32.7605 H   0  0  0  0  0  0  0  0  0  0  0  0
   24.0851    5.0876   30.5678 C   0  0  0  0  0  0  0  0  0  0  0  0
   23.8680    6.1776   29.7500 O   0  0  0  0  0  0  0  0  0  0  0  0
   24.9324    7.1242   29.5834 C   0  0  0  0  0  0  0  0  0  0  0  0
   25.2624    7.5087   30.5516 H   0  0  0  0  0  0  0  0  0  0  0  0
   24.5761    7.9659   28.9825 H   0  0  0  0  0  0  0  0  0  0  0  0
   25.7820    6.6692   29.0684 H   0  0  0  0  0  0  0  0  0  0  0  0
  1  2  1  0
  2  3  2  0
  3  4  1  0
  3  5  1  0
  5  6  1  0
  6  7  1  0
  7  8  1  0
  7  9  1  0
  7 10  1  0
  5 11  2  0
 11 12  1  0
 11 13  1  0
 13 14  1  0
 14 15  1  0
 14 16  1  0
 14 17  1  0
 17 18  2  0
 17 19  1  0
 19 20  1  0
 19 21  1  0
 21 22  2  0
 22 23  1  0
 23 24  1  0
 24 25  1  0
 25 26  1  0
 25 27  1  0
 25 28  1  0
 23 29  2  0
 29 30  1  0
 30 31  3  0
 29 32  1  0
 32 33  1  0
 33 34  1  0
 33 35  1  0
 32 36  2  0
 36 37  1  0
 13 38  2  0
 38 39  1  0
 39 40  1  0
 40 41  1  0
 40 42  1  0
 40 43  1  0
 38  2  1  0
 36 21  1  0
M  END
>  <score>  (31) 
7.14475

$$$$

     RDKit          3D

 50 51  0  0  0  0  0  0  0  0999 V2000
   26.1549    5.4376   30.8430 H   0  0  0  0  0  0  0  0  0  0  0  0
   25.3129    4.8034   31.0980 C   0  0  0  0  0  0  0  0  0  0  0  0
   25.5056    3.7039   31.9420 C   0  0  0  0  0  0  0  0  0  0  0  0
   27.2602    3.3562   32.6318 Br  0  0  0  0  0  0  0  0  0  0  0  0
   24.4278    2.8626   32.2634 C   0  0  0  0  0  0  0  0  0  0  0  0
   24.6611    1.7931   33.0993 O   0  0  0  0  0  0  0  0  0  0  0  0
   23.6735    0.7533   33.1230 C   0  0  0  0  0  0  0  0  0  0  0  0
   24.0385   -0.0836   33.7277 H   0  0  0  0  0  0  0  0  0  0  0  0
   23.4756    0.3853   32.1113 H   0  0  0  0  0  0  0  0  0  0  0  0
   22.7376    1.1140   33.5600 H   0  0  0  0  0  0  0  0  0  0  0  0
   23.1604    3.1516   31.7254 C   0  0  0  0  0  0  0  0  0  0  0  0
   22.3301    2.4979   31.9741 H   0  0  0  0  0  0  0  0  0  0  0  0
   22.9642    4.2585   30.8806 C   0  0  0  0  0  0  0  0  0  0  0  0
   21.5876    4.5490   30.3217 C   0  0  0  0  0  0  0  0  0  0  0  0
   21.6815    4.8337   29.2703 H   0  0  0  0  0  0  0  0  0  0  0  0
   20.9524    3.6618   30.3722 H   0  0  0  0  0  0  0  0  0  0  0  0
   20.9197    5.6935   31.0709 C   0  0  0  0  0  0  0  0  0  0  0  0
   19.8659    5.5313   31.6621 O   0  0  0  0  0  0  0  0  0  0  0  0
   21.4688    6.9365   30.9861 N   0  0  0  0  0  0  0  0  0  0  0  0
   22.3371    7.0674   30.4919 H   0  0  0  0  0  0  0  0  0  0  0  0
   20.9753    8.0462   31.5449 C   0  0  0  0  0  0  0  0  0  0  0  0
   21.7173    9.0658   31.1934 N   0  0  0  0  0  0  0  0  0  0  0  0
   21.3688   10.2629   31.6552 C   0  0  0  0  0  0  0  0  0  0  0  0
   22.1178   11.3629   31.3388 O   0  0  0  0  0  0  0  0  0  0  0  0
   23.2761   11.1935   30.5033 C   0  0  0  0  0  0  0  0  0  0  0  0
   23.8993   10.3691   30.8653 H   0  0  0  0  0  0  0  0  0  0  0  0
   23.8686   12.1093   30.5582 H   0  0  0  0  0  0  0  0  0  0  0  0
   22.9274   10.9626   29.0332 C   0  0  0  0  0  0  0  0  0  0  0  0
   22.4061   10.0127   28.9210 H   0  0  0  0  0  0  0  0  0  0  0  0
   23.8521   10.8859   28.4539 H   0  0  0  0  0  0  0  0  0  0  0  0
   22.1027   12.0174   28.5157 O   0  0  0  0  0  0  0  0  0  0  0  0
   22.8082   13.2426   28.2519 C   0  0  0  0  0  0  0  0  0  0  0  0
   23.1655   13.6999   29.1818 H   0  0  0  0  0  0  0  0  0  0  0  0
   22.1389   13.9470   27.7537 H   0  0  0  0  0  0  0  0  0  0  0  0
   23.6616   13.0879   27.5794 H   0  0  0  0  0  0  0  0  0  0  0  0
   20.2843   10.4516   32.4797 C   0  0  0  0  0  0  0  0  0  0  0  0
   19.9425   11.7576   32.9254 C   0  0  0  0  0  0  0  0  0  0  0  0
   19.6983   12.8500   33.2438 N   0  0  0  0  0  0  0  0  0  0  0  0
   19.5689    9.3525   32.8449 C   0  0  0  0  0  0  0  0  0  0  0  0
   18.5345    9.4651   33.6983 N   0  0  0  0  0  0  0  0  0  0  0  0
   17.9529    8.6473   33.8556 H   0  0  0  0  0  0  0  0  0  0  0  0
   18.1763   10.3964   33.8937 H   0  0  0  0  0  0  0  0  0  0  0  0
   19.8900    8.1230   32.3735 C   0  0  0  0  0  0  0  0  0  0  0  0
   19.3127    7.2600   32.6609 H   0  0  0  0  0  0  0  0  0  0  0  0
   24.0499    5.1014   30.5660 C   0  0  0  0  0  0  0  0  0  0  0  0
   23.8362    6.1922   29.7498 O   0  0  0  0  0  0  0  0  0  0  0  0
   24.9304    7.1077   29.5936 C   0  0  0  0  0  0  0  0  0  0  0  0
   24.6112    7.9638   28.9913 H   0  0  0  0  0  0  0  0  0  0  0  0
   25.7748    6.6247   29.0913 H   0  0  0  0  0  0  0  0  0  0  0  0
   25.2650    7.4743   30.5690 H   0  0  0  0  0  0  0  0  0  0  0  0
  1  2  1  0
  2  3  2  0
  3  4  1  0
  3  5  1  0
  5  6  1  0
  6  7  1  0
  7  8  1  0
  7  9  1  0
  7 10  1  0
  5 11  2  0
 11 12  1  0
 11 13  1  0
 13 14  1  0
 14 15  1  0
 14 16  1  0
 14 17  1  0
 17 18  2  0
 17 19  1  0
 19 20  1  0
 19 21  1  0
 21 22  2  0
 22 23  1  0
 23 24  1  0
 24 25  1  0
 25 26  1  0
 25 27  1  0
 25 28  1  0
 28 29  1  0
 28 30  1  0
 28 31  1  0
 31 32  1  0
 32 33  1  0
 32 34  1  0
 32 35  1  0
 23 36  2  0
 36 37  1  0
 37 38  3  0
 36 39  1  0
 39 40  1  0
 40 41  1  0
 40 42  1  0
 39 43  2  0
 43 44  1  0
 13 45  2  0
 45 46  1  0
 46 47  1  0
 47 48  1  0
 47 49  1  0
 47 50  1  0
 45  2  1  0
 43 21  1  0
M  END
>  <score>  (32) 
7.15263

$$$$

     RDKit          3D

 46 47  0  0  0  0  0  0  0  0999 V2000
   26.1831    5.4183   30.8489 H   0  0  0  0  0  0  0  0  0  0  0  0
   25.3390    4.7855   31.1016 C   0  0  0  0  0  0  0  0  0  0  0  0
   25.5251    3.6822   31.9453 C   0  0  0  0  0  0  0  0  0  0  0  0
   27.2751    3.3235   32.6380 Br  0  0  0  0  0  0  0  0  0  0  0  0
   24.4431    2.8475   32.2719 C   0  0  0  0  0  0  0  0  0  0  0  0
   24.6692    1.7846   33.1179 O   0  0  0  0  0  0  0  0  0  0  0  0
   23.6856    0.7399   33.1362 C   0  0  0  0  0  0  0  0  0  0  0  0
   22.7466    1.0903   33.5748 H   0  0  0  0  0  0  0  0  0  0  0  0
   23.4902    0.3716   32.1243 H   0  0  0  0  0  0  0  0  0  0  0  0
   24.0551   -0.0959   33.7381 H   0  0  0  0  0  0  0  0  0  0  0  0
   23.1791    3.1396   31.7307 C   0  0  0  0  0  0  0  0  0  0  0  0
   22.3426    2.4945   31.9821 H   0  0  0  0  0  0  0  0  0  0  0  0
   22.9908    4.2428   30.8822 C   0  0  0  0  0  0  0  0  0  0  0  0
   21.6103    4.5350   30.3350 C   0  0  0  0  0  0  0  0  0  0  0  0
   20.9966    3.6313   30.3447 H   0  0  0  0  0  0  0  0  0  0  0  0
   21.6974    4.8774   29.3020 H   0  0  0  0  0  0  0  0  0  0  0  0
   20.9183    5.6340   31.1261 C   0  0  0  0  0  0  0  0  0  0  0  0
   19.7289    5.5523   31.3878 O   0  0  0  0  0  0  0  0  0  0  0  0
   21.6004    6.7886   31.3659 N   0  0  0  0  0  0  0  0  0  0  0  0
   22.4773    6.9167   30.8821 H   0  0  0  0  0  0  0  0  0  0  0  0
   21.0280    7.9413   31.7564 C   0  0  0  0  0  0  0  0  0  0  0  0
   21.7557    8.9717   31.3843 N   0  0  0  0  0  0  0  0  0  0  0  0
   21.3578   10.2076   31.7110 C   0  0  0  0  0  0  0  0  0  0  0  0
   22.2221   11.3685   31.2606 C   0  0  0  0  0  0  0  0  0  0  0  0
   22.4208   11.9954   32.1274 H   0  0  0  0  0  0  0  0  0  0  0  0
   23.1742   10.9734   30.8979 H   0  0  0  0  0  0  0  0  0  0  0  0
   21.6181   12.2148   30.2642 O   0  0  0  0  0  0  0  0  0  0  0  0
   21.7606   11.7093   28.9332 C   0  0  0  0  0  0  0  0  0  0  0  0
   22.8076   11.7434   28.6198 H   0  0  0  0  0  0  0  0  0  0  0  0
   21.1688   12.3097   28.2338 H   0  0  0  0  0  0  0  0  0  0  0  0
   21.4179   10.6715   28.8896 H   0  0  0  0  0  0  0  0  0  0  0  0
   20.2319   10.4088   32.4929 C   0  0  0  0  0  0  0  0  0  0  0  0
   19.8779   11.7247   32.9177 C   0  0  0  0  0  0  0  0  0  0  0  0
   19.6318   12.8099   33.2526 N   0  0  0  0  0  0  0  0  0  0  0  0
   19.4955    9.3063   32.8501 C   0  0  0  0  0  0  0  0  0  0  0  0
   18.3988    9.3775   33.6321 N   0  0  0  0  0  0  0  0  0  0  0  0
   18.5499    8.9051   34.5191 H   0  0  0  0  0  0  0  0  0  0  0  0
   17.5675    9.0561   33.1454 H   0  0  0  0  0  0  0  0  0  0  0  0
   19.8640    8.0565   32.4613 C   0  0  0  0  0  0  0  0  0  0  0  0
   19.2714    7.2007   32.7321 H   0  0  0  0  0  0  0  0  0  0  0  0
   24.0768    5.0864   30.5678 C   0  0  0  0  0  0  0  0  0  0  0  0
   23.8525    6.1778   29.7548 O   0  0  0  0  0  0  0  0  0  0  0  0
   24.9317    7.1109   29.5909 C   0  0  0  0  0  0  0  0  0  0  0  0
   25.7804    6.6463   29.0792 H   0  0  0  0  0  0  0  0  0  0  0  0
   24.5931    7.9593   28.9893 H   0  0  0  0  0  0  0  0  0  0  0  0
   25.2678    7.4919   30.5604 H   0  0  0  0  0  0  0  0  0  0  0  0
  1  2  1  0
  2  3  2  0
  3  4  1  0
  3  5  1  0
  5  6  1  0
  6  7  1  0
  7  8  1  0
  7  9  1  0
  7 10  1  0
  5 11  2  0
 11 12  1  0
 11 13  1  0
 13 14  1  0
 14 15  1  0
 14 16  1  0
 14 17  1  0
 17 18  2  0
 17 19  1  0
 19 20  1  0
 19 21  1  0
 21 22  2  0
 22 23  1  0
 23 24  1  0
 24 25  1  0
 24 26  1  0
 24 27  1  0
 27 28  1  0
 28 29  1  0
 28 30  1  0
 28 31  1  0
 23 32  2  0
 32 33  1  0
 33 34  3  0
 32 35  1  0
 35 36  1  0
 36 37  1  0
 36 38  1  0
 35 39  2  0
 39 40  1  0
 13 41  2  0
 41 42  1  0
 42 43  1  0
 43 44  1  0
 43 45  1  0
 43 46  1  0
 41  2  1  0
 39 21  1  0
M  END
>  <score>  (33) 
7.16949

$$$$

     RDKit          3D

 49 50  0  0  0  0  0  0  0  0999 V2000
   26.1791    5.4207   30.8458 H   0  0  0  0  0  0  0  0  0  0  0  0
   25.3386    4.7865   31.1026 C   0  0  0  0  0  0  0  0  0  0  0  0
   25.5231    3.6823   31.9439 C   0  0  0  0  0  0  0  0  0  0  0  0
   27.2712    3.3250   32.6356 Br  0  0  0  0  0  0  0  0  0  0  0  0
   24.4415    2.8492   32.2710 C   0  0  0  0  0  0  0  0  0  0  0  0
   24.6672    1.7848   33.1146 O   0  0  0  0  0  0  0  0  0  0  0  0
   23.6841    0.7401   33.1346 C   0  0  0  0  0  0  0  0  0  0  0  0
   23.4909    0.3708   32.1209 H   0  0  0  0  0  0  0  0  0  0  0  0
   22.7458    1.0917   33.5768 H   0  0  0  0  0  0  0  0  0  0  0  0
   24.0550   -0.0950   33.7382 H   0  0  0  0  0  0  0  0  0  0  0  0
   23.1783    3.1450   31.7326 C   0  0  0  0  0  0  0  0  0  0  0  0
   22.3437    2.4982   31.9823 H   0  0  0  0  0  0  0  0  0  0  0  0
   22.9898    4.2547   30.8916 C   0  0  0  0  0  0  0  0  0  0  0  0
   21.6101    4.5674   30.3508 C   0  0  0  0  0  0  0  0  0  0  0  0
   20.9756    3.6760   30.3734 H   0  0  0  0  0  0  0  0  0  0  0  0
   21.6982    4.8994   29.3140 H   0  0  0  0  0  0  0  0  0  0  0  0
   20.9418    5.6942   31.1315 C   0  0  0  0  0  0  0  0  0  0  0  0
   19.7500    5.6358   31.3910 O   0  0  0  0  0  0  0  0  0  0  0  0
   21.6344    6.8465   31.3496 N   0  0  0  0  0  0  0  0  0  0  0  0
   22.5103    6.9645   30.8602 H   0  0  0  0  0  0  0  0  0  0  0  0
   21.0731    8.0042   31.7443 C   0  0  0  0  0  0  0  0  0  0  0  0
   21.8213    9.0148   31.3728 N   0  0  0  0  0  0  0  0  0  0  0  0
   21.4229   10.2268   31.7088 C   0  0  0  0  0  0  0  0  0  0  0  0
   22.1729   11.2731   31.2700 N   0  0  0  0  0  0  0  0  0  0  0  0
   21.7549   12.1895   31.2677 H   0  0  0  0  0  0  0  0  0  0  0  0
   23.4769   11.1207   30.8887 C   0  0  0  0  0  0  0  0  0  0  0  0
   24.0389   10.0470   31.0073 O   0  0  0  0  0  0  0  0  0  0  0  0
   24.2162   12.2935   30.2704 C   0  0  0  0  0  0  0  0  0  0  0  0
   23.5199   12.8481   29.6382 H   0  0  0  0  0  0  0  0  0  0  0  0
   25.0127   11.8959   29.6333 H   0  0  0  0  0  0  0  0  0  0  0  0
   24.8245   13.2314   31.3100 C   0  0  0  0  0  0  0  0  0  0  0  0
   25.4862   12.6760   31.9768 H   0  0  0  0  0  0  0  0  0  0  0  0
   24.0526   13.7232   31.9102 H   0  0  0  0  0  0  0  0  0  0  0  0
   25.4039   13.9969   30.7913 H   0  0  0  0  0  0  0  0  0  0  0  0
   20.2971   10.4809   32.4534 C   0  0  0  0  0  0  0  0  0  0  0  0
   19.9680   11.8072   32.8556 C   0  0  0  0  0  0  0  0  0  0  0  0
   19.7231   12.9000   33.1815 N   0  0  0  0  0  0  0  0  0  0  0  0
   19.5523    9.3907   32.8251 C   0  0  0  0  0  0  0  0  0  0  0  0
   18.4654    9.5083   33.6077 N   0  0  0  0  0  0  0  0  0  0  0  0
   18.1778   10.4271   33.9227 H   0  0  0  0  0  0  0  0  0  0  0  0
   17.9585    8.6698   33.8753 H   0  0  0  0  0  0  0  0  0  0  0  0
   19.9008    8.1326   32.4450 C   0  0  0  0  0  0  0  0  0  0  0  0
   19.2892    7.2880   32.7192 H   0  0  0  0  0  0  0  0  0  0  0  0
   24.0774    5.0919   30.5728 C   0  0  0  0  0  0  0  0  0  0  0  0
   23.8534    6.1802   29.7554 O   0  0  0  0  0  0  0  0  0  0  0  0
   24.9306    7.1154   29.5950 C   0  0  0  0  0  0  0  0  0  0  0  0
   25.2661    7.4905   30.5689 H   0  0  0  0  0  0  0  0  0  0  0  0
   24.5889    7.9680   28.9999 H   0  0  0  0  0  0  0  0  0  0  0  0
   25.7776    6.6531   29.0746 H   0  0  0  0  0  0  0  0  0  0  0  0
  1  2  1  0
  2  3  2  0
  3  4  1  0
  3  5  1  0
  5  6  1  0
  6  7  1  0
  7  8  1  0
  7  9  1  0
  7 10  1  0
  5 11  2  0
 11 12  1  0
 11 13  1  0
 13 14  1  0
 14 15  1  0
 14 16  1  0
 14 17  1  0
 17 18  2  0
 17 19  1  0
 19 20  1  0
 19 21  1  0
 21 22  2  0
 22 23  1  0
 23 24  1  0
 24 25  1  0
 24 26  1  0
 26 27  2  0
 26 28  1  0
 28 29  1  0
 28 30  1  0
 28 31  1  0
 31 32  1  0
 31 33  1  0
 31 34  1  0
 23 35  2  0
 35 36  1  0
 36 37  3  0
 35 38  1  0
 38 39  1  0
 39 40  1  0
 39 41  1  0
 38 42  2  0
 42 43  1  0
 13 44  2  0
 44 45  1  0
 45 46  1  0
 46 47  1  0
 46 48  1  0
 46 49  1  0
 44  2  1  0
 42 21  1  0
M  END
>  <score>  (34) 
7.17443

$$$$

     RDKit          3D

 44 45  0  0  0  0  0  0  0  0999 V2000
   23.2104   12.9897   31.0958 H   0  0  0  0  0  0  0  0  0  0  0  0
   22.5504   12.4925   31.6865 N   0  0  0  0  0  0  0  0  0  0  0  0
   22.3179   11.3251   31.1978 C   0  0  0  0  0  0  0  0  0  0  0  0
   21.3987   10.1824   31.6957 C   0  0  0  0  0  0  0  0  0  0  0  0
   21.7059    8.9036   31.3706 N   0  0  0  0  0  0  0  0  0  0  0  0
   20.9591    7.9053   31.7814 C   0  0  0  0  0  0  0  0  0  0  0  0
   21.5450    6.7575   31.3986 N   0  0  0  0  0  0  0  0  0  0  0  0
   22.4084    6.9082   30.9006 H   0  0  0  0  0  0  0  0  0  0  0  0
   20.8812    5.5981   31.1474 C   0  0  0  0  0  0  0  0  0  0  0  0
   19.6856    5.5134   31.3759 O   0  0  0  0  0  0  0  0  0  0  0  0
   21.6026    4.5260   30.3435 C   0  0  0  0  0  0  0  0  0  0  0  0
   20.9992    3.6167   30.3378 H   0  0  0  0  0  0  0  0  0  0  0  0
   21.6833    4.8870   29.3151 H   0  0  0  0  0  0  0  0  0  0  0  0
   22.9868    4.2411   30.8890 C   0  0  0  0  0  0  0  0  0  0  0  0
   23.1810    3.1353   31.7311 C   0  0  0  0  0  0  0  0  0  0  0  0
   22.3476    2.4870   31.9823 H   0  0  0  0  0  0  0  0  0  0  0  0
   24.4444    2.8498   32.2706 C   0  0  0  0  0  0  0  0  0  0  0  0
   24.6697    1.7866   33.1145 O   0  0  0  0  0  0  0  0  0  0  0  0
   23.6827    0.7425   33.1332 C   0  0  0  0  0  0  0  0  0  0  0  0
   23.4885    0.3759   32.1177 H   0  0  0  0  0  0  0  0  0  0  0  0
   22.7436    1.0986   33.5728 H   0  0  0  0  0  0  0  0  0  0  0  0
   24.0493   -0.0965   33.7369 H   0  0  0  0  0  0  0  0  0  0  0  0
   25.5225    3.6874   31.9450 C   0  0  0  0  0  0  0  0  0  0  0  0
   27.2726    3.3351   32.6365 Br  0  0  0  0  0  0  0  0  0  0  0  0
   25.3307    4.7878   31.1016 C   0  0  0  0  0  0  0  0  0  0  0  0
   26.1690    5.4253   30.8487 H   0  0  0  0  0  0  0  0  0  0  0  0
   24.0685    5.0867   30.5699 C   0  0  0  0  0  0  0  0  0  0  0  0
   23.8443    6.1785   29.7562 O   0  0  0  0  0  0  0  0  0  0  0  0
   24.9314    7.1069   29.5943 C   0  0  0  0  0  0  0  0  0  0  0  0
   24.5993    7.9593   28.9915 H   0  0  0  0  0  0  0  0  0  0  0  0
   25.2670    7.4856   30.5682 H   0  0  0  0  0  0  0  0  0  0  0  0
   25.7792    6.6348   29.0817 H   0  0  0  0  0  0  0  0  0  0  0  0
   19.8106    8.0668   32.5047 C   0  0  0  0  0  0  0  0  0  0  0  0
   19.1994    7.2285   32.8056 H   0  0  0  0  0  0  0  0  0  0  0  0
   19.4899    9.3371   32.8799 C   0  0  0  0  0  0  0  0  0  0  0  0
   18.4042    9.4738   33.6755 N   0  0  0  0  0  0  0  0  0  0  0  0
   17.8604    8.6496   33.9372 H   0  0  0  0  0  0  0  0  0  0  0  0
   18.1251   10.4083   33.9541 H   0  0  0  0  0  0  0  0  0  0  0  0
   20.2628   10.4190   32.4919 C   0  0  0  0  0  0  0  0  0  0  0  0
   19.9151   11.7383   32.9034 C   0  0  0  0  0  0  0  0  0  0  0  0
   19.6638   12.8260   33.2358 N   0  0  0  0  0  0  0  0  0  0  0  0
   23.1275   11.4293   30.0912 N   0  0  0  0  0  0  0  0  0  0  0  0
   23.0335   10.7656   29.3271 H   0  0  0  0  0  0  0  0  0  0  0  0
   23.5802   12.3310   29.9634 H   0  0  0  0  0  0  0  0  0  0  0  0
  1  2  1  0
  2  3  2  3
  3  4  1  0
  4  5  2  0
  5  6  1  0
  6  7  1  0
  7  8  1  0
  7  9  1  0
  9 10  2  0
  9 11  1  0
 11 12  1  0
 11 13  1  0
 11 14  1  0
 14 15  2  0
 15 16  1  0
 15 17  1  0
 17 18  1  0
 18 19  1  0
 19 20  1  0
 19 21  1  0
 19 22  1  0
 17 23  2  0
 23 24  1  0
 23 25  1  0
 25 26  1  0
 25 27  2  0
 27 28  1  0
 28 29  1  0
 29 30  1  0
 29 31  1  0
 29 32  1  0
  6 33  2  0
 33 34  1  0
 33 35  1  0
 35 36  1  0
 36 37  1  0
 36 38  1  0
 35 39  2  0
 39 40  1  0
 40 41  3  0
  3 42  1  0
 42 43  1  0
 42 44  1  0
 39  4  1  0
 27 14  1  0
M  END
>  <score>  (35) 
7.17967

$$$$

     RDKit          3D

 52 53  0  0  0  0  0  0  0  0999 V2000
   26.0886    5.5154   30.9041 H   0  0  0  0  0  0  0  0  0  0  0  0
   25.2644    4.8484   31.1324 C   0  0  0  0  0  0  0  0  0  0  0  0
   25.4874    3.7431   31.9566 C   0  0  0  0  0  0  0  0  0  0  0  0
   27.2430    3.4608   32.6698 Br  0  0  0  0  0  0  0  0  0  0  0  0
   24.4337    2.8663   32.2495 C   0  0  0  0  0  0  0  0  0  0  0  0
   24.6675    1.7731   33.0500 O   0  0  0  0  0  0  0  0  0  0  0  0
   23.6207    0.7935   33.0777 C   0  0  0  0  0  0  0  0  0  0  0  0
   22.7077    1.2228   33.5019 H   0  0  0  0  0  0  0  0  0  0  0  0
   23.9250   -0.0584   33.6908 H   0  0  0  0  0  0  0  0  0  0  0  0
   23.4038    0.4362   32.0652 H   0  0  0  0  0  0  0  0  0  0  0  0
   23.1642    3.1337   31.7111 C   0  0  0  0  0  0  0  0  0  0  0  0
   22.3460    2.4656   31.9560 H   0  0  0  0  0  0  0  0  0  0  0  0
   22.9346    4.2320   30.8777 C   0  0  0  0  0  0  0  0  0  0  0  0
   21.5229    4.4383   30.3676 C   0  0  0  0  0  0  0  0  0  0  0  0
   20.9627    3.5028   30.4354 H   0  0  0  0  0  0  0  0  0  0  0  0
   21.5474    4.7400   29.3178 H   0  0  0  0  0  0  0  0  0  0  0  0
   20.8096    5.5003   31.1930 C   0  0  0  0  0  0  0  0  0  0  0  0
   19.6416    5.3698   31.5278 O   0  0  0  0  0  0  0  0  0  0  0  0
   21.4843    6.6434   31.4739 N   0  0  0  0  0  0  0  0  0  0  0  0
   22.2949    6.8474   30.9088 H   0  0  0  0  0  0  0  0  0  0  0  0
   20.8775    7.7559   31.8786 C   0  0  0  0  0  0  0  0  0  0  0  0
   21.5246    8.7344   31.3290 N   0  0  0  0  0  0  0  0  0  0  0  0
   21.1241    9.9672   31.5853 C   0  0  0  0  0  0  0  0  0  0  0  0
   21.7570   10.9854   30.9186 O   0  0  0  0  0  0  0  0  0  0  0  0
   22.8046   10.6134   29.9917 C   0  0  0  0  0  0  0  0  0  0  0  0
   23.3677    9.7570   30.3813 H   0  0  0  0  0  0  0  0  0  0  0  0
   22.3794   10.3147   29.0266 H   0  0  0  0  0  0  0  0  0  0  0  0
   23.7720   11.7809   29.8013 C   0  0  0  0  0  0  0  0  0  0  0  0
   24.6071   11.4555   29.1700 H   0  0  0  0  0  0  0  0  0  0  0  0
   23.2670   12.6237   29.3102 H   0  0  0  0  0  0  0  0  0  0  0  0
   24.2654   12.1986   31.1793 C   0  0  0  0  0  0  0  0  0  0  0  0
   23.3860   12.4895   31.7696 H   0  0  0  0  0  0  0  0  0  0  0  0
   24.7774   11.3552   31.6618 H   0  0  0  0  0  0  0  0  0  0  0  0
   25.2219   13.3610   31.1020 C   0  0  0  0  0  0  0  0  0  0  0  0
   26.1542   13.0676   30.6130 H   0  0  0  0  0  0  0  0  0  0  0  0
   25.4318   13.6877   32.1195 H   0  0  0  0  0  0  0  0  0  0  0  0
   24.7886   14.1935   30.5490 H   0  0  0  0  0  0  0  0  0  0  0  0
   20.0979   10.2312   32.4737 C   0  0  0  0  0  0  0  0  0  0  0  0
   19.8006   11.5766   32.8232 C   0  0  0  0  0  0  0  0  0  0  0  0
   19.6120   12.6847   33.1220 N   0  0  0  0  0  0  0  0  0  0  0  0
   19.4253    9.1622   33.0042 C   0  0  0  0  0  0  0  0  0  0  0  0
   18.3742    9.3351   33.8366 N   0  0  0  0  0  0  0  0  0  0  0  0
   17.7659    8.5305   33.9506 H   0  0  0  0  0  0  0  0  0  0  0  0
   17.9591   10.2625   33.8526 H   0  0  0  0  0  0  0  0  0  0  0  0
   19.7935    7.8903   32.6920 C   0  0  0  0  0  0  0  0  0  0  0  0
   19.2792    7.0357   33.0937 H   0  0  0  0  0  0  0  0  0  0  0  0
   23.9958    5.1204   30.5904 C   0  0  0  0  0  0  0  0  0  0  0  0
   23.7829    6.2410   29.8160 O   0  0  0  0  0  0  0  0  0  0  0  0
   24.9279    7.0901   29.6224 C   0  0  0  0  0  0  0  0  0  0  0  0
   25.3022    7.4526   30.5855 H   0  0  0  0  0  0  0  0  0  0  0  0
   25.7315    6.5375   29.1250 H   0  0  0  0  0  0  0  0  0  0  0  0
   24.6665    7.9530   29.0043 H   0  0  0  0  0  0  0  0  0  0  0  0
  1  2  1  0
  2  3  2  0
  3  4  1  0
  3  5  1  0
  5  6  1  0
  6  7  1  0
  7  8  1  0
  7  9  1  0
  7 10  1  0
  5 11  2  0
 11 12  1  0
 11 13  1  0
 13 14  1  0
 14 15  1  0
 14 16  1  0
 14 17  1  0
 17 18  2  0
 17 19  1  0
 19 20  1  0
 19 21  1  0
 21 22  2  0
 22 23  1  0
 23 24  1  0
 24 25  1  0
 25 26  1  0
 25 27  1  0
 25 28  1  0
 28 29  1  0
 28 30  1  0
 28 31  1  0
 31 32  1  0
 31 33  1  0
 31 34  1  0
 34 35  1  0
 34 36  1  0
 34 37  1  0
 23 38  2  0
 38 39  1  0
 39 40  3  0
 38 41  1  0
 41 42  1  0
 42 43  1  0
 42 44  1  0
 41 45  2  0
 45 46  1  0
 13 47  2  0
 47 48  1  0
 48 49  1  0
 49 50  1  0
 49 51  1  0
 49 52  1  0
 47  2  1  0
 45 21  1  0
M  END
>  <score>  (36) 
7.18365

$$$$

     RDKit          3D

 51 52  0  0  0  0  0  0  0  0999 V2000
   26.1502    5.4339   30.8405 H   0  0  0  0  0  0  0  0  0  0  0  0
   25.3099    4.8010   31.0977 C   0  0  0  0  0  0  0  0  0  0  0  0
   25.5065    3.7025   31.9394 C   0  0  0  0  0  0  0  0  0  0  0  0
   27.2583    3.3549   32.6319 Br  0  0  0  0  0  0  0  0  0  0  0  0
   24.4288    2.8652   32.2645 C   0  0  0  0  0  0  0  0  0  0  0  0
   24.6618    1.7961   33.0996 O   0  0  0  0  0  0  0  0  0  0  0  0
   23.6739    0.7536   33.1236 C   0  0  0  0  0  0  0  0  0  0  0  0
   22.7364    1.1142   33.5612 H   0  0  0  0  0  0  0  0  0  0  0  0
   24.0378   -0.0862   33.7285 H   0  0  0  0  0  0  0  0  0  0  0  0
   23.4773    0.3865   32.1099 H   0  0  0  0  0  0  0  0  0  0  0  0
   23.1600    3.1510   31.7297 C   0  0  0  0  0  0  0  0  0  0  0  0
   22.3307    2.4951   31.9757 H   0  0  0  0  0  0  0  0  0  0  0  0
   22.9623    4.2569   30.8848 C   0  0  0  0  0  0  0  0  0  0  0  0
   21.5873    4.5390   30.3177 C   0  0  0  0  0  0  0  0  0  0  0  0
   21.6840    4.8334   29.2659 H   0  0  0  0  0  0  0  0  0  0  0  0
   20.9558    3.6507   30.3681 H   0  0  0  0  0  0  0  0  0  0  0  0
   20.9061    5.6617   31.0796 C   0  0  0  0  0  0  0  0  0  0  0  0
   19.8574    5.4820   31.6770 O   0  0  0  0  0  0  0  0  0  0  0  0
   21.4477    6.9092   30.9985 N   0  0  0  0  0  0  0  0  0  0  0  0
   22.3234    7.0334   30.5163 H   0  0  0  0  0  0  0  0  0  0  0  0
   20.9451    8.0203   31.5617 C   0  0  0  0  0  0  0  0  0  0  0  0
   21.6914    9.0368   31.2069 N   0  0  0  0  0  0  0  0  0  0  0  0
   21.3737   10.2420   31.6611 C   0  0  0  0  0  0  0  0  0  0  0  0
   22.2427   11.3726   31.2015 C   0  0  0  0  0  0  0  0  0  0  0  0
   23.2543   10.9958   31.0162 H   0  0  0  0  0  0  0  0  0  0  0  0
   22.3020   12.1303   31.9848 H   0  0  0  0  0  0  0  0  0  0  0  0
   21.6575   11.9769   29.9199 C   0  0  0  0  0  0  0  0  0  0  0  0
   20.6684   12.4057   30.1201 H   0  0  0  0  0  0  0  0  0  0  0  0
   21.5262   11.1848   29.1759 H   0  0  0  0  0  0  0  0  0  0  0  0
   22.5732   13.0465   29.3246 C   0  0  0  0  0  0  0  0  0  0  0  0
   22.2244   13.2713   28.3095 H   0  0  0  0  0  0  0  0  0  0  0  0
   23.5973   12.6638   29.2503 H   0  0  0  0  0  0  0  0  0  0  0  0
   22.5607   14.3332   30.1507 C   0  0  0  0  0  0  0  0  0  0  0  0
   21.5310   14.6309   30.3729 H   0  0  0  0  0  0  0  0  0  0  0  0
   23.0166   15.1354   29.5668 H   0  0  0  0  0  0  0  0  0  0  0  0
   23.1153   14.2024   31.0907 H   0  0  0  0  0  0  0  0  0  0  0  0
   20.2852   10.4533   32.4928 C   0  0  0  0  0  0  0  0  0  0  0  0
   19.9502   11.7679   32.9222 C   0  0  0  0  0  0  0  0  0  0  0  0
   19.6911   12.8609   33.2238 N   0  0  0  0  0  0  0  0  0  0  0  0
   19.5479    9.3565   32.8685 C   0  0  0  0  0  0  0  0  0  0  0  0
   18.5054    9.4722   33.7235 N   0  0  0  0  0  0  0  0  0  0  0  0
   17.9224    8.6529   33.8895 H   0  0  0  0  0  0  0  0  0  0  0  0
   18.1570   10.4073   33.9189 H   0  0  0  0  0  0  0  0  0  0  0  0
   19.8616    8.1174   32.3984 C   0  0  0  0  0  0  0  0  0  0  0  0
   19.2820    7.2587   32.6905 H   0  0  0  0  0  0  0  0  0  0  0  0
   24.0460    5.1001   30.5682 C   0  0  0  0  0  0  0  0  0  0  0  0
   23.8356    6.1855   29.7419 O   0  0  0  0  0  0  0  0  0  0  0  0
   24.9301    7.1051   29.5921 C   0  0  0  0  0  0  0  0  0  0  0  0
   25.2606    7.4722   30.5712 H   0  0  0  0  0  0  0  0  0  0  0  0
   24.6112    7.9630   28.9910 H   0  0  0  0  0  0  0  0  0  0  0  0
   25.7790    6.6269   29.0885 H   0  0  0  0  0  0  0  0  0  0  0  0
  1  2  1  0
  2  3  2  0
  3  4  1  0
  3  5  1  0
  5  6  1  0
  6  7  1  0
  7  8  1  0
  7  9  1  0
  7 10  1  0
  5 11  2  0
 11 12  1  0
 11 13  1  0
 13 14  1  0
 14 15  1  0
 14 16  1  0
 14 17  1  0
 17 18  2  0
 17 19  1  0
 19 20  1  0
 19 21  1  0
 21 22  2  0
 22 23  1  0
 23 24  1  0
 24 25  1  0
 24 26  1  0
 24 27  1  0
 27 28  1  0
 27 29  1  0
 27 30  1  0
 30 31  1  0
 30 32  1  0
 30 33  1  0
 33 34  1  0
 33 35  1  0
 33 36  1  0
 23 37  2  0
 37 38  1  0
 38 39  3  0
 37 40  1  0
 40 41  1  0
 41 42  1  0
 41 43  1  0
 40 44  2  0
 44 45  1  0
 13 46  2  0
 46 47  1  0
 47 48  1  0
 48 49  1  0
 48 50  1  0
 48 51  1  0
 46  2  1  0
 44 21  1  0
M  END
>  <score>  (37) 
7.1918

$$$$

     RDKit          3D

 48 49  0  0  0  0  0  0  0  0999 V2000
   26.1503    5.4405   30.8457 H   0  0  0  0  0  0  0  0  0  0  0  0
   25.3068    4.8080   31.0987 C   0  0  0  0  0  0  0  0  0  0  0  0
   25.5037    3.7111   31.9419 C   0  0  0  0  0  0  0  0  0  0  0  0
   27.2593    3.3724   32.6312 Br  0  0  0  0  0  0  0  0  0  0  0  0
   24.4282    2.8661   32.2623 C   0  0  0  0  0  0  0  0  0  0  0  0
   24.6612    1.7937   33.0942 O   0  0  0  0  0  0  0  0  0  0  0  0
   23.6693    0.7580   33.1183 C   0  0  0  0  0  0  0  0  0  0  0  0
   24.0290   -0.0810   33.7234 H   0  0  0  0  0  0  0  0  0  0  0  0
   22.7354    1.1253   33.5537 H   0  0  0  0  0  0  0  0  0  0  0  0
   23.4708    0.3923   32.1062 H   0  0  0  0  0  0  0  0  0  0  0  0
   23.1590    3.1523   31.7260 C   0  0  0  0  0  0  0  0  0  0  0  0
   22.3270    2.4994   31.9723 H   0  0  0  0  0  0  0  0  0  0  0  0
   22.9604    4.2567   30.8810 C   0  0  0  0  0  0  0  0  0  0  0  0
   21.5854    4.5453   30.3244 C   0  0  0  0  0  0  0  0  0  0  0  0
   21.6728    4.8261   29.2706 H   0  0  0  0  0  0  0  0  0  0  0  0
   20.9446    3.6668   30.3897 H   0  0  0  0  0  0  0  0  0  0  0  0
   20.9270    5.6843   31.0842 C   0  0  0  0  0  0  0  0  0  0  0  0
   19.8716    5.5159   31.6726 O   0  0  0  0  0  0  0  0  0  0  0  0
   21.4813    6.9224   31.0002 N   0  0  0  0  0  0  0  0  0  0  0  0
   22.3454    7.0459   30.4948 H   0  0  0  0  0  0  0  0  0  0  0  0
   20.9739    8.0449   31.5379 C   0  0  0  0  0  0  0  0  0  0  0  0
   21.6996    9.0704   31.1803 N   0  0  0  0  0  0  0  0  0  0  0  0
   21.3398   10.2675   31.6440 C   0  0  0  0  0  0  0  0  0  0  0  0
   22.0534   11.3813   31.2934 O   0  0  0  0  0  0  0  0  0  0  0  0
   23.2833   11.1916   30.5686 C   0  0  0  0  0  0  0  0  0  0  0  0
   23.0622   10.7071   29.6132 H   0  0  0  0  0  0  0  0  0  0  0  0
   23.9650   10.5422   31.1262 H   0  0  0  0  0  0  0  0  0  0  0  0
   23.9798   12.5315   30.2781 C   0  0  0  0  0  0  0  0  0  0  0  0
   23.2606   13.2026   29.7981 H   0  0  0  0  0  0  0  0  0  0  0  0
   24.7956   12.3447   29.5741 H   0  0  0  0  0  0  0  0  0  0  0  0
   24.5407   13.1904   31.4736 N   0  0  0  0  0  0  0  0  0  0  0  0
   24.9947   14.0668   31.2243 H   0  0  0  0  0  0  0  0  0  0  0  0
   23.8108   13.3607   32.1648 H   0  0  0  0  0  0  0  0  0  0  0  0
   20.2606   10.4451   32.4808 C   0  0  0  0  0  0  0  0  0  0  0  0
   19.9234   11.7520   32.9347 C   0  0  0  0  0  0  0  0  0  0  0  0
   19.6876   12.8453   33.2511 N   0  0  0  0  0  0  0  0  0  0  0  0
   19.5559    9.3447   32.8550 C   0  0  0  0  0  0  0  0  0  0  0  0
   18.5343    9.4513   33.7310 N   0  0  0  0  0  0  0  0  0  0  0  0
   18.1640   10.3833   33.9000 H   0  0  0  0  0  0  0  0  0  0  0  0
   17.9385    8.6408   33.8655 H   0  0  0  0  0  0  0  0  0  0  0  0
   19.8854    8.1204   32.3668 C   0  0  0  0  0  0  0  0  0  0  0  0
   19.3273    7.2490   32.6531 H   0  0  0  0  0  0  0  0  0  0  0  0
   24.0431    5.1032   30.5682 C   0  0  0  0  0  0  0  0  0  0  0  0
   23.8322    6.1938   29.7519 O   0  0  0  0  0  0  0  0  0  0  0  0
   24.9307    7.1036   29.5970 C   0  0  0  0  0  0  0  0  0  0  0  0
   25.7724    6.6145   29.0969 H   0  0  0  0  0  0  0  0  0  0  0  0
   25.2644    7.4655   30.5741 H   0  0  0  0  0  0  0  0  0  0  0  0
   24.6179    7.9618   28.9948 H   0  0  0  0  0  0  0  0  0  0  0  0
  1  2  1  0
  2  3  2  0
  3  4  1  0
  3  5  1  0
  5  6  1  0
  6  7  1  0
  7  8  1  0
  7  9  1  0
  7 10  1  0
  5 11  2  0
 11 12  1  0
 11 13  1  0
 13 14  1  0
 14 15  1  0
 14 16  1  0
 14 17  1  0
 17 18  2  0
 17 19  1  0
 19 20  1  0
 19 21  1  0
 21 22  2  0
 22 23  1  0
 23 24  1  0
 24 25  1  0
 25 26  1  0
 25 27  1  0
 25 28  1  0
 28 29  1  0
 28 30  1  0
 28 31  1  0
 31 32  1  0
 31 33  1  0
 23 34  2  0
 34 35  1  0
 35 36  3  0
 34 37  1  0
 37 38  1  0
 38 39  1  0
 38 40  1  0
 37 41  2  0
 41 42  1  0
 13 43  2  0
 43 44  1  0
 44 45  1  0
 45 46  1  0
 45 47  1  0
 45 48  1  0
 43  2  1  0
 41 21  1  0
M  END
>  <score>  (38) 
7.19343

$$$$

     RDKit          3D

 47 48  0  0  0  0  0  0  0  0999 V2000
   26.1859    5.5311   30.9328 H   0  0  0  0  0  0  0  0  0  0  0  0
   25.3420    4.8857   31.1597 C   0  0  0  0  0  0  0  0  0  0  0  0
   25.5245    3.7530   31.9651 C   0  0  0  0  0  0  0  0  0  0  0  0
   27.2729    3.3909   32.6601 Br  0  0  0  0  0  0  0  0  0  0  0  0
   24.4388    2.9081   32.2510 C   0  0  0  0  0  0  0  0  0  0  0  0
   24.6465    1.7991   33.0411 O   0  0  0  0  0  0  0  0  0  0  0  0
   23.5928    0.8230   33.0577 C   0  0  0  0  0  0  0  0  0  0  0  0
   23.3803    0.4656   32.0453 H   0  0  0  0  0  0  0  0  0  0  0  0
   22.6758    1.2434   33.4812 H   0  0  0  0  0  0  0  0  0  0  0  0
   23.8908   -0.0339   33.6674 H   0  0  0  0  0  0  0  0  0  0  0  0
   23.1784    3.2373   31.7217 C   0  0  0  0  0  0  0  0  0  0  0  0
   22.3424    2.5853   31.9523 H   0  0  0  0  0  0  0  0  0  0  0  0
   22.9878    4.3736   30.9197 C   0  0  0  0  0  0  0  0  0  0  0  0
   21.6065    4.6491   30.3727 C   0  0  0  0  0  0  0  0  0  0  0  0
   20.9654    3.7833   30.5754 H   0  0  0  0  0  0  0  0  0  0  0  0
   21.6657    4.7548   29.2882 H   0  0  0  0  0  0  0  0  0  0  0  0
   20.9688    5.9002   30.9836 C   0  0  0  0  0  0  0  0  0  0  0  0
   19.8640    5.7877   31.4845 O   0  0  0  0  0  0  0  0  0  0  0  0
   21.5777    7.1328   30.9296 N   0  0  0  0  0  0  0  0  0  0  0  0
   22.5023    7.2079   30.5327 H   0  0  0  0  0  0  0  0  0  0  0  0
   21.0849    8.2579   31.5046 C   0  0  0  0  0  0  0  0  0  0  0  0
   21.8708    9.3094   31.3906 N   0  0  0  0  0  0  0  0  0  0  0  0
   21.4499   10.3818   31.9946 C   0  0  0  0  0  0  0  0  0  0  0  0
   22.3215   11.3001   31.7112 N   0  0  0  0  0  0  0  0  0  0  0  0
   23.0551   10.7797   31.2539 H   0  0  0  0  0  0  0  0  0  0  0  0
   21.5929   12.0757   30.4885 S   0  0  0  0  0  0  0  0  0  0  0  0
   20.1372   12.1312   30.6433 O   0  0  0  0  0  0  0  0  0  0  0  0
   22.0849   11.4236   29.2796 O   0  0  0  0  0  0  0  0  0  0  0  0
   22.3316   13.6627   30.7731 C   0  0  0  0  0  0  0  0  0  0  0  0
   21.9466   14.0331   31.7245 H   0  0  0  0  0  0  0  0  0  0  0  0
   22.0784   14.3496   29.9672 H   0  0  0  0  0  0  0  0  0  0  0  0
   23.4104   13.5220   30.8323 H   0  0  0  0  0  0  0  0  0  0  0  0
   20.2784   10.5654   32.6545 C   0  0  0  0  0  0  0  0  0  0  0  0
   19.8554   11.8461   33.1166 C   0  0  0  0  0  0  0  0  0  0  0  0
   19.5009   12.9075   33.4318 N   0  0  0  0  0  0  0  0  0  0  0  0
   19.5083    9.4563   32.7393 C   0  0  0  0  0  0  0  0  0  0  0  0
   18.3408    9.4522   33.3952 N   0  0  0  0  0  0  0  0  0  0  0  0
   18.2095   10.2274   34.0344 H   0  0  0  0  0  0  0  0  0  0  0  0
   18.0121    8.5330   33.6707 H   0  0  0  0  0  0  0  0  0  0  0  0
   19.8923    8.2938   32.1749 C   0  0  0  0  0  0  0  0  0  0  0  0
   19.2514    7.4395   32.2750 H   0  0  0  0  0  0  0  0  0  0  0  0
   24.0809    5.2119   30.6283 C   0  0  0  0  0  0  0  0  0  0  0  0
   23.8691    6.3305   29.8524 O   0  0  0  0  0  0  0  0  0  0  0  0
   25.0155    7.1586   29.6106 C   0  0  0  0  0  0  0  0  0  0  0  0
   24.7350    8.0075   28.9813 H   0  0  0  0  0  0  0  0  0  0  0  0
   25.8005    6.5921   29.0987 H   0  0  0  0  0  0  0  0  0  0  0  0
   25.4171    7.5432   30.5538 H   0  0  0  0  0  0  0  0  0  0  0  0
  1  2  1  0
  2  3  2  0
  3  4  1  0
  3  5  1  0
  5  6  1  0
  6  7  1  0
  7  8  1  0
  7  9  1  0
  7 10  1  0
  5 11  2  0
 11 12  1  0
 11 13  1  0
 13 14  1  0
 14 15  1  0
 14 16  1  0
 14 17  1  0
 17 18  2  0
 17 19  1  0
 19 20  1  0
 19 21  1  0
 21 22  2  0
 22 23  1  0
 23 24  1  0
 24 25  1  0
 24 26  1  0
 26 27  2  0
 26 28  2  0
 26 29  1  0
 29 30  1  0
 29 31  1  0
 29 32  1  0
 23 33  2  0
 33 34  1  0
 34 35  3  0
 33 36  1  0
 36 37  1  0
 37 38  1  0
 37 39  1  0
 36 40  2  0
 40 41  1  0
 13 42  2  0
 42 43  1  0
 43 44  1  0
 44 45  1  0
 44 46  1  0
 44 47  1  0
 42  2  1  0
 40 21  1  0
M  END
>  <score>  (39) 
7.21301

$$$$

     RDKit          3D

 43 44  0  0  0  0  0  0  0  0999 V2000
   24.9114   12.0200   29.5304 H   0  0  0  0  0  0  0  0  0  0  0  0
   24.1737   12.2830   30.1124 O   0  0  0  0  0  0  0  0  0  0  0  0
   23.4051   11.1531   30.4836 N   0  0  0  0  0  0  0  0  0  0  0  0
   22.3256   11.3477   31.2283 C   0  0  0  0  0  0  0  0  0  0  0  0
   22.0846   12.3685   31.5338 H   0  0  0  0  0  0  0  0  0  0  0  0
   21.4179   10.2247   31.6840 C   0  0  0  0  0  0  0  0  0  0  0  0
   21.7184    8.9496   31.3604 N   0  0  0  0  0  0  0  0  0  0  0  0
   20.9606    7.9435   31.7495 C   0  0  0  0  0  0  0  0  0  0  0  0
   21.5534    6.7826   31.3980 N   0  0  0  0  0  0  0  0  0  0  0  0
   22.4455    6.9219   30.9482 H   0  0  0  0  0  0  0  0  0  0  0  0
   20.8925    5.6167   31.1354 C   0  0  0  0  0  0  0  0  0  0  0  0
   19.7020    5.5158   31.3874 O   0  0  0  0  0  0  0  0  0  0  0  0
   21.6135    4.5359   30.3315 C   0  0  0  0  0  0  0  0  0  0  0  0
   21.0200    3.6191   30.3097 H   0  0  0  0  0  0  0  0  0  0  0  0
   21.7191    4.8840   29.3018 H   0  0  0  0  0  0  0  0  0  0  0  0
   22.9920    4.2488   30.8833 C   0  0  0  0  0  0  0  0  0  0  0  0
   23.1756    3.1445   31.7321 C   0  0  0  0  0  0  0  0  0  0  0  0
   22.3381    2.5013   31.9812 H   0  0  0  0  0  0  0  0  0  0  0  0
   24.4377    2.8448   32.2736 C   0  0  0  0  0  0  0  0  0  0  0  0
   24.6632    1.7846   33.1231 O   0  0  0  0  0  0  0  0  0  0  0  0
   23.6901    0.7319   33.1425 C   0  0  0  0  0  0  0  0  0  0  0  0
   23.4974    0.3599   32.1322 H   0  0  0  0  0  0  0  0  0  0  0  0
   24.0734   -0.0965   33.7446 H   0  0  0  0  0  0  0  0  0  0  0  0
   22.7505    1.0723   33.5851 H   0  0  0  0  0  0  0  0  0  0  0  0
   25.5237    3.6740   31.9466 C   0  0  0  0  0  0  0  0  0  0  0  0
   27.2715    3.2968   32.6362 Br  0  0  0  0  0  0  0  0  0  0  0  0
   25.3439    4.7787   31.1002 C   0  0  0  0  0  0  0  0  0  0  0  0
   26.1896    5.4098   30.8445 H   0  0  0  0  0  0  0  0  0  0  0  0
   24.0826    5.0867   30.5667 C   0  0  0  0  0  0  0  0  0  0  0  0
   23.8641    6.1760   29.7485 O   0  0  0  0  0  0  0  0  0  0  0  0
   24.9311    7.1221   29.5848 C   0  0  0  0  0  0  0  0  0  0  0  0
   25.2623    7.5062   30.5531 H   0  0  0  0  0  0  0  0  0  0  0  0
   25.7823    6.6682   29.0706 H   0  0  0  0  0  0  0  0  0  0  0  0
   24.5781    7.9656   28.9847 H   0  0  0  0  0  0  0  0  0  0  0  0
   19.8188    8.0977   32.4725 C   0  0  0  0  0  0  0  0  0  0  0  0
   19.2108    7.2627   32.7873 H   0  0  0  0  0  0  0  0  0  0  0  0
   19.5114    9.3712   32.8457 C   0  0  0  0  0  0  0  0  0  0  0  0
   18.4458    9.4956   33.6614 N   0  0  0  0  0  0  0  0  0  0  0  0
   17.9203    8.6599   33.8966 H   0  0  0  0  0  0  0  0  0  0  0  0
   18.1362   10.4151   33.9550 H   0  0  0  0  0  0  0  0  0  0  0  0
   20.2783   10.4639   32.4706 C   0  0  0  0  0  0  0  0  0  0  0  0
   19.9372   11.7870   32.8912 C   0  0  0  0  0  0  0  0  0  0  0  0
   19.6847   12.8792   33.2092 N   0  0  0  0  0  0  0  0  0  0  0  0
  1  2  1  0
  2  3  1  0
  3  4  2  3
  4  5  1  0
  4  6  1  0
  6  7  2  0
  7  8  1  0
  8  9  1  0
  9 10  1  0
  9 11  1  0
 11 12  2  0
 11 13  1  0
 13 14  1  0
 13 15  1  0
 13 16  1  0
 16 17  2  0
 17 18  1  0
 17 19  1  0
 19 20  1  0
 20 21  1  0
 21 22  1  0
 21 23  1  0
 21 24  1  0
 19 25  2  0
 25 26  1  0
 25 27  1  0
 27 28  1  0
 27 29  2  0
 29 30  1  0
 30 31  1  0
 31 32  1  0
 31 33  1  0
 31 34  1  0
  8 35  2  0
 35 36  1  0
 35 37  1  0
 37 38  1  0
 38 39  1  0
 38 40  1  0
 37 41  2  0
 41 42  1  0
 42 43  3  0
 41  6  1  0
 29 16  1  0
M  END
>  <score>  (40) 
7.21473

$$$$

     RDKit          3D

 51 53  0  0  0  0  0  0  0  0999 V2000
   26.1651    5.4461   30.8660 H   0  0  0  0  0  0  0  0  0  0  0  0
   25.3202    4.8119   31.1117 C   0  0  0  0  0  0  0  0  0  0  0  0
   25.5158    3.7076   31.9464 C   0  0  0  0  0  0  0  0  0  0  0  0
   27.2688    3.3765   32.6474 Br  0  0  0  0  0  0  0  0  0  0  0  0
   24.4383    2.8636   32.2610 C   0  0  0  0  0  0  0  0  0  0  0  0
   24.6688    1.7839   33.0827 O   0  0  0  0  0  0  0  0  0  0  0  0
   23.6608    0.7637   33.1093 C   0  0  0  0  0  0  0  0  0  0  0  0
   24.0066   -0.0786   33.7167 H   0  0  0  0  0  0  0  0  0  0  0  0
   22.7323    1.1457   33.5442 H   0  0  0  0  0  0  0  0  0  0  0  0
   23.4560    0.3969   32.0983 H   0  0  0  0  0  0  0  0  0  0  0  0
   23.1687    3.1617   31.7333 C   0  0  0  0  0  0  0  0  0  0  0  0
   22.3335    2.5129   31.9776 H   0  0  0  0  0  0  0  0  0  0  0  0
   22.9680    4.2742   30.9023 C   0  0  0  0  0  0  0  0  0  0  0  0
   21.5823    4.5646   30.3645 C   0  0  0  0  0  0  0  0  0  0  0  0
   20.9518    3.6752   30.4422 H   0  0  0  0  0  0  0  0  0  0  0  0
   21.6518    4.8342   29.3076 H   0  0  0  0  0  0  0  0  0  0  0  0
   20.9204    5.7148   31.1140 C   0  0  0  0  0  0  0  0  0  0  0  0
   19.7561    5.6273   31.4690 O   0  0  0  0  0  0  0  0  0  0  0  0
   21.6048    6.8813   31.2973 N   0  0  0  0  0  0  0  0  0  0  0  0
   22.5145    6.9851   30.8724 H   0  0  0  0  0  0  0  0  0  0  0  0
   21.0739    8.0171   31.7834 C   0  0  0  0  0  0  0  0  0  0  0  0
   21.8476    9.0293   31.4967 N   0  0  0  0  0  0  0  0  0  0  0  0
   21.4183   10.1996   31.8988 C   0  0  0  0  0  0  0  0  0  0  0  0
   22.2967   11.1487   31.5160 N   0  0  0  0  0  0  0  0  0  0  0  0
   23.0826   10.6585   31.1004 H   0  0  0  0  0  0  0  0  0  0  0  0
   21.7933   12.2407   30.6850 C   0  0  0  0  0  0  0  0  0  0  0  0
   22.3785   13.1520   30.8402 H   0  0  0  0  0  0  0  0  0  0  0  0
   20.7430   12.4703   30.8935 H   0  0  0  0  0  0  0  0  0  0  0  0
   21.9291   11.7751   29.2511 C   0  0  0  0  0  0  0  0  0  0  0  0
   21.4388   10.8206   29.0453 H   0  0  0  0  0  0  0  0  0  0  0  0
   21.9291   12.8278   28.1586 C   0  0  0  0  0  0  0  0  0  0  0  0
   21.9013   13.8803   28.4597 H   0  0  0  0  0  0  0  0  0  0  0  0
   21.3256   12.5980   27.2741 H   0  0  0  0  0  0  0  0  0  0  0  0
   23.2012   12.0104   28.4453 C   0  0  0  0  0  0  0  0  0  0  0  0
   24.0580   12.5226   28.9027 H   0  0  0  0  0  0  0  0  0  0  0  0
   23.4830   11.2012   27.7572 H   0  0  0  0  0  0  0  0  0  0  0  0
   20.2466   10.4436   32.5682 C   0  0  0  0  0  0  0  0  0  0  0  0
   19.8889   11.7703   32.9365 C   0  0  0  0  0  0  0  0  0  0  0  0
   19.6220   12.8701   33.2027 N   0  0  0  0  0  0  0  0  0  0  0  0
   19.4727    9.3535   32.8446 C   0  0  0  0  0  0  0  0  0  0  0  0
   18.2895    9.4608   33.4891 N   0  0  0  0  0  0  0  0  0  0  0  0
   17.9460    8.6054   33.9153 H   0  0  0  0  0  0  0  0  0  0  0  0
   18.1115   10.3383   33.9664 H   0  0  0  0  0  0  0  0  0  0  0  0
   19.8904    8.1101   32.4757 C   0  0  0  0  0  0  0  0  0  0  0  0
   19.3069    7.2367   32.7094 H   0  0  0  0  0  0  0  0  0  0  0  0
   24.0533    5.1160   30.5878 C   0  0  0  0  0  0  0  0  0  0  0  0
   23.8325    6.2137   29.7854 O   0  0  0  0  0  0  0  0  0  0  0  0
   24.9397    7.1070   29.6054 C   0  0  0  0  0  0  0  0  0  0  0  0
   25.2924    7.4802   30.5723 H   0  0  0  0  0  0  0  0  0  0  0  0
   25.7679    6.6009   29.0989 H   0  0  0  0  0  0  0  0  0  0  0  0
   24.6287    7.9602   28.9962 H   0  0  0  0  0  0  0  0  0  0  0  0
  1  2  1  0
  2  3  2  0
  3  4  1  0
  3  5  1  0
  5  6  1  0
  6  7  1  0
  7  8  1  0
  7  9  1  0
  7 10  1  0
  5 11  2  0
 11 12  1  0
 11 13  1  0
 13 14  1  0
 14 15  1  0
 14 16  1  0
 14 17  1  0
 17 18  2  0
 17 19  1  0
 19 20  1  0
 19 21  1  0
 21 22  2  0
 22 23  1  0
 23 24  1  0
 24 25  1  0
 24 26  1  0
 26 27  1  0
 26 28  1  0
 26 29  1  0
 29 30  1  0
 29 31  1  0
 31 32  1  0
 31 33  1  0
 31 34  1  0
 34 35  1  0
 34 36  1  0
 23 37  2  0
 37 38  1  0
 38 39  3  0
 37 40  1  0
 40 41  1  0
 41 42  1  0
 41 43  1  0
 40 44  2  0
 44 45  1  0
 13 46  2  0
 46 47  1  0
 47 48  1  0
 48 49  1  0
 48 50  1  0
 48 51  1  0
 46  2  1  0
 44 21  1  0
 34 29  1  0
M  END
>  <score>  (41) 
7.21747

$$$$

     RDKit          3D

 46 47  0  0  0  0  0  0  0  0999 V2000
   26.1188    5.4979   30.8982 H   0  0  0  0  0  0  0  0  0  0  0  0
   25.2900    4.8355   31.1241 C   0  0  0  0  0  0  0  0  0  0  0  0
   25.4945    3.7285   31.9564 C   0  0  0  0  0  0  0  0  0  0  0  0
   27.2347    3.4350   32.6999 Br  0  0  0  0  0  0  0  0  0  0  0  0
   24.4317    2.8562   32.2415 C   0  0  0  0  0  0  0  0  0  0  0  0
   24.6491    1.7706   33.0587 O   0  0  0  0  0  0  0  0  0  0  0  0
   23.6076    0.7813   33.0870 C   0  0  0  0  0  0  0  0  0  0  0  0
   22.6876    1.1968   33.5122 H   0  0  0  0  0  0  0  0  0  0  0  0
   23.3970    0.4213   32.0740 H   0  0  0  0  0  0  0  0  0  0  0  0
   23.9166   -0.0715   33.6996 H   0  0  0  0  0  0  0  0  0  0  0  0
   23.1699    3.1321   31.6952 C   0  0  0  0  0  0  0  0  0  0  0  0
   22.3481    2.4626   31.9276 H   0  0  0  0  0  0  0  0  0  0  0  0
   22.9530    4.2488   30.8805 C   0  0  0  0  0  0  0  0  0  0  0  0
   21.5439    4.5206   30.3927 C   0  0  0  0  0  0  0  0  0  0  0  0
   20.9037    3.6482   30.5591 H   0  0  0  0  0  0  0  0  0  0  0  0
   21.5584    4.7314   29.3187 H   0  0  0  0  0  0  0  0  0  0  0  0
   20.9493    5.7119   31.1365 C   0  0  0  0  0  0  0  0  0  0  0  0
   19.8588    5.6297   31.6816 O   0  0  0  0  0  0  0  0  0  0  0  0
   21.6307    6.8963   31.1053 N   0  0  0  0  0  0  0  0  0  0  0  0
   22.4318    6.9630   30.4947 H   0  0  0  0  0  0  0  0  0  0  0  0
   21.1532    8.0696   31.5776 C   0  0  0  0  0  0  0  0  0  0  0  0
   21.7647    9.1124   31.0409 N   0  0  0  0  0  0  0  0  0  0  0  0
   21.3381   10.3225   31.3848 C   0  0  0  0  0  0  0  0  0  0  0  0
   21.9132   11.4461   30.6098 C   0  0  0  0  0  0  0  0  0  0  0  0
   21.8441   11.2297   29.5417 H   0  0  0  0  0  0  0  0  0  0  0  0
   21.3795   12.3735   30.8209 H   0  0  0  0  0  0  0  0  0  0  0  0
   23.3548   11.5738   30.9750 C   0  0  0  0  0  0  0  0  0  0  0  0
   23.9585   12.5905   30.6918 O   0  0  0  0  0  0  0  0  0  0  0  0
   24.0377   10.5141   31.4917 N   0  0  0  0  0  0  0  0  0  0  0  0
   25.0482   10.5748   31.4408 H   0  0  0  0  0  0  0  0  0  0  0  0
   23.5734    9.6105   31.4581 H   0  0  0  0  0  0  0  0  0  0  0  0
   20.3607   10.5167   32.3495 C   0  0  0  0  0  0  0  0  0  0  0  0
   20.0134   11.8302   32.7843 C   0  0  0  0  0  0  0  0  0  0  0  0
   19.7660   12.9088   33.1321 N   0  0  0  0  0  0  0  0  0  0  0  0
   19.7470    9.4073   32.8759 C   0  0  0  0  0  0  0  0  0  0  0  0
   18.7190    9.4788   33.7543 N   0  0  0  0  0  0  0  0  0  0  0  0
   18.1382    8.6460   33.8060 H   0  0  0  0  0  0  0  0  0  0  0  0
   18.2532   10.3775   33.8224 H   0  0  0  0  0  0  0  0  0  0  0  0
   20.1322    8.1658   32.4901 C   0  0  0  0  0  0  0  0  0  0  0  0
   19.6551    7.2980   32.9138 H   0  0  0  0  0  0  0  0  0  0  0  0
   24.0256    5.1173   30.5800 C   0  0  0  0  0  0  0  0  0  0  0  0
   23.7983    6.2233   29.7878 O   0  0  0  0  0  0  0  0  0  0  0  0
   24.9186    7.1019   29.5908 C   0  0  0  0  0  0  0  0  0  0  0  0
   24.6188    7.9555   28.9747 H   0  0  0  0  0  0  0  0  0  0  0  0
   25.2843    7.4784   30.5532 H   0  0  0  0  0  0  0  0  0  0  0  0
   25.7390    6.5797   29.0841 H   0  0  0  0  0  0  0  0  0  0  0  0
  1  2  1  0
  2  3  2  0
  3  4  1  0
  3  5  1  0
  5  6  1  0
  6  7  1  0
  7  8  1  0
  7  9  1  0
  7 10  1  0
  5 11  2  0
 11 12  1  0
 11 13  1  0
 13 14  1  0
 14 15  1  0
 14 16  1  0
 14 17  1  0
 17 18  2  0
 17 19  1  0
 19 20  1  0
 19 21  1  0
 21 22  2  0
 22 23  1  0
 23 24  1  0
 24 25  1  0
 24 26  1  0
 24 27  1  0
 27 28  2  0
 27 29  1  0
 29 30  1  0
 29 31  1  0
 23 32  2  0
 32 33  1  0
 33 34  3  0
 32 35  1  0
 35 36  1  0
 36 37  1  0
 36 38  1  0
 35 39  2  0
 39 40  1  0
 13 41  2  0
 41 42  1  0
 42 43  1  0
 43 44  1  0
 43 45  1  0
 43 46  1  0
 41  2  1  0
 39 21  1  0
M  END
>  <score>  (42) 
7.21871

$$$$

     RDKit          3D

 49 50  0  0  0  0  0  0  0  0999 V2000
   21.2122   13.4265   27.9844 H   0  0  0  0  0  0  0  0  0  0  0  0
   20.4637   12.9894   28.4225 O   0  0  0  0  0  0  0  0  0  0  0  0
   20.7991   12.7021   29.7814 C   0  0  0  0  0  0  0  0  0  0  0  0
   20.9545   13.6278   30.3495 H   0  0  0  0  0  0  0  0  0  0  0  0
   19.9859   12.1517   30.2604 H   0  0  0  0  0  0  0  0  0  0  0  0
   22.0676   11.8524   29.8058 C   0  0  0  0  0  0  0  0  0  0  0  0
   22.8930   12.4361   29.3942 H   0  0  0  0  0  0  0  0  0  0  0  0
   21.9435   10.9775   29.1584 H   0  0  0  0  0  0  0  0  0  0  0  0
   22.4106   11.3884   31.2373 C   0  0  0  0  0  0  0  0  0  0  0  0
   22.3803   12.2441   31.9287 H   0  0  0  0  0  0  0  0  0  0  0  0
   23.4314   10.9891   31.2518 H   0  0  0  0  0  0  0  0  0  0  0  0
   21.4688   10.2836   31.6893 C   0  0  0  0  0  0  0  0  0  0  0  0
   21.8222    9.0208   31.4087 N   0  0  0  0  0  0  0  0  0  0  0  0
   21.0352    8.0267   31.7826 C   0  0  0  0  0  0  0  0  0  0  0  0
   21.5626    6.8451   31.3778 N   0  0  0  0  0  0  0  0  0  0  0  0
   22.4683    6.9276   30.9384 H   0  0  0  0  0  0  0  0  0  0  0  0
   20.8762    5.6769   31.1944 C   0  0  0  0  0  0  0  0  0  0  0  0
   19.7077    5.5851   31.5372 O   0  0  0  0  0  0  0  0  0  0  0  0
   21.5514    4.5562   30.4004 C   0  0  0  0  0  0  0  0  0  0  0  0
   20.9458    3.6502   30.4570 H   0  0  0  0  0  0  0  0  0  0  0  0
   21.5996    4.8483   29.3488 H   0  0  0  0  0  0  0  0  0  0  0  0
   22.9490    4.2707   30.9069 C   0  0  0  0  0  0  0  0  0  0  0  0
   23.1563    3.1540   31.7311 C   0  0  0  0  0  0  0  0  0  0  0  0
   22.3271    2.4990   31.9809 H   0  0  0  0  0  0  0  0  0  0  0  0
   24.4256    2.8626   32.2583 C   0  0  0  0  0  0  0  0  0  0  0  0
   24.6584    1.7811   33.0770 O   0  0  0  0  0  0  0  0  0  0  0  0
   23.6453    0.7675   33.1050 C   0  0  0  0  0  0  0  0  0  0  0  0
   23.9860   -0.0755   33.7142 H   0  0  0  0  0  0  0  0  0  0  0  0
   23.4392    0.4035   32.0936 H   0  0  0  0  0  0  0  0  0  0  0  0
   22.7192    1.1579   33.5369 H   0  0  0  0  0  0  0  0  0  0  0  0
   25.4962    3.7170   31.9504 C   0  0  0  0  0  0  0  0  0  0  0  0
   27.2504    3.3834   32.6476 Br  0  0  0  0  0  0  0  0  0  0  0  0
   25.2958    4.8216   31.1157 C   0  0  0  0  0  0  0  0  0  0  0  0
   26.1332    5.4662   30.8731 H   0  0  0  0  0  0  0  0  0  0  0  0
   24.0301    5.1203   30.5900 C   0  0  0  0  0  0  0  0  0  0  0  0
   23.8128    6.2252   29.7949 O   0  0  0  0  0  0  0  0  0  0  0  0
   24.9288    7.1079   29.6035 C   0  0  0  0  0  0  0  0  0  0  0  0
   25.2892    7.4813   30.5668 H   0  0  0  0  0  0  0  0  0  0  0  0
   24.6270    7.9618   28.9899 H   0  0  0  0  0  0  0  0  0  0  0  0
   25.7514    6.5914   29.0990 H   0  0  0  0  0  0  0  0  0  0  0  0
   19.8607    8.2133   32.4730 C   0  0  0  0  0  0  0  0  0  0  0  0
   19.2074    7.4093   32.7828 H   0  0  0  0  0  0  0  0  0  0  0  0
   19.5043    9.5010   32.7488 C   0  0  0  0  0  0  0  0  0  0  0  0
   18.3533    9.6599   33.4372 N   0  0  0  0  0  0  0  0  0  0  0  0
   18.1967    8.9923   34.1877 H   0  0  0  0  0  0  0  0  0  0  0  0
   17.9984   10.6060   33.5514 H   0  0  0  0  0  0  0  0  0  0  0  0
   20.2900   10.5689   32.3730 C   0  0  0  0  0  0  0  0  0  0  0  0
   19.9716   11.9101   32.7500 C   0  0  0  0  0  0  0  0  0  0  0  0
   19.8131   13.0101   33.0985 N   0  0  0  0  0  0  0  0  0  0  0  0
  1  2  1  0
  2  3  1  0
  3  4  1  0
  3  5  1  0
  3  6  1  0
  6  7  1  0
  6  8  1  0
  6  9  1  0
  9 10  1  0
  9 11  1  0
  9 12  1  0
 12 13  2  0
 13 14  1  0
 14 15  1  0
 15 16  1  0
 15 17  1  0
 17 18  2  0
 17 19  1  0
 19 20  1  0
 19 21  1  0
 19 22  1  0
 22 23  2  0
 23 24  1  0
 23 25  1  0
 25 26  1  0
 26 27  1  0
 27 28  1  0
 27 29  1  0
 27 30  1  0
 25 31  2  0
 31 32  1  0
 31 33  1  0
 33 34  1  0
 33 35  2  0
 35 36  1  0
 36 37  1  0
 37 38  1  0
 37 39  1  0
 37 40  1  0
 14 41  2  0
 41 42  1  0
 41 43  1  0
 43 44  1  0
 44 45  1  0
 44 46  1  0
 43 47  2  0
 47 48  1  0
 48 49  3  0
 47 12  1  0
 35 22  1  0
M  END
>  <score>  (43) 
7.2201

$$$$

     RDKit          3D

 60 61  0  0  0  0  0  0  0  0999 V2000
   26.1314    5.5098   30.9067 H   0  0  0  0  0  0  0  0  0  0  0  0
   25.3073    4.8404   31.1254 C   0  0  0  0  0  0  0  0  0  0  0  0
   25.5186    3.7311   31.9504 C   0  0  0  0  0  0  0  0  0  0  0  0
   27.2632    3.4429   32.6822 Br  0  0  0  0  0  0  0  0  0  0  0  0
   24.4572    2.8591   32.2408 C   0  0  0  0  0  0  0  0  0  0  0  0
   24.6737    1.7745   33.0593 O   0  0  0  0  0  0  0  0  0  0  0  0
   23.6291    0.7898   33.0856 C   0  0  0  0  0  0  0  0  0  0  0  0
   23.4172    0.4327   32.0719 H   0  0  0  0  0  0  0  0  0  0  0  0
   23.9361   -0.0634   33.6975 H   0  0  0  0  0  0  0  0  0  0  0  0
   22.7117    1.2102   33.5111 H   0  0  0  0  0  0  0  0  0  0  0  0
   23.1949    3.1313   31.6914 C   0  0  0  0  0  0  0  0  0  0  0  0
   22.3690    2.4672   31.9260 H   0  0  0  0  0  0  0  0  0  0  0  0
   22.9821    4.2373   30.8615 C   0  0  0  0  0  0  0  0  0  0  0  0
   21.5907    4.4837   30.3313 C   0  0  0  0  0  0  0  0  0  0  0  0
   21.6328    4.6897   29.2574 H   0  0  0  0  0  0  0  0  0  0  0  0
   20.9790    3.5885   30.4725 H   0  0  0  0  0  0  0  0  0  0  0  0
   20.9422    5.6571   31.0620 C   0  0  0  0  0  0  0  0  0  0  0  0
   19.7977    5.5542   31.4780 O   0  0  0  0  0  0  0  0  0  0  0  0
   21.6079    6.8429   31.1763 N   0  0  0  0  0  0  0  0  0  0  0  0
   22.5169    6.9513   30.7478 H   0  0  0  0  0  0  0  0  0  0  0  0
   21.0588    7.9827   31.6285 C   0  0  0  0  0  0  0  0  0  0  0  0
   21.8091    9.0143   31.3465 N   0  0  0  0  0  0  0  0  0  0  0  0
   21.4145   10.2216   31.7637 C   0  0  0  0  0  0  0  0  0  0  0  0
   22.1727   11.3211   31.4450 O   0  0  0  0  0  0  0  0  0  0  0  0
   23.1350   11.1103   30.3852 C   0  0  0  0  0  0  0  0  0  0  0  0
   23.9059   11.8843   30.3907 H   0  0  0  0  0  0  0  0  0  0  0  0
   23.6441   10.1526   30.5310 H   0  0  0  0  0  0  0  0  0  0  0  0
   22.4699   11.0943   29.0080 C   0  0  0  0  0  0  0  0  0  0  0  0
   22.2212   12.1145   28.7000 H   0  0  0  0  0  0  0  0  0  0  0  0
   21.5360   10.5360   29.0818 H   0  0  0  0  0  0  0  0  0  0  0  0
   23.3668   10.4476   28.0258 N   0  0  0  0  0  0  0  0  0  0  0  0
   22.7051    9.6686   26.9565 C   0  0  0  0  0  0  0  0  0  0  0  0
   21.9805   10.2828   26.4157 H   0  0  0  0  0  0  0  0  0  0  0  0
   23.4391    9.2852   26.2353 H   0  0  0  0  0  0  0  0  0  0  0  0
   21.9468    8.5159   27.5977 C   0  0  0  0  0  0  0  0  0  0  0  0
   22.6350    7.8654   28.1484 H   0  0  0  0  0  0  0  0  0  0  0  0
   21.1931    8.8913   28.2977 H   0  0  0  0  0  0  0  0  0  0  0  0
   21.4442    7.9429   26.8144 H   0  0  0  0  0  0  0  0  0  0  0  0
   24.6161   11.1768   27.7351 C   0  0  0  0  0  0  0  0  0  0  0  0
   24.9600   11.7003   28.6346 H   0  0  0  0  0  0  0  0  0  0  0  0
   24.4697   11.9323   26.9604 H   0  0  0  0  0  0  0  0  0  0  0  0
   25.6823   10.1914   27.2939 C   0  0  0  0  0  0  0  0  0  0  0  0
   26.5814   10.7251   26.9740 H   0  0  0  0  0  0  0  0  0  0  0  0
   25.9350    9.5274   28.1254 H   0  0  0  0  0  0  0  0  0  0  0  0
   25.3151    9.5874   26.4616 H   0  0  0  0  0  0  0  0  0  0  0  0
   20.2576   10.3943   32.4930 C   0  0  0  0  0  0  0  0  0  0  0  0
   19.8307   11.6789   32.9333 C   0  0  0  0  0  0  0  0  0  0  0  0
   19.4486   12.7230   33.2729 N   0  0  0  0  0  0  0  0  0  0  0  0
   19.5082    9.2841   32.7481 C   0  0  0  0  0  0  0  0  0  0  0  0
   18.3654    9.3402   33.4544 N   0  0  0  0  0  0  0  0  0  0  0  0
   18.0292    8.4426   33.7947 H   0  0  0  0  0  0  0  0  0  0  0  0
   18.2856   10.1443   34.0673 H   0  0  0  0  0  0  0  0  0  0  0  0
   19.8971    8.0592   32.3316 C   0  0  0  0  0  0  0  0  0  0  0  0
   19.3269    7.1873   32.5942 H   0  0  0  0  0  0  0  0  0  0  0  0
   24.0453    5.1160   30.5775 C   0  0  0  0  0  0  0  0  0  0  0  0
   23.8148    6.2273   29.7960 O   0  0  0  0  0  0  0  0  0  0  0  0
   24.9338    7.1062   29.6089 C   0  0  0  0  0  0  0  0  0  0  0  0
   25.7455    6.5845   29.0910 H   0  0  0  0  0  0  0  0  0  0  0  0
   24.6367    7.9725   29.0105 H   0  0  0  0  0  0  0  0  0  0  0  0
   25.3054    7.4607   30.5763 H   0  0  0  0  0  0  0  0  0  0  0  0
  1  2  1  0
  2  3  2  0
  3  4  1  0
  3  5  1  0
  5  6  1  0
  6  7  1  0
  7  8  1  0
  7  9  1  0
  7 10  1  0
  5 11  2  0
 11 12  1  0
 11 13  1  0
 13 14  1  0
 14 15  1  0
 14 16  1  0
 14 17  1  0
 17 18  2  0
 17 19  1  0
 19 20  1  0
 19 21  1  0
 21 22  2  0
 22 23  1  0
 23 24  1  0
 24 25  1  0
 25 26  1  0
 25 27  1  0
 25 28  1  0
 28 29  1  0
 28 30  1  0
 28 31  1  0
 31 32  1  0
 32 33  1  0
 32 34  1  0
 32 35  1  0
 35 36  1  0
 35 37  1  0
 35 38  1  0
 31 39  1  0
 39 40  1  0
 39 41  1  0
 39 42  1  0
 42 43  1  0
 42 44  1  0
 42 45  1  0
 23 46  2  0
 46 47  1  0
 47 48  3  0
 46 49  1  0
 49 50  1  0
 50 51  1  0
 50 52  1  0
 49 53  2  0
 53 54  1  0
 13 55  2  0
 55 56  1  0
 56 57  1  0
 57 58  1  0
 57 59  1  0
 57 60  1  0
 55  2  1  0
 53 21  1  0
M  END
>  <score>  (44) 
7.22391

$$$$

     RDKit          3D

 45 46  0  0  0  0  0  0  0  0999 V2000
   25.8578    9.4670   31.6128 H   0  0  0  0  0  0  0  0  0  0  0  0
   25.0274    9.9991   31.1977 C   0  0  0  0  0  0  0  0  0  0  0  0
   24.0789   10.5933   30.7303 C   0  0  0  0  0  0  0  0  0  0  0  0
   22.8960   11.2934   30.2100 C   0  0  0  0  0  0  0  0  0  0  0  0
   23.1850   12.2798   29.8317 H   0  0  0  0  0  0  0  0  0  0  0  0
   22.4871   10.7282   29.3651 H   0  0  0  0  0  0  0  0  0  0  0  0
   21.9241   11.4606   31.2555 O   0  0  0  0  0  0  0  0  0  0  0  0
   21.2822   10.3241   31.6789 C   0  0  0  0  0  0  0  0  0  0  0  0
   21.7304    9.1319   31.2835 N   0  0  0  0  0  0  0  0  0  0  0  0
   21.0733    8.0737   31.6850 C   0  0  0  0  0  0  0  0  0  0  0  0
   21.6397    6.9432   31.2285 N   0  0  0  0  0  0  0  0  0  0  0  0
   22.5103    7.0586   30.7322 H   0  0  0  0  0  0  0  0  0  0  0  0
   20.9548    5.7711   31.1124 C   0  0  0  0  0  0  0  0  0  0  0  0
   19.7972    5.7086   31.4954 O   0  0  0  0  0  0  0  0  0  0  0  0
   21.5676    4.5834   30.3918 C   0  0  0  0  0  0  0  0  0  0  0  0
   21.6135    4.8190   29.3280 H   0  0  0  0  0  0  0  0  0  0  0  0
   20.9130    3.7162   30.5135 H   0  0  0  0  0  0  0  0  0  0  0  0
   22.9592    4.2846   30.9081 C   0  0  0  0  0  0  0  0  0  0  0  0
   23.1665    3.1697   31.7331 C   0  0  0  0  0  0  0  0  0  0  0  0
   22.3368    2.5162   31.9791 H   0  0  0  0  0  0  0  0  0  0  0  0
   24.4377    2.8702   32.2567 C   0  0  0  0  0  0  0  0  0  0  0  0
   24.6691    1.7839   33.0681 O   0  0  0  0  0  0  0  0  0  0  0  0
   23.6461    0.7816   33.0925 C   0  0  0  0  0  0  0  0  0  0  0  0
   23.4413    0.4202   32.0790 H   0  0  0  0  0  0  0  0  0  0  0  0
   22.7256    1.1841   33.5260 H   0  0  0  0  0  0  0  0  0  0  0  0
   23.9729   -0.0658   33.7020 H   0  0  0  0  0  0  0  0  0  0  0  0
   25.5114    3.7182   31.9461 C   0  0  0  0  0  0  0  0  0  0  0  0
   27.2669    3.4199   32.6493 Br  0  0  0  0  0  0  0  0  0  0  0  0
   25.3099    4.8201   31.1125 C   0  0  0  0  0  0  0  0  0  0  0  0
   26.1466    5.4642   30.8660 H   0  0  0  0  0  0  0  0  0  0  0  0
   24.0430    5.1239   30.5902 C   0  0  0  0  0  0  0  0  0  0  0  0
   23.8226    6.2256   29.7929 O   0  0  0  0  0  0  0  0  0  0  0  0
   24.9403    7.1029   29.6208 C   0  0  0  0  0  0  0  0  0  0  0  0
   25.7567    6.5818   29.1099 H   0  0  0  0  0  0  0  0  0  0  0  0
   25.2953    7.4595   30.5935 H   0  0  0  0  0  0  0  0  0  0  0  0
   24.6458    7.9663   29.0199 H   0  0  0  0  0  0  0  0  0  0  0  0
   19.9557    8.1061   32.4779 C   0  0  0  0  0  0  0  0  0  0  0  0
   19.4758    7.1941   32.7988 H   0  0  0  0  0  0  0  0  0  0  0  0
   19.5157    9.3266   32.8808 C   0  0  0  0  0  0  0  0  0  0  0  0
   18.4346    9.3908   33.6924 N   0  0  0  0  0  0  0  0  0  0  0  0
   17.8819    8.5551   33.8795 H   0  0  0  0  0  0  0  0  0  0  0  0
   18.0540   10.3091   33.9007 H   0  0  0  0  0  0  0  0  0  0  0  0
   20.1806   10.4641   32.5014 C   0  0  0  0  0  0  0  0  0  0  0  0
   19.7881   11.7590   32.9565 C   0  0  0  0  0  0  0  0  0  0  0  0
   19.5129   12.8262   33.3257 N   0  0  0  0  0  0  0  0  0  0  0  0
  1  2  1  0
  2  3  3  0
  3  4  1  0
  4  5  1  0
  4  6  1  0
  4  7  1  0
  7  8  1  0
  8  9  2  0
  9 10  1  0
 10 11  1  0
 11 12  1  0
 11 13  1  0
 13 14  2  0
 13 15  1  0
 15 16  1  0
 15 17  1  0
 15 18  1  0
 18 19  2  0
 19 20  1  0
 19 21  1  0
 21 22  1  0
 22 23  1  0
 23 24  1  0
 23 25  1  0
 23 26  1  0
 21 27  2  0
 27 28  1  0
 27 29  1  0
 29 30  1  0
 29 31  2  0
 31 32  1  0
 32 33  1  0
 33 34  1  0
 33 35  1  0
 33 36  1  0
 10 37  2  0
 37 38  1  0
 37 39  1  0
 39 40  1  0
 40 41  1  0
 40 42  1  0
 39 43  2  0
 43 44  1  0
 44 45  3  0
 43  8  1  0
 31 18  1  0
M  END
>  <score>  (45) 
7.22396

$$$$

     RDKit          3D

 45 46  0  0  0  0  0  0  0  0999 V2000
   26.1747    5.4297   30.8523 H   0  0  0  0  0  0  0  0  0  0  0  0
   25.3324    4.7942   31.1048 C   0  0  0  0  0  0  0  0  0  0  0  0
   25.5217    3.6925   31.9479 C   0  0  0  0  0  0  0  0  0  0  0  0
   27.2753    3.3449   32.6387 Br  0  0  0  0  0  0  0  0  0  0  0  0
   24.4419    2.8523   32.2698 C   0  0  0  0  0  0  0  0  0  0  0  0
   24.6699    1.7841   33.1082 O   0  0  0  0  0  0  0  0  0  0  0  0
   23.6790    0.7467   33.1280 C   0  0  0  0  0  0  0  0  0  0  0  0
   24.0410   -0.0919   33.7314 H   0  0  0  0  0  0  0  0  0  0  0  0
   23.4811    0.3806   32.1156 H   0  0  0  0  0  0  0  0  0  0  0  0
   22.7430    1.1080   33.5645 H   0  0  0  0  0  0  0  0  0  0  0  0
   23.1761    3.1441   31.7308 C   0  0  0  0  0  0  0  0  0  0  0  0
   22.3407    2.4981   31.9827 H   0  0  0  0  0  0  0  0  0  0  0  0
   22.9858    4.2503   30.8868 C   0  0  0  0  0  0  0  0  0  0  0  0
   21.6089    4.5556   30.3434 C   0  0  0  0  0  0  0  0  0  0  0  0
   21.6922    4.8628   29.2982 H   0  0  0  0  0  0  0  0  0  0  0  0
   20.9712    3.6714   30.3895 H   0  0  0  0  0  0  0  0  0  0  0  0
   20.9589    5.6929   31.1119 C   0  0  0  0  0  0  0  0  0  0  0  0
   19.7773    5.6376   31.4165 O   0  0  0  0  0  0  0  0  0  0  0  0
   21.6664    6.8480   31.2844 N   0  0  0  0  0  0  0  0  0  0  0  0
   22.5486    6.9426   30.8041 H   0  0  0  0  0  0  0  0  0  0  0  0
   21.1191    8.0062   31.6947 C   0  0  0  0  0  0  0  0  0  0  0  0
   21.8537    9.0443   31.3765 N   0  0  0  0  0  0  0  0  0  0  0  0
   21.4191   10.2440   31.7594 C   0  0  0  0  0  0  0  0  0  0  0  0
   22.1304   11.3586   31.4622 O   0  0  0  0  0  0  0  0  0  0  0  0
   23.1197   11.1979   30.5798 C   0  0  0  0  0  0  0  0  0  0  0  0
   23.4104   10.1647   29.9945 O   0  0  0  0  0  0  0  0  0  0  0  0
   23.9370   12.4313   30.2799 C   0  0  0  0  0  0  0  0  0  0  0  0
   23.8975   13.1254   31.1221 H   0  0  0  0  0  0  0  0  0  0  0  0
   23.5428   12.9295   29.3931 H   0  0  0  0  0  0  0  0  0  0  0  0
   24.9711   12.1370   30.1090 H   0  0  0  0  0  0  0  0  0  0  0  0
   20.2570   10.4301   32.4740 C   0  0  0  0  0  0  0  0  0  0  0  0
   19.8663   11.7343   32.9012 C   0  0  0  0  0  0  0  0  0  0  0  0
   19.6381   12.8157   33.2623 N   0  0  0  0  0  0  0  0  0  0  0  0
   19.5224    9.3218   32.7574 C   0  0  0  0  0  0  0  0  0  0  0  0
   18.3834    9.3759   33.4699 N   0  0  0  0  0  0  0  0  0  0  0  0
   18.5451    9.3976   34.4711 H   0  0  0  0  0  0  0  0  0  0  0  0
   17.7156    8.6728   33.1809 H   0  0  0  0  0  0  0  0  0  0  0  0
   19.9386    8.0931   32.3745 C   0  0  0  0  0  0  0  0  0  0  0  0
   19.3588    7.2228   32.6302 H   0  0  0  0  0  0  0  0  0  0  0  0
   24.0696    5.0937   30.5732 C   0  0  0  0  0  0  0  0  0  0  0  0
   23.8437    6.1879   29.7654 O   0  0  0  0  0  0  0  0  0  0  0  0
   24.9290    7.1111   29.5963 C   0  0  0  0  0  0  0  0  0  0  0  0
   25.7833    6.6250   29.1144 H   0  0  0  0  0  0  0  0  0  0  0  0
   24.6061    7.9468   28.9678 H   0  0  0  0  0  0  0  0  0  0  0  0
   25.2488    7.5100   30.5639 H   0  0  0  0  0  0  0  0  0  0  0  0
  1  2  1  0
  2  3  2  0
  3  4  1  0
  3  5  1  0
  5  6  1  0
  6  7  1  0
  7  8  1  0
  7  9  1  0
  7 10  1  0
  5 11  2  0
 11 12  1  0
 11 13  1  0
 13 14  1  0
 14 15  1  0
 14 16  1  0
 14 17  1  0
 17 18  2  0
 17 19  1  0
 19 20  1  0
 19 21  1  0
 21 22  2  0
 22 23  1  0
 23 24  1  0
 24 25  1  0
 25 26  2  0
 25 27  1  0
 27 28  1  0
 27 29  1  0
 27 30  1  0
 23 31  2  0
 31 32  1  0
 32 33  3  0
 31 34  1  0
 34 35  1  0
 35 36  1  0
 35 37  1  0
 34 38  2  0
 38 39  1  0
 13 40  2  0
 40 41  1  0
 41 42  1  0
 42 43  1  0
 42 44  1  0
 42 45  1  0
 40  2  1  0
 38 21  1  0
M  END
>  <score>  (46) 
7.22912

$$$$

     RDKit          3D

 43 44  0  0  0  0  0  0  0  0999 V2000
   26.1892    5.4102   30.8436 H   0  0  0  0  0  0  0  0  0  0  0  0
   25.3441    4.7789   31.0999 C   0  0  0  0  0  0  0  0  0  0  0  0
   25.5225    3.6742   31.9457 C   0  0  0  0  0  0  0  0  0  0  0  0
   27.2698    3.2990   32.6353 Br  0  0  0  0  0  0  0  0  0  0  0  0
   24.4367    2.8450   32.2723 C   0  0  0  0  0  0  0  0  0  0  0  0
   24.6615    1.7839   33.1212 O   0  0  0  0  0  0  0  0  0  0  0  0
   23.6890    0.7323   33.1413 C   0  0  0  0  0  0  0  0  0  0  0  0
   22.7504    1.0742   33.5856 H   0  0  0  0  0  0  0  0  0  0  0  0
   23.4977    0.3603   32.1304 H   0  0  0  0  0  0  0  0  0  0  0  0
   24.0725   -0.0955   33.7442 H   0  0  0  0  0  0  0  0  0  0  0  0
   23.1749    3.1483   31.7327 C   0  0  0  0  0  0  0  0  0  0  0  0
   22.3385    2.5038   31.9805 H   0  0  0  0  0  0  0  0  0  0  0  0
   22.9917    4.2558   30.8873 C   0  0  0  0  0  0  0  0  0  0  0  0
   21.6158    4.5561   30.3381 C   0  0  0  0  0  0  0  0  0  0  0  0
   21.7190    4.8901   29.3039 H   0  0  0  0  0  0  0  0  0  0  0  0
   21.0058    3.6481   30.3312 H   0  0  0  0  0  0  0  0  0  0  0  0
   20.9197    5.6639   31.1281 C   0  0  0  0  0  0  0  0  0  0  0  0
   19.7324    5.5815   31.3923 O   0  0  0  0  0  0  0  0  0  0  0  0
   21.5883    6.8319   31.3591 N   0  0  0  0  0  0  0  0  0  0  0  0
   22.4923    6.9524   30.9288 H   0  0  0  0  0  0  0  0  0  0  0  0
   21.0150    7.9938   31.7116 C   0  0  0  0  0  0  0  0  0  0  0  0
   21.7672    9.0050   31.3339 N   0  0  0  0  0  0  0  0  0  0  0  0
   21.3933   10.2351   31.7026 C   0  0  0  0  0  0  0  0  0  0  0  0
   22.1385   11.3340   31.3626 O   0  0  0  0  0  0  0  0  0  0  0  0
   23.2951   11.1506   30.5411 C   0  0  0  0  0  0  0  0  0  0  0  0
   24.0285   10.5055   31.0367 H   0  0  0  0  0  0  0  0  0  0  0  0
   23.0220   10.7143   29.5743 H   0  0  0  0  0  0  0  0  0  0  0  0
   23.7536   12.1316   30.3646 H   0  0  0  0  0  0  0  0  0  0  0  0
   20.2743   10.4654   32.4714 C   0  0  0  0  0  0  0  0  0  0  0  0
   19.9420   11.7918   32.8898 C   0  0  0  0  0  0  0  0  0  0  0  0
   19.7095   12.8901   33.1949 N   0  0  0  0  0  0  0  0  0  0  0  0
   19.5342    9.3740   32.8261 C   0  0  0  0  0  0  0  0  0  0  0  0
   18.4764    9.4917   33.6434 N   0  0  0  0  0  0  0  0  0  0  0  0
   17.9402    8.6639   33.8818 H   0  0  0  0  0  0  0  0  0  0  0  0
   18.1707   10.4142   33.9303 H   0  0  0  0  0  0  0  0  0  0  0  0
   19.8665    8.1176   32.4370 C   0  0  0  0  0  0  0  0  0  0  0  0
   19.2671    7.2727   32.7444 H   0  0  0  0  0  0  0  0  0  0  0  0
   24.0835    5.0902   30.5693 C   0  0  0  0  0  0  0  0  0  0  0  0
   23.8657    6.1795   29.7514 O   0  0  0  0  0  0  0  0  0  0  0  0
   24.9331    7.1221   29.5851 C   0  0  0  0  0  0  0  0  0  0  0  0
   24.5806    7.9653   28.9844 H   0  0  0  0  0  0  0  0  0  0  0  0
   25.2631    7.5055   30.5542 H   0  0  0  0  0  0  0  0  0  0  0  0
   25.7817    6.6645   29.0695 H   0  0  0  0  0  0  0  0  0  0  0  0
  1  2  1  0
  2  3  2  0
  3  4  1  0
  3  5  1  0
  5  6  1  0
  6  7  1  0
  7  8  1  0
  7  9  1  0
  7 10  1  0
  5 11  2  0
 11 12  1  0
 11 13  1  0
 13 14  1  0
 14 15  1  0
 14 16  1  0
 14 17  1  0
 17 18  2  0
 17 19  1  0
 19 20  1  0
 19 21  1  0
 21 22  2  0
 22 23  1  0
 23 24  1  0
 24 25  1  0
 25 26  1  0
 25 27  1  0
 25 28  1  0
 23 29  2  0
 29 30  1  0
 30 31  3  0
 29 32  1  0
 32 33  1  0
 33 34  1  0
 33 35  1  0
 32 36  2  0
 36 37  1  0
 13 38  2  0
 38 39  1  0
 39 40  1  0
 40 41  1  0
 40 42  1  0
 40 43  1  0
 38  2  1  0
 36 21  1  0
M  END
>  <score>  (47) 
7.23081

$$$$

     RDKit          3D

 57 59  0  0  0  0  0  0  0  0999 V2000
   27.0189   12.0398   27.5467 H   0  0  0  0  0  0  0  0  0  0  0  0
   26.1462   12.4112   28.0835 C   0  0  0  0  0  0  0  0  0  0  0  0
   24.9164   12.5181   27.4244 C   0  0  0  0  0  0  0  0  0  0  0  0
   24.8319   12.2339   26.3808 H   0  0  0  0  0  0  0  0  0  0  0  0
   23.7861   12.9770   28.1177 C   0  0  0  0  0  0  0  0  0  0  0  0
   22.8178   13.0768   27.6356 H   0  0  0  0  0  0  0  0  0  0  0  0
   23.8608   13.2985   29.4753 C   0  0  0  0  0  0  0  0  0  0  0  0
   22.6001   13.6694   30.2151 C   0  0  0  0  0  0  0  0  0  0  0  0
   22.8491   14.0719   31.2036 H   0  0  0  0  0  0  0  0  0  0  0  0
   22.0621   14.4525   29.6703 H   0  0  0  0  0  0  0  0  0  0  0  0
   21.7416   12.4701   30.3368 N   0  0  0  0  0  0  0  0  0  0  0  0
   21.5540   12.0807   29.4071 H   0  0  0  0  0  0  0  0  0  0  0  0
   22.2395   11.4270   31.2818 C   0  0  0  0  0  0  0  0  0  0  0  0
   23.1924   11.0270   30.9186 H   0  0  0  0  0  0  0  0  0  0  0  0
   22.4292   11.9533   32.2161 H   0  0  0  0  0  0  0  0  0  0  0  0
   21.3333   10.2372   31.6379 C   0  0  0  0  0  0  0  0  0  0  0  0
   21.7050    9.0001   31.2444 N   0  0  0  0  0  0  0  0  0  0  0  0
   20.9797    7.9550   31.6091 C   0  0  0  0  0  0  0  0  0  0  0  0
   21.4967    6.7986   31.1251 N   0  0  0  0  0  0  0  0  0  0  0  0
   22.3587    6.8951   30.6116 H   0  0  0  0  0  0  0  0  0  0  0  0
   20.8946    5.5720   31.1560 C   0  0  0  0  0  0  0  0  0  0  0  0
   19.8144    5.4351   31.7020 O   0  0  0  0  0  0  0  0  0  0  0  0
   21.5367    4.4408   30.3618 C   0  0  0  0  0  0  0  0  0  0  0  0
   21.5444    4.7249   29.3072 H   0  0  0  0  0  0  0  0  0  0  0  0
   20.9488    3.5220   30.4599 H   0  0  0  0  0  0  0  0  0  0  0  0
   22.9437    4.2092   30.8559 C   0  0  0  0  0  0  0  0  0  0  0  0
   23.1720    3.1137   31.6918 C   0  0  0  0  0  0  0  0  0  0  0  0
   22.3515    2.4452   31.9325 H   0  0  0  0  0  0  0  0  0  0  0  0
   24.4377    2.8585   32.2412 C   0  0  0  0  0  0  0  0  0  0  0  0
   24.6634    1.7831   33.0671 O   0  0  0  0  0  0  0  0  0  0  0  0
   23.6262    0.7912   33.0862 C   0  0  0  0  0  0  0  0  0  0  0  0
   23.9367   -0.0620   33.6952 H   0  0  0  0  0  0  0  0  0  0  0  0
   23.4183    0.4370   32.0707 H   0  0  0  0  0  0  0  0  0  0  0  0
   22.7048    1.2059   33.5080 H   0  0  0  0  0  0  0  0  0  0  0  0
   25.4909    3.7377   31.9460 C   0  0  0  0  0  0  0  0  0  0  0  0
   27.2406    3.4869   32.6847 Br  0  0  0  0  0  0  0  0  0  0  0  0
   25.2658    4.8334   31.1104 C   0  0  0  0  0  0  0  0  0  0  0  0
   26.0823    5.5124   30.8915 H   0  0  0  0  0  0  0  0  0  0  0  0
   24.0013    5.0936   30.5594 C   0  0  0  0  0  0  0  0  0  0  0  0
   23.7761    6.2044   29.7754 O   0  0  0  0  0  0  0  0  0  0  0  0
   24.9083    7.0744   29.6099 C   0  0  0  0  0  0  0  0  0  0  0  0
   25.7266    6.5389   29.1168 H   0  0  0  0  0  0  0  0  0  0  0  0
   25.2615    7.4304   30.5843 H   0  0  0  0  0  0  0  0  0  0  0  0
   24.6423    7.9418   29.0001 H   0  0  0  0  0  0  0  0  0  0  0  0
   19.8569    8.0549   32.3987 C   0  0  0  0  0  0  0  0  0  0  0  0
   19.3024    7.1723   32.6754 H   0  0  0  0  0  0  0  0  0  0  0  0
   19.4860    9.3002   32.8586 C   0  0  0  0  0  0  0  0  0  0  0  0
   18.4255    9.3919   33.7256 N   0  0  0  0  0  0  0  0  0  0  0  0
   17.8410    8.5708   33.8812 H   0  0  0  0  0  0  0  0  0  0  0  0
   18.0765   10.3170   33.9724 H   0  0  0  0  0  0  0  0  0  0  0  0
   20.2231   10.4166   32.4742 C   0  0  0  0  0  0  0  0  0  0  0  0
   19.9006   11.7175   32.9731 C   0  0  0  0  0  0  0  0  0  0  0  0
   19.6825   12.7865   33.3797 N   0  0  0  0  0  0  0  0  0  0  0  0
   25.1021   13.2203   30.1294 C   0  0  0  0  0  0  0  0  0  0  0  0
   25.1810   13.4825   31.1813 H   0  0  0  0  0  0  0  0  0  0  0  0
   26.2390   12.7798   29.4312 C   0  0  0  0  0  0  0  0  0  0  0  0
   27.1996   12.7005   29.9299 H   0  0  0  0  0  0  0  0  0  0  0  0
  1  2  1  0
  2  3  2  0
  3  4  1  0
  3  5  1  0
  5  6  1  0
  5  7  2  0
  7  8  1  0
  8  9  1  0
  8 10  1  0
  8 11  1  0
 11 12  1  0
 11 13  1  0
 13 14  1  0
 13 15  1  0
 13 16  1  0
 16 17  2  0
 17 18  1  0
 18 19  1  0
 19 20  1  0
 19 21  1  0
 21 22  2  0
 21 23  1  0
 23 24  1  0
 23 25  1  0
 23 26  1  0
 26 27  2  0
 27 28  1  0
 27 29  1  0
 29 30  1  0
 30 31  1  0
 31 32  1  0
 31 33  1  0
 31 34  1  0
 29 35  2  0
 35 36  1  0
 35 37  1  0
 37 38  1  0
 37 39  2  0
 39 40  1  0
 40 41  1  0
 41 42  1  0
 41 43  1  0
 41 44  1  0
 18 45  2  0
 45 46  1  0
 45 47  1  0
 47 48  1  0
 48 49  1  0
 48 50  1  0
 47 51  2  0
 51 52  1  0
 52 53  3  0
  7 54  1  0
 54 55  1  0
 54 56  2  0
 56 57  1  0
 56  2  1  0
 51 16  1  0
 39 26  1  0
M  END
>  <score>  (48) 
7.23427

$$$$

     RDKit          3D

 47 49  0  0  0  0  0  0  0  0999 V2000
   26.0609    5.5068   30.8960 H   0  0  0  0  0  0  0  0  0  0  0  0
   25.2445    4.8287   31.1237 C   0  0  0  0  0  0  0  0  0  0  0  0
   25.4830    3.7353   31.9568 C   0  0  0  0  0  0  0  0  0  0  0  0
   27.2410    3.4803   32.6761 Br  0  0  0  0  0  0  0  0  0  0  0  0
   24.4390    2.8479   32.2521 C   0  0  0  0  0  0  0  0  0  0  0  0
   24.6803    1.7659   33.0640 O   0  0  0  0  0  0  0  0  0  0  0  0
   23.6371    0.7814   33.0910 C   0  0  0  0  0  0  0  0  0  0  0  0
   23.9427   -0.0709   33.7027 H   0  0  0  0  0  0  0  0  0  0  0  0
   22.7220    1.2081   33.5148 H   0  0  0  0  0  0  0  0  0  0  0  0
   23.4213    0.4256   32.0770 H   0  0  0  0  0  0  0  0  0  0  0  0
   23.1694    3.0888   31.7026 C   0  0  0  0  0  0  0  0  0  0  0  0
   22.3604    2.4105   31.9510 H   0  0  0  0  0  0  0  0  0  0  0  0
   22.9236    4.1687   30.8531 C   0  0  0  0  0  0  0  0  0  0  0  0
   21.5065    4.3351   30.3290 C   0  0  0  0  0  0  0  0  0  0  0  0
   21.5351    4.7155   29.3044 H   0  0  0  0  0  0  0  0  0  0  0  0
   20.9930    3.3707   30.3109 H   0  0  0  0  0  0  0  0  0  0  0  0
   20.7370    5.3087   31.2121 C   0  0  0  0  0  0  0  0  0  0  0  0
   19.5438    5.1765   31.4590 O   0  0  0  0  0  0  0  0  0  0  0  0
   21.4129    6.4290   31.5739 N   0  0  0  0  0  0  0  0  0  0  0  0
   22.2770    6.5921   31.0677 H   0  0  0  0  0  0  0  0  0  0  0  0
   20.8087    7.5815   31.8607 C   0  0  0  0  0  0  0  0  0  0  0  0
   21.5260    8.5317   31.3228 N   0  0  0  0  0  0  0  0  0  0  0  0
   21.2524    9.8201   31.5845 C   0  0  0  0  0  0  0  0  0  0  0  0
   22.1835   10.8598   31.0117 C   0  0  0  0  0  0  0  0  0  0  0  0
   23.0769   10.6139   30.0739 N   0  0  0  0  0  0  0  0  0  0  0  0
   23.7811   11.8212   29.8861 O   0  0  0  0  0  0  0  0  0  0  0  0
   23.2383   12.6775   30.7873 C   0  0  0  0  0  0  0  0  0  0  0  0
   23.7294   14.0265   31.1239 C   0  0  0  0  0  0  0  0  0  0  0  0
   22.8826   14.7068   31.2250 H   0  0  0  0  0  0  0  0  0  0  0  0
   24.2511   13.9801   32.0824 H   0  0  0  0  0  0  0  0  0  0  0  0
   24.4125   14.3962   30.3576 H   0  0  0  0  0  0  0  0  0  0  0  0
   22.2551   12.1715   31.4643 N   0  0  0  0  0  0  0  0  0  0  0  0
   20.1694   10.1388   32.4210 C   0  0  0  0  0  0  0  0  0  0  0  0
   19.8912   11.4900   32.7958 C   0  0  0  0  0  0  0  0  0  0  0  0
   19.6876   12.5909   33.1129 N   0  0  0  0  0  0  0  0  0  0  0  0
   19.3996    9.0988   32.9038 C   0  0  0  0  0  0  0  0  0  0  0  0
   18.3283    9.3314   33.6929 N   0  0  0  0  0  0  0  0  0  0  0  0
   17.7692    8.5446   34.0097 H   0  0  0  0  0  0  0  0  0  0  0  0
   18.0437   10.2926   33.8670 H   0  0  0  0  0  0  0  0  0  0  0  0
   19.7185    7.7967   32.6500 C   0  0  0  0  0  0  0  0  0  0  0  0
   19.1792    6.9825   33.0989 H   0  0  0  0  0  0  0  0  0  0  0  0
   23.9748    5.0768   30.5718 C   0  0  0  0  0  0  0  0  0  0  0  0
   23.7586    6.1938   29.7930 O   0  0  0  0  0  0  0  0  0  0  0  0
   24.8961    7.0634   29.6212 C   0  0  0  0  0  0  0  0  0  0  0  0
   24.6307    7.9315   29.0113 H   0  0  0  0  0  0  0  0  0  0  0  0
   25.7145    6.5296   29.1249 H   0  0  0  0  0  0  0  0  0  0  0  0
   25.2561    7.4212   30.5928 H   0  0  0  0  0  0  0  0  0  0  0  0
  1  2  1  0
  2  3  2  0
  3  4  1  0
  3  5  1  0
  5  6  1  0
  6  7  1  0
  7  8  1  0
  7  9  1  0
  7 10  1  0
  5 11  2  0
 11 12  1  0
 11 13  1  0
 13 14  1  0
 14 15  1  0
 14 16  1  0
 14 17  1  0
 17 18  2  0
 17 19  1  0
 19 20  1  0
 19 21  1  0
 21 22  2  0
 22 23  1  0
 23 24  1  0
 24 25  2  0
 25 26  1  0
 26 27  1  0
 27 28  1  0
 28 29  1  0
 28 30  1  0
 28 31  1  0
 27 32  2  0
 23 33  2  0
 33 34  1  0
 34 35  3  0
 33 36  1  0
 36 37  1  0
 37 38  1  0
 37 39  1  0
 36 40  2  0
 40 41  1  0
 13 42  2  0
 42 43  1  0
 43 44  1  0
 44 45  1  0
 44 46  1  0
 44 47  1  0
 42  2  1  0
 40 21  1  0
 32 24  1  0
M  END
>  <score>  (49) 
7.23583

$$$$

     RDKit          3D

 40 41  0  0  0  0  0  0  0  0999 V2000
   23.2544   11.3920   32.1712 H   0  0  0  0  0  0  0  0  0  0  0  0
   22.3774   11.5455   31.1665 S   0  0  0  0  0  0  0  0  0  0  0  0
   21.3701   10.2201   31.7067 C   0  0  0  0  0  0  0  0  0  0  0  0
   21.7577    8.9909   31.3752 N   0  0  0  0  0  0  0  0  0  0  0  0
   21.0041    7.9772   31.7453 C   0  0  0  0  0  0  0  0  0  0  0  0
   21.5817    6.8213   31.3715 N   0  0  0  0  0  0  0  0  0  0  0  0
   22.4747    6.9504   30.9251 H   0  0  0  0  0  0  0  0  0  0  0  0
   20.9150    5.6557   31.1269 C   0  0  0  0  0  0  0  0  0  0  0  0
   19.7274    5.5719   31.3905 O   0  0  0  0  0  0  0  0  0  0  0  0
   21.6136    4.5507   30.3359 C   0  0  0  0  0  0  0  0  0  0  0  0
   21.7150    4.8879   29.3027 H   0  0  0  0  0  0  0  0  0  0  0  0
   21.0013    3.6442   30.3304 H   0  0  0  0  0  0  0  0  0  0  0  0
   22.9921    4.2527   30.8854 C   0  0  0  0  0  0  0  0  0  0  0  0
   23.1771    3.1455   31.7319 C   0  0  0  0  0  0  0  0  0  0  0  0
   22.3430    2.4987   31.9809 H   0  0  0  0  0  0  0  0  0  0  0  0
   24.4386    2.8439   32.2726 C   0  0  0  0  0  0  0  0  0  0  0  0
   24.6633    1.7826   33.1221 O   0  0  0  0  0  0  0  0  0  0  0  0
   23.6890    0.7330   33.1410 C   0  0  0  0  0  0  0  0  0  0  0  0
   22.7507    1.0754   33.5846 H   0  0  0  0  0  0  0  0  0  0  0  0
   24.0689   -0.0959   33.7431 H   0  0  0  0  0  0  0  0  0  0  0  0
   23.4976    0.3617   32.1302 H   0  0  0  0  0  0  0  0  0  0  0  0
   25.5232    3.6746   31.9456 C   0  0  0  0  0  0  0  0  0  0  0  0
   27.2718    3.3049   32.6354 Br  0  0  0  0  0  0  0  0  0  0  0  0
   25.3439    4.7808   31.1010 C   0  0  0  0  0  0  0  0  0  0  0  0
   26.1882    5.4130   30.8446 H   0  0  0  0  0  0  0  0  0  0  0  0
   24.0830    5.0891   30.5698 C   0  0  0  0  0  0  0  0  0  0  0  0
   23.8624    6.1790   29.7541 O   0  0  0  0  0  0  0  0  0  0  0  0
   24.9322    7.1184   29.5869 C   0  0  0  0  0  0  0  0  0  0  0  0
   25.2634    7.5034   30.5549 H   0  0  0  0  0  0  0  0  0  0  0  0
   25.7802    6.6597   29.0716 H   0  0  0  0  0  0  0  0  0  0  0  0
   24.5832    7.9616   28.9855 H   0  0  0  0  0  0  0  0  0  0  0  0
   19.8447    8.1043   32.4587 C   0  0  0  0  0  0  0  0  0  0  0  0
   19.2400    7.2577   32.7541 H   0  0  0  0  0  0  0  0  0  0  0  0
   19.5143    9.3667   32.8479 C   0  0  0  0  0  0  0  0  0  0  0  0
   18.4502    9.4859   33.6617 N   0  0  0  0  0  0  0  0  0  0  0  0
   18.1420   10.4085   33.9436 H   0  0  0  0  0  0  0  0  0  0  0  0
   17.9081    8.6609   33.8999 H   0  0  0  0  0  0  0  0  0  0  0  0
   20.2570   10.4633   32.4828 C   0  0  0  0  0  0  0  0  0  0  0  0
   19.9297   11.7916   32.8959 C   0  0  0  0  0  0  0  0  0  0  0  0
   19.7017   12.8908   33.2036 N   0  0  0  0  0  0  0  0  0  0  0  0
  1  2  1  0
  2  3  1  0
  3  4  2  0
  4  5  1  0
  5  6  1  0
  6  7  1  0
  6  8  1  0
  8  9  2  0
  8 10  1  0
 10 11  1  0
 10 12  1  0
 10 13  1  0
 13 14  2  0
 14 15  1  0
 14 16  1  0
 16 17  1  0
 17 18  1  0
 18 19  1  0
 18 20  1  0
 18 21  1  0
 16 22  2  0
 22 23  1  0
 22 24  1  0
 24 25  1  0
 24 26  2  0
 26 27  1  0
 27 28  1  0
 28 29  1  0
 28 30  1  0
 28 31  1  0
  5 32  2  0
 32 33  1  0
 32 34  1  0
 34 35  1  0
 35 36  1  0
 35 37  1  0
 34 38  2  0
 38 39  1  0
 39 40  3  0
 38  3  1  0
 26 13  1  0
M  END
>  <score>  (50) 
7.2362

$$$$

     RDKit          3D

 50 52  0  0  0  0  0  0  0  0999 V2000
   26.1241    5.4866   30.8763 H   0  0  0  0  0  0  0  0  0  0  0  0
   25.2895    4.8331   31.1039 C   0  0  0  0  0  0  0  0  0  0  0  0
   25.4960    3.7333   31.9389 C   0  0  0  0  0  0  0  0  0  0  0  0
   27.2452    3.4306   32.6568 Br  0  0  0  0  0  0  0  0  0  0  0  0
   24.4273    2.8771   32.2469 C   0  0  0  0  0  0  0  0  0  0  0  0
   24.6509    1.7984   33.0706 O   0  0  0  0  0  0  0  0  0  0  0  0
   23.6307    0.7893   33.0889 C   0  0  0  0  0  0  0  0  0  0  0  0
   23.9634   -0.0576   33.6976 H   0  0  0  0  0  0  0  0  0  0  0  0
   23.4274    0.4283   32.0744 H   0  0  0  0  0  0  0  0  0  0  0  0
   22.7041    1.1855   33.5174 H   0  0  0  0  0  0  0  0  0  0  0  0
   23.1592    3.1613   31.7122 C   0  0  0  0  0  0  0  0  0  0  0  0
   22.3223    2.5149   31.9562 H   0  0  0  0  0  0  0  0  0  0  0  0
   22.9507    4.2665   30.8783 C   0  0  0  0  0  0  0  0  0  0  0  0
   21.5576    4.5362   30.3686 C   0  0  0  0  0  0  0  0  0  0  0  0
   20.9577    3.6282   30.4644 H   0  0  0  0  0  0  0  0  0  0  0  0
   21.5894    4.8116   29.3109 H   0  0  0  0  0  0  0  0  0  0  0  0
   20.9024    5.6727   31.1491 C   0  0  0  0  0  0  0  0  0  0  0  0
   19.8276    5.4948   31.7027 O   0  0  0  0  0  0  0  0  0  0  0  0
   21.4410    6.9262   31.0981 N   0  0  0  0  0  0  0  0  0  0  0  0
   22.2501    7.1031   30.5193 H   0  0  0  0  0  0  0  0  0  0  0  0
   20.8627    8.0389   31.5968 C   0  0  0  0  0  0  0  0  0  0  0  0
   21.4511    9.1114   31.1427 N   0  0  0  0  0  0  0  0  0  0  0  0
   21.0482   10.3043   31.5878 C   0  0  0  0  0  0  0  0  0  0  0  0
   21.6534   11.4332   31.1019 O   0  0  0  0  0  0  0  0  0  0  0  0
   22.7564   11.2216   30.2076 C   0  0  0  0  0  0  0  0  0  0  0  0
   22.4316   10.6304   29.3413 H   0  0  0  0  0  0  0  0  0  0  0  0
   23.1515   12.1819   29.8571 H   0  0  0  0  0  0  0  0  0  0  0  0
   23.8692   10.4878   30.9350 C   0  0  0  0  0  0  0  0  0  0  0  0
   23.5509    9.5754   31.4407 H   0  0  0  0  0  0  0  0  0  0  0  0
   25.2814   10.4910   30.3638 C   0  0  0  0  0  0  0  0  0  0  0  0
   25.4884   11.0478   29.4384 H   0  0  0  0  0  0  0  0  0  0  0  0
   25.8818    9.5855   30.5208 H   0  0  0  0  0  0  0  0  0  0  0  0
   24.9477   11.2990   31.6174 C   0  0  0  0  0  0  0  0  0  0  0  0
   24.8887   12.3902   31.5534 H   0  0  0  0  0  0  0  0  0  0  0  0
   25.3384   10.9047   32.5546 H   0  0  0  0  0  0  0  0  0  0  0  0
   20.0476   10.4372   32.5225 C   0  0  0  0  0  0  0  0  0  0  0  0
   19.7111   11.7228   33.0405 C   0  0  0  0  0  0  0  0  0  0  0  0
   19.4749   12.7764   33.4741 N   0  0  0  0  0  0  0  0  0  0  0  0
   19.4467    9.2849   32.9463 C   0  0  0  0  0  0  0  0  0  0  0  0
   18.4501    9.3082   33.8391 N   0  0  0  0  0  0  0  0  0  0  0  0
   17.8731    8.4702   33.8639 H   0  0  0  0  0  0  0  0  0  0  0  0
   18.0172   10.2186   33.9748 H   0  0  0  0  0  0  0  0  0  0  0  0
   19.8247    8.0661   32.4778 C   0  0  0  0  0  0  0  0  0  0  0  0
   19.3449    7.1644   32.8137 H   0  0  0  0  0  0  0  0  0  0  0  0
   24.0248    5.1223   30.5697 C   0  0  0  0  0  0  0  0  0  0  0  0
   23.8087    6.2306   29.7798 O   0  0  0  0  0  0  0  0  0  0  0  0
   24.9296    7.1110   29.6105 C   0  0  0  0  0  0  0  0  0  0  0  0
   24.6425    7.9787   29.0099 H   0  0  0  0  0  0  0  0  0  0  0  0
   25.7452    6.5880   29.1009 H   0  0  0  0  0  0  0  0  0  0  0  0
   25.2872    7.4657   30.5831 H   0  0  0  0  0  0  0  0  0  0  0  0
  1  2  1  0
  2  3  2  0
  3  4  1  0
  3  5  1  0
  5  6  1  0
  6  7  1  0
  7  8  1  0
  7  9  1  0
  7 10  1  0
  5 11  2  0
 11 12  1  0
 11 13  1  0
 13 14  1  0
 14 15  1  0
 14 16  1  0
 14 17  1  0
 17 18  2  0
 17 19  1  0
 19 20  1  0
 19 21  1  0
 21 22  2  0
 22 23  1  0
 23 24  1  0
 24 25  1  0
 25 26  1  0
 25 27  1  0
 25 28  1  0
 28 29  1  0
 28 30  1  0
 30 31  1  0
 30 32  1  0
 30 33  1  0
 33 34  1  0
 33 35  1  0
 23 36  2  0
 36 37  1  0
 37 38  3  0
 36 39  1  0
 39 40  1  0
 40 41  1  0
 40 42  1  0
 39 43  2  0
 43 44  1  0
 13 45  2  0
 45 46  1  0
 46 47  1  0
 47 48  1  0
 47 49  1  0
 47 50  1  0
 45  2  1  0
 43 21  1  0
 33 28  1  0
M  END
>  <score>  (51) 
7.24779

$$$$

     RDKit          3D

 53 54  0  0  0  0  0  0  0  0999 V2000
   26.1374    5.4853   30.8803 H   0  0  0  0  0  0  0  0  0  0  0  0
   25.2989    4.8410   31.1266 C   0  0  0  0  0  0  0  0  0  0  0  0
   25.5006    3.7293   31.9505 C   0  0  0  0  0  0  0  0  0  0  0  0
   27.2544    3.4059   32.6491 Br  0  0  0  0  0  0  0  0  0  0  0  0
   24.4291    2.8768   32.2570 C   0  0  0  0  0  0  0  0  0  0  0  0
   24.6642    1.7841   33.0593 O   0  0  0  0  0  0  0  0  0  0  0  0
   23.6353    0.7863   33.0864 C   0  0  0  0  0  0  0  0  0  0  0  0
   22.7142    1.1903   33.5170 H   0  0  0  0  0  0  0  0  0  0  0  0
   23.4231    0.4211   32.0762 H   0  0  0  0  0  0  0  0  0  0  0  0
   23.9619   -0.0592   33.6969 H   0  0  0  0  0  0  0  0  0  0  0  0
   23.1588    3.1758   31.7333 C   0  0  0  0  0  0  0  0  0  0  0  0
   22.3288    2.5228   31.9822 H   0  0  0  0  0  0  0  0  0  0  0  0
   22.9503    4.2886   30.9067 C   0  0  0  0  0  0  0  0  0  0  0  0
   21.5560    4.5556   30.3838 C   0  0  0  0  0  0  0  0  0  0  0  0
   20.9251    3.6729   30.5266 H   0  0  0  0  0  0  0  0  0  0  0  0
   21.6039    4.7721   29.3125 H   0  0  0  0  0  0  0  0  0  0  0  0
   20.9274    5.7363   31.1081 C   0  0  0  0  0  0  0  0  0  0  0  0
   19.7803    5.6615   31.5235 O   0  0  0  0  0  0  0  0  0  0  0  0
   21.6172    6.9065   31.1921 N   0  0  0  0  0  0  0  0  0  0  0  0
   22.4463    7.0255   30.6278 H   0  0  0  0  0  0  0  0  0  0  0  0
   21.0653    8.0472   31.6108 C   0  0  0  0  0  0  0  0  0  0  0  0
   21.6487    9.0484   31.0233 N   0  0  0  0  0  0  0  0  0  0  0  0
   21.2624   10.2250   31.4235 C   0  0  0  0  0  0  0  0  0  0  0  0
   21.9082   11.0823   30.6237 N   0  0  0  0  0  0  0  0  0  0  0  0
   22.2510   10.4542   29.9052 H   0  0  0  0  0  0  0  0  0  0  0  0
   22.9701   11.9281   31.1695 C   0  0  0  0  0  0  0  0  0  0  0  0
   22.6151   12.4325   32.0734 H   0  0  0  0  0  0  0  0  0  0  0  0
   23.2705   12.6946   30.4393 H   0  0  0  0  0  0  0  0  0  0  0  0
   24.1772   11.0450   31.4912 C   0  0  0  0  0  0  0  0  0  0  0  0
   23.8364   10.1343   31.9969 H   0  0  0  0  0  0  0  0  0  0  0  0
   24.8493   11.5827   32.1632 H   0  0  0  0  0  0  0  0  0  0  0  0
   24.9721   10.6591   30.2412 C   0  0  0  0  0  0  0  0  0  0  0  0
   24.3310   10.0833   29.5692 H   0  0  0  0  0  0  0  0  0  0  0  0
   25.8086   10.0168   30.5345 H   0  0  0  0  0  0  0  0  0  0  0  0
   25.5172   11.8926   29.5109 C   0  0  0  0  0  0  0  0  0  0  0  0
   24.7142   12.3953   28.9593 H   0  0  0  0  0  0  0  0  0  0  0  0
   25.9243   12.6084   30.2300 H   0  0  0  0  0  0  0  0  0  0  0  0
   26.3193   11.6047   28.8143 H   0  0  0  0  0  0  0  0  0  0  0  0
   20.3344   10.5000   32.3780 C   0  0  0  0  0  0  0  0  0  0  0  0
   20.0318   11.8425   32.7406 C   0  0  0  0  0  0  0  0  0  0  0  0
   19.8132   12.9401   33.0531 N   0  0  0  0  0  0  0  0  0  0  0  0
   19.7109    9.4055   32.9008 C   0  0  0  0  0  0  0  0  0  0  0  0
   18.6729    9.5309   33.7377 N   0  0  0  0  0  0  0  0  0  0  0  0
   18.2257   10.4418   33.7476 H   0  0  0  0  0  0  0  0  0  0  0  0
   18.0831    8.7054   33.7894 H   0  0  0  0  0  0  0  0  0  0  0  0
   20.0596    8.1431   32.5339 C   0  0  0  0  0  0  0  0  0  0  0  0
   19.5683    7.2691   32.9445 H   0  0  0  0  0  0  0  0  0  0  0  0
   24.0309    5.1435   30.6023 C   0  0  0  0  0  0  0  0  0  0  0  0
   23.8152    6.2565   29.8182 O   0  0  0  0  0  0  0  0  0  0  0  0
   24.9482    7.1158   29.6186 C   0  0  0  0  0  0  0  0  0  0  0  0
   24.6644    7.9741   29.0037 H   0  0  0  0  0  0  0  0  0  0  0  0
   25.7559    6.5776   29.1115 H   0  0  0  0  0  0  0  0  0  0  0  0
   25.3216    7.4853   30.5792 H   0  0  0  0  0  0  0  0  0  0  0  0
  1  2  1  0
  2  3  2  0
  3  4  1  0
  3  5  1  0
  5  6  1  0
  6  7  1  0
  7  8  1  0
  7  9  1  0
  7 10  1  0
  5 11  2  0
 11 12  1  0
 11 13  1  0
 13 14  1  0
 14 15  1  0
 14 16  1  0
 14 17  1  0
 17 18  2  0
 17 19  1  0
 19 20  1  0
 19 21  1  0
 21 22  2  0
 22 23  1  0
 23 24  1  0
 24 25  1  0
 24 26  1  0
 26 27  1  0
 26 28  1  0
 26 29  1  0
 29 30  1  0
 29 31  1  0
 29 32  1  0
 32 33  1  0
 32 34  1  0
 32 35  1  0
 35 36  1  0
 35 37  1  0
 35 38  1  0
 23 39  2  0
 39 40  1  0
 40 41  3  0
 39 42  1  0
 42 43  1  0
 43 44  1  0
 43 45  1  0
 42 46  2  0
 46 47  1  0
 13 48  2  0
 48 49  1  0
 49 50  1  0
 50 51  1  0
 50 52  1  0
 50 53  1  0
 48  2  1  0
 46 21  1  0
M  END
>  <score>  (52) 
7.2482

$$$$

     RDKit          3D

 48 50  0  0  0  0  0  0  0  0999 V2000
   26.1598    5.4404   30.8478 H   0  0  0  0  0  0  0  0  0  0  0  0
   25.3176    4.8071   31.1048 C   0  0  0  0  0  0  0  0  0  0  0  0
   25.5152    3.7077   31.9461 C   0  0  0  0  0  0  0  0  0  0  0  0
   27.2725    3.3764   32.6372 Br  0  0  0  0  0  0  0  0  0  0  0  0
   24.4391    2.8625   32.2651 C   0  0  0  0  0  0  0  0  0  0  0  0
   24.6721    1.7840   33.0896 O   0  0  0  0  0  0  0  0  0  0  0  0
   23.6682    0.7599   33.1147 C   0  0  0  0  0  0  0  0  0  0  0  0
   23.4658    0.3969   32.1023 H   0  0  0  0  0  0  0  0  0  0  0  0
   22.7374    1.1381   33.5480 H   0  0  0  0  0  0  0  0  0  0  0  0
   24.0168   -0.0832   33.7204 H   0  0  0  0  0  0  0  0  0  0  0  0
   23.1661    3.1601   31.7420 C   0  0  0  0  0  0  0  0  0  0  0  0
   22.3360    2.5054   31.9891 H   0  0  0  0  0  0  0  0  0  0  0  0
   22.9590    4.2814   30.9182 C   0  0  0  0  0  0  0  0  0  0  0  0
   21.5670    4.6030   30.4010 C   0  0  0  0  0  0  0  0  0  0  0  0
   20.9331    3.7161   30.4487 H   0  0  0  0  0  0  0  0  0  0  0  0
   21.6409    4.9245   29.3582 H   0  0  0  0  0  0  0  0  0  0  0  0
   20.8943    5.7330   31.1708 C   0  0  0  0  0  0  0  0  0  0  0  0
   19.7051    5.6846   31.4491 O   0  0  0  0  0  0  0  0  0  0  0  0
   21.5874    6.8957   31.3345 N   0  0  0  0  0  0  0  0  0  0  0  0
   22.4452    7.0148   30.8120 H   0  0  0  0  0  0  0  0  0  0  0  0
   21.0182    8.0543   31.7004 C   0  0  0  0  0  0  0  0  0  0  0  0
   21.7608    9.0519   31.2835 N   0  0  0  0  0  0  0  0  0  0  0  0
   21.3894   10.2911   31.5946 C   0  0  0  0  0  0  0  0  0  0  0  0
   22.3445   11.3857   31.2110 C   0  0  1  0  0  0  0  0  0  0  0  0
   22.8053   11.8718   32.0516 H   0  0  0  0  0  0  0  0  0  0  0  0
   23.1029   11.3366   29.8861 C   0  0  0  0  0  0  0  0  0  0  0  0
   24.1457   11.6678   29.8811 H   0  0  0  0  0  0  0  0  0  0  0  0
   22.8647   10.5316   29.1803 H   0  0  0  0  0  0  0  0  0  0  0  0
   22.0368   12.3839   30.1404 C   0  0  1  0  0  0  0  0  0  0  0  0
   22.3531   13.4194   30.3047 H   0  0  0  0  0  0  0  0  0  0  0  0
   20.7283   12.1553   29.5944 N   0  0  0  0  0  0  0  0  0  0  0  0
   20.0277   12.7069   30.0769 H   0  0  0  0  0  0  0  0  0  0  0  0
   20.7156   12.3513   28.5989 H   0  0  0  0  0  0  0  0  0  0  0  0
   20.2789   10.5364   32.3884 C   0  0  0  0  0  0  0  0  0  0  0  0
   19.9737   11.8573   32.8252 C   0  0  0  0  0  0  0  0  0  0  0  0
   19.7574   12.9352   33.1974 N   0  0  0  0  0  0  0  0  0  0  0  0
   19.5275    9.4665   32.7981 C   0  0  0  0  0  0  0  0  0  0  0  0
   18.4726    9.6268   33.6354 N   0  0  0  0  0  0  0  0  0  0  0  0
   18.7094   10.0964   34.5035 H   0  0  0  0  0  0  0  0  0  0  0  0
   17.6338    9.9791   33.1860 H   0  0  0  0  0  0  0  0  0  0  0  0
   19.8743    8.1996   32.4459 C   0  0  0  0  0  0  0  0  0  0  0  0
   19.3003    7.3566   32.7998 H   0  0  0  0  0  0  0  0  0  0  0  0
   24.0492    5.1114   30.5875 C   0  0  0  0  0  0  0  0  0  0  0  0
   23.8327    6.2020   29.7737 O   0  0  0  0  0  0  0  0  0  0  0  0
   24.9354    7.1027   29.6040 C   0  0  0  0  0  0  0  0  0  0  0  0
   25.7707    6.6042   29.1017 H   0  0  0  0  0  0  0  0  0  0  0  0
   25.2791    7.4675   30.5767 H   0  0  0  0  0  0  0  0  0  0  0  0
   24.6233    7.9593   28.9986 H   0  0  0  0  0  0  0  0  0  0  0  0
  1  2  1  0
  2  3  2  0
  3  4  1  0
  3  5  1  0
  5  6  1  0
  6  7  1  0
  7  8  1  0
  7  9  1  0
  7 10  1  0
  5 11  2  0
 11 12  1  0
 11 13  1  0
 13 14  1  0
 14 15  1  0
 14 16  1  0
 14 17  1  0
 17 18  2  0
 17 19  1  0
 19 20  1  0
 19 21  1  0
 21 22  2  0
 22 23  1  0
 23 24  1  0
 24 25  1  1
 24 26  1  0
 26 27  1  0
 26 28  1  0
 26 29  1  0
 29 30  1  1
 29 31  1  0
 31 32  1  0
 31 33  1  0
 23 34  2  0
 34 35  1  0
 35 36  3  0
 34 37  1  0
 37 38  1  0
 38 39  1  0
 38 40  1  0
 37 41  2  0
 41 42  1  0
 13 43  2  0
 43 44  1  0
 44 45  1  0
 45 46  1  0
 45 47  1  0
 45 48  1  0
 43  2  1  0
 41 21  1  0
 29 24  1  0
M  END
>  <score>  (53) 
7.24838

$$$$

     RDKit          3D

 55 57  0  0  0  0  0  0  0  0999 V2000
   24.1479   16.2853   27.1815 H   0  0  0  0  0  0  0  0  0  0  0  0
   23.4447   15.9326   27.9318 C   0  0  0  0  0  0  0  0  0  0  0  0
   23.6064   14.6539   28.4847 C   0  0  0  0  0  0  0  0  0  0  0  0
   24.4253   13.9994   28.1984 H   0  0  0  0  0  0  0  0  0  0  0  0
   22.6836   14.1918   29.4122 C   0  0  0  0  0  0  0  0  0  0  0  0
   22.8180   12.9189   29.9171 N   0  0  0  0  0  0  0  0  0  0  0  0
   23.7438   12.5655   30.0985 H   0  0  0  0  0  0  0  0  0  0  0  0
   21.8225   12.2657   30.5645 C   0  0  0  0  0  0  0  0  0  0  0  0
   20.6350   12.5048   30.4309 O   0  0  0  0  0  0  0  0  0  0  0  0
   22.3047   11.2573   31.3011 N   0  0  0  0  0  0  0  0  0  0  0  0
   23.0863   10.8015   30.8645 H   0  0  0  0  0  0  0  0  0  0  0  0
   21.4133   10.3490   31.6578 C   0  0  0  0  0  0  0  0  0  0  0  0
   21.8028    9.2030   31.1697 N   0  0  0  0  0  0  0  0  0  0  0  0
   21.0664    8.1754   31.4919 C   0  0  0  0  0  0  0  0  0  0  0  0
   21.5680    7.0447   30.9649 N   0  0  0  0  0  0  0  0  0  0  0  0
   22.4430    7.1501   30.4708 H   0  0  0  0  0  0  0  0  0  0  0  0
   20.9807    5.8217   31.0956 C   0  0  0  0  0  0  0  0  0  0  0  0
   19.9278    5.7139   31.7002 O   0  0  0  0  0  0  0  0  0  0  0  0
   21.5620    4.6116   30.3881 C   0  0  0  0  0  0  0  0  0  0  0  0
   20.8957    3.7623   30.5514 H   0  0  0  0  0  0  0  0  0  0  0  0
   21.5954    4.8225   29.3175 H   0  0  0  0  0  0  0  0  0  0  0  0
   22.9474    4.3017   30.8973 C   0  0  0  0  0  0  0  0  0  0  0  0
   23.1473    3.1823   31.7193 C   0  0  0  0  0  0  0  0  0  0  0  0
   22.3126    2.5321   31.9655 H   0  0  0  0  0  0  0  0  0  0  0  0
   24.4171    2.8840   32.2459 C   0  0  0  0  0  0  0  0  0  0  0  0
   24.6482    1.7994   33.0599 O   0  0  0  0  0  0  0  0  0  0  0  0
   23.6295    0.7910   33.0846 C   0  0  0  0  0  0  0  0  0  0  0  0
   22.7044    1.1866   33.5145 H   0  0  0  0  0  0  0  0  0  0  0  0
   23.4239    0.4272   32.0728 H   0  0  0  0  0  0  0  0  0  0  0  0
   23.9636   -0.0538   33.6944 H   0  0  0  0  0  0  0  0  0  0  0  0
   25.4908    3.7355   31.9398 C   0  0  0  0  0  0  0  0  0  0  0  0
   27.2428    3.4255   32.6471 Br  0  0  0  0  0  0  0  0  0  0  0  0
   25.2932    4.8390   31.1068 C   0  0  0  0  0  0  0  0  0  0  0  0
   26.1298    5.4843   30.8638 H   0  0  0  0  0  0  0  0  0  0  0  0
   24.0301    5.1418   30.5800 C   0  0  0  0  0  0  0  0  0  0  0  0
   23.8143    6.2466   29.7855 O   0  0  0  0  0  0  0  0  0  0  0  0
   24.9445    7.1091   29.6048 C   0  0  0  0  0  0  0  0  0  0  0  0
   24.6660    7.9695   28.9909 H   0  0  0  0  0  0  0  0  0  0  0  0
   25.7585    6.5720   29.1076 H   0  0  0  0  0  0  0  0  0  0  0  0
   25.3021    7.4709   30.5742 H   0  0  0  0  0  0  0  0  0  0  0  0
   19.9595    8.2410   32.2956 C   0  0  0  0  0  0  0  0  0  0  0  0
   19.3907    7.3758   32.5776 H   0  0  0  0  0  0  0  0  0  0  0  0
   19.6097    9.4625   32.7683 C   0  0  0  0  0  0  0  0  0  0  0  0
   18.5765    9.5058   33.6244 N   0  0  0  0  0  0  0  0  0  0  0  0
   18.0302    8.6556   33.7220 H   0  0  0  0  0  0  0  0  0  0  0  0
   18.1420   10.4100   33.7848 H   0  0  0  0  0  0  0  0  0  0  0  0
   20.3125   10.5761   32.4356 C   0  0  0  0  0  0  0  0  0  0  0  0
   19.9619   11.8718   32.9119 C   0  0  0  0  0  0  0  0  0  0  0  0
   19.6737   12.9348   33.2884 N   0  0  0  0  0  0  0  0  0  0  0  0
   21.6362   15.0005   29.8356 C   0  0  0  0  0  0  0  0  0  0  0  0
   20.9366   14.6207   30.5689 H   0  0  0  0  0  0  0  0  0  0  0  0
   21.5069   16.2978   29.3530 C   0  0  0  0  0  0  0  0  0  0  0  0
   20.6874   16.9020   29.7261 H   0  0  0  0  0  0  0  0  0  0  0  0
   22.3938   16.7593   28.3670 C   0  0  0  0  0  0  0  0  0  0  0  0
   22.1702   18.3361   27.6505 Cl  0  0  0  0  0  0  0  0  0  0  0  0
  1  2  1  0
  2  3  2  0
  3  4  1  0
  3  5  1  0
  5  6  1  0
  6  7  1  0
  6  8  1  0
  8  9  2  0
  8 10  1  0
 10 11  1  0
 10 12  1  0
 12 13  2  0
 13 14  1  0
 14 15  1  0
 15 16  1  0
 15 17  1  0
 17 18  2  0
 17 19  1  0
 19 20  1  0
 19 21  1  0
 19 22  1  0
 22 23  2  0
 23 24  1  0
 23 25  1  0
 25 26  1  0
 26 27  1  0
 27 28  1  0
 27 29  1  0
 27 30  1  0
 25 31  2  0
 31 32  1  0
 31 33  1  0
 33 34  1  0
 33 35  2  0
 35 36  1  0
 36 37  1  0
 37 38  1  0
 37 39  1  0
 37 40  1  0
 14 41  2  0
 41 42  1  0
 41 43  1  0
 43 44  1  0
 44 45  1  0
 44 46  1  0
 43 47  2  0
 47 48  1  0
 48 49  3  0
  5 50  2  0
 50 51  1  0
 50 52  1  0
 52 53  1  0
 52 54  2  0
 54 55  1  0
 54  2  1  0
 47 12  1  0
 35 22  1  0
M  END
>  <score>  (54) 
7.24908

$$$$

     RDKit          3D

 52 54  0  0  0  0  0  0  0  0999 V2000
   25.9823    9.0187   31.5457 H   0  0  0  0  0  0  0  0  0  0  0  0
   25.4482    9.7190   30.9220 C   0  0  0  0  0  0  0  0  0  0  0  0
   24.2241   10.2025   31.3771 C   0  0  0  0  0  0  0  0  0  0  0  0
   23.8243    9.8851   32.3305 H   0  0  0  0  0  0  0  0  0  0  0  0
   23.4355   11.0212   30.5683 C   0  0  0  0  0  0  0  0  0  0  0  0
   22.0612   11.4154   31.0689 C   0  0  0  0  0  0  0  0  0  0  0  0
   22.1895   12.1344   31.8846 H   0  0  0  0  0  0  0  0  0  0  0  0
   21.4883   11.8908   30.2625 H   0  0  0  0  0  0  0  0  0  0  0  0
   21.2646   10.2322   31.6033 C   0  0  0  0  0  0  0  0  0  0  0  0
   21.6309    8.9960   31.2538 N   0  0  0  0  0  0  0  0  0  0  0  0
   20.9597    7.9651   31.7181 C   0  0  0  0  0  0  0  0  0  0  0  0
   21.5371    6.8235   31.3068 N   0  0  0  0  0  0  0  0  0  0  0  0
   22.3861    6.9613   30.7801 H   0  0  0  0  0  0  0  0  0  0  0  0
   20.8782    5.6371   31.1592 C   0  0  0  0  0  0  0  0  0  0  0  0
   19.7228    5.5299   31.5324 O   0  0  0  0  0  0  0  0  0  0  0  0
   21.5500    4.5134   30.3834 C   0  0  0  0  0  0  0  0  0  0  0  0
   21.5911    4.7898   29.3287 H   0  0  0  0  0  0  0  0  0  0  0  0
   20.9501    3.6034   30.4730 H   0  0  0  0  0  0  0  0  0  0  0  0
   22.9478    4.2544   30.8915 C   0  0  0  0  0  0  0  0  0  0  0  0
   23.1550    3.1501   31.7287 C   0  0  0  0  0  0  0  0  0  0  0  0
   22.3264    2.4960   31.9823 H   0  0  0  0  0  0  0  0  0  0  0  0
   24.4214    2.8631   32.2618 C   0  0  0  0  0  0  0  0  0  0  0  0
   24.6488    1.7826   33.0828 O   0  0  0  0  0  0  0  0  0  0  0  0
   23.6292    0.7737   33.1014 C   0  0  0  0  0  0  0  0  0  0  0  0
   23.4278    0.4140   32.0863 H   0  0  0  0  0  0  0  0  0  0  0  0
   23.9613   -0.0732   33.7099 H   0  0  0  0  0  0  0  0  0  0  0  0
   22.7025    1.1688   33.5300 H   0  0  0  0  0  0  0  0  0  0  0  0
   25.4909    3.7154   31.9481 C   0  0  0  0  0  0  0  0  0  0  0  0
   27.2372    3.3984   32.6633 Br  0  0  0  0  0  0  0  0  0  0  0  0
   25.2903    4.8140   31.1063 C   0  0  0  0  0  0  0  0  0  0  0  0
   26.1235    5.4616   30.8562 H   0  0  0  0  0  0  0  0  0  0  0  0
   24.0267    5.1096   30.5749 C   0  0  0  0  0  0  0  0  0  0  0  0
   23.8150    6.2208   29.7848 O   0  0  0  0  0  0  0  0  0  0  0  0
   24.9453    7.0809   29.5596 C   0  0  0  0  0  0  0  0  0  0  0  0
   24.6418    7.9756   29.0076 H   0  0  0  0  0  0  0  0  0  0  0  0
   25.7083    6.5556   28.9789 H   0  0  0  0  0  0  0  0  0  0  0  0
   25.3856    7.3995   30.5082 H   0  0  0  0  0  0  0  0  0  0  0  0
   19.8680    8.0713   32.5352 C   0  0  0  0  0  0  0  0  0  0  0  0
   19.3347    7.2083   32.8982 H   0  0  0  0  0  0  0  0  0  0  0  0
   19.5094    9.3238   32.9261 C   0  0  0  0  0  0  0  0  0  0  0  0
   18.4719    9.4236   33.7913 N   0  0  0  0  0  0  0  0  0  0  0  0
   17.8823    8.5978   33.8539 H   0  0  0  0  0  0  0  0  0  0  0  0
   18.0180   10.3312   33.8502 H   0  0  0  0  0  0  0  0  0  0  0  0
   20.1895   10.4315   32.4676 C   0  0  0  0  0  0  0  0  0  0  0  0
   19.8336   11.7451   32.8904 C   0  0  0  0  0  0  0  0  0  0  0  0
   19.5894   12.8303   33.2326 N   0  0  0  0  0  0  0  0  0  0  0  0
   23.9026   11.3747   29.2949 C   0  0  0  0  0  0  0  0  0  0  0  0
   23.3081   11.9968   28.6312 H   0  0  0  0  0  0  0  0  0  0  0  0
   25.1595   10.9255   28.8596 C   0  0  0  0  0  0  0  0  0  0  0  0
   25.5441   11.1871   27.8807 H   0  0  0  0  0  0  0  0  0  0  0  0
   25.9347   10.0906   29.6673 C   0  0  0  0  0  0  0  0  0  0  0  0
   27.4710    9.4874   29.0777 Cl  0  0  0  0  0  0  0  0  0  0  0  0
  1  2  1  0
  2  3  2  0
  3  4  1  0
  3  5  1  0
  5  6  1  0
  6  7  1  0
  6  8  1  0
  6  9  1  0
  9 10  2  0
 10 11  1  0
 11 12  1  0
 12 13  1  0
 12 14  1  0
 14 15  2  0
 14 16  1  0
 16 17  1  0
 16 18  1  0
 16 19  1  0
 19 20  2  0
 20 21  1  0
 20 22  1  0
 22 23  1  0
 23 24  1  0
 24 25  1  0
 24 26  1  0
 24 27  1  0
 22 28  2  0
 28 29  1  0
 28 30  1  0
 30 31  1  0
 30 32  2  0
 32 33  1  0
 33 34  1  0
 34 35  1  0
 34 36  1  0
 34 37  1  0
 11 38  2  0
 38 39  1  0
 38 40  1  0
 40 41  1  0
 41 42  1  0
 41 43  1  0
 40 44  2  0
 44 45  1  0
 45 46  3  0
  5 47  2  0
 47 48  1  0
 47 49  1  0
 49 50  1  0
 49 51  2  0
 51 52  1  0
 51  2  1  0
 44  9  1  0
 32 19  1  0
M  END
>  <score>  (55) 
7.25117

$$$$

     RDKit          3D

 41 42  0  0  0  0  0  0  0  0999 V2000
   23.0866   11.0613   30.6111 H   0  0  0  0  0  0  0  0  0  0  0  0
   22.2691   11.3263   31.2710 C   0  0  0  0  0  0  0  0  0  0  0  0
   22.1402   12.5020   31.6179 O   0  0  0  0  0  0  0  0  0  0  0  0
   21.3890   10.2129   31.7221 C   0  0  0  0  0  0  0  0  0  0  0  0
   21.7472    8.9644   31.3727 N   0  0  0  0  0  0  0  0  0  0  0  0
   21.0093    7.9328   31.7430 C   0  0  0  0  0  0  0  0  0  0  0  0
   21.5876    6.7807   31.3634 N   0  0  0  0  0  0  0  0  0  0  0  0
   22.4645    6.9123   30.8856 H   0  0  0  0  0  0  0  0  0  0  0  0
   20.9111    5.6234   31.1253 C   0  0  0  0  0  0  0  0  0  0  0  0
   19.7216    5.5373   31.3840 O   0  0  0  0  0  0  0  0  0  0  0  0
   21.6104    4.5295   30.3326 C   0  0  0  0  0  0  0  0  0  0  0  0
   21.7001    4.8768   29.3017 H   0  0  0  0  0  0  0  0  0  0  0  0
   20.9998    3.6232   30.3349 H   0  0  0  0  0  0  0  0  0  0  0  0
   22.9904    4.2417   30.8824 C   0  0  0  0  0  0  0  0  0  0  0  0
   23.1796    3.1385   31.7304 C   0  0  0  0  0  0  0  0  0  0  0  0
   22.3444    2.4920   31.9814 H   0  0  0  0  0  0  0  0  0  0  0  0
   24.4427    2.8459   32.2723 C   0  0  0  0  0  0  0  0  0  0  0  0
   24.6686    1.7841   33.1191 O   0  0  0  0  0  0  0  0  0  0  0  0
   23.6867    0.7381   33.1375 C   0  0  0  0  0  0  0  0  0  0  0  0
   24.0580   -0.0964   33.7393 H   0  0  0  0  0  0  0  0  0  0  0  0
   22.7477    1.0867   33.5771 H   0  0  0  0  0  0  0  0  0  0  0  0
   23.4921    0.3692   32.1257 H   0  0  0  0  0  0  0  0  0  0  0  0
   25.5245    3.6806   31.9452 C   0  0  0  0  0  0  0  0  0  0  0  0
   27.2745    3.3209   32.6368 Br  0  0  0  0  0  0  0  0  0  0  0  0
   25.3382    4.7845   31.1021 C   0  0  0  0  0  0  0  0  0  0  0  0
   26.1817    5.4182   30.8482 H   0  0  0  0  0  0  0  0  0  0  0  0
   24.0758    5.0869   30.5693 C   0  0  0  0  0  0  0  0  0  0  0  0
   23.8513    6.1798   29.7585 O   0  0  0  0  0  0  0  0  0  0  0  0
   24.9312    7.1117   29.5909 C   0  0  0  0  0  0  0  0  0  0  0  0
   25.2684    7.4949   30.5590 H   0  0  0  0  0  0  0  0  0  0  0  0
   24.5923    7.9588   28.9882 H   0  0  0  0  0  0  0  0  0  0  0  0
   25.7785    6.6460   29.0781 H   0  0  0  0  0  0  0  0  0  0  0  0
   19.8523    8.0540   32.4535 C   0  0  0  0  0  0  0  0  0  0  0  0
   19.2585    7.2018   32.7390 H   0  0  0  0  0  0  0  0  0  0  0  0
   19.4964    9.3088   32.8383 C   0  0  0  0  0  0  0  0  0  0  0  0
   18.3955    9.3829   33.6148 N   0  0  0  0  0  0  0  0  0  0  0  0
   18.5546    8.9519   34.5215 H   0  0  0  0  0  0  0  0  0  0  0  0
   17.5773    8.9999   33.1573 H   0  0  0  0  0  0  0  0  0  0  0  0
   20.2464   10.4129   32.4954 C   0  0  0  0  0  0  0  0  0  0  0  0
   19.8778   11.7258   32.9243 C   0  0  0  0  0  0  0  0  0  0  0  0
   19.6156   12.8119   33.2559 N   0  0  0  0  0  0  0  0  0  0  0  0
  1  2  1  0
  2  3  2  0
  2  4  1  0
  4  5  2  0
  5  6  1  0
  6  7  1  0
  7  8  1  0
  7  9  1  0
  9 10  2  0
  9 11  1  0
 11 12  1  0
 11 13  1  0
 11 14  1  0
 14 15  2  0
 15 16  1  0
 15 17  1  0
 17 18  1  0
 18 19  1  0
 19 20  1  0
 19 21  1  0
 19 22  1  0
 17 23  2  0
 23 24  1  0
 23 25  1  0
 25 26  1  0
 25 27  2  0
 27 28  1  0
 28 29  1  0
 29 30  1  0
 29 31  1  0
 29 32  1  0
  6 33  2  0
 33 34  1  0
 33 35  1  0
 35 36  1  0
 36 37  1  0
 36 38  1  0
 35 39  2  0
 39 40  1  0
 40 41  3  0
 39  4  1  0
 27 14  1  0
M  END
>  <score>  (56) 
7.25156

$$$$

     RDKit          3D

 52 53  0  0  0  0  0  0  0  0999 V2000
   26.1069    5.4932   30.8981 H   0  0  0  0  0  0  0  0  0  0  0  0
   25.2821    4.8256   31.1237 C   0  0  0  0  0  0  0  0  0  0  0  0
   25.5042    3.7270   31.9553 C   0  0  0  0  0  0  0  0  0  0  0  0
   27.2587    3.4608   32.6776 Br  0  0  0  0  0  0  0  0  0  0  0  0
   24.4488    2.8507   32.2498 C   0  0  0  0  0  0  0  0  0  0  0  0
   24.6812    1.7687   33.0652 O   0  0  0  0  0  0  0  0  0  0  0  0
   23.6414    0.7810   33.0891 C   0  0  0  0  0  0  0  0  0  0  0  0
   22.7294    1.1955   33.5296 H   0  0  0  0  0  0  0  0  0  0  0  0
   23.9568   -0.0801   33.6837 H   0  0  0  0  0  0  0  0  0  0  0  0
   23.4166    0.4387   32.0733 H   0  0  0  0  0  0  0  0  0  0  0  0
   23.1811    3.1100   31.7016 C   0  0  0  0  0  0  0  0  0  0  0  0
   22.3616    2.4413   31.9450 H   0  0  0  0  0  0  0  0  0  0  0  0
   22.9547    4.2032   30.8597 C   0  0  0  0  0  0  0  0  0  0  0  0
   21.5500    4.4237   30.3328 C   0  0  0  0  0  0  0  0  0  0  0  0
   21.5885    4.7117   29.2784 H   0  0  0  0  0  0  0  0  0  0  0  0
   20.9615    3.5059   30.4102 H   0  0  0  0  0  0  0  0  0  0  0  0
   20.8624    5.5214   31.1318 C   0  0  0  0  0  0  0  0  0  0  0  0
   19.6982    5.4190   31.4916 O   0  0  0  0  0  0  0  0  0  0  0  0
   21.5510    6.6719   31.3540 N   0  0  0  0  0  0  0  0  0  0  0  0
   22.4319    6.7996   30.8737 H   0  0  0  0  0  0  0  0  0  0  0  0
   21.0140    7.8060   31.8338 C   0  0  0  0  0  0  0  0  0  0  0  0
   21.7362    8.8367   31.4502 N   0  0  0  0  0  0  0  0  0  0  0  0
   21.3540   10.1002   31.7555 C   0  0  0  0  0  0  0  0  0  0  0  0
   22.2172   11.2634   31.2537 C   0  0  0  0  0  0  0  0  0  0  0  0
   21.8492   12.4360   31.3516 O   0  0  0  0  0  0  0  0  0  0  0  0
   23.4491   11.0631   30.6262 N   0  0  0  0  0  0  0  0  0  0  0  0
   23.8390   10.1243   30.6127 H   0  0  0  0  0  0  0  0  0  0  0  0
   24.3262   12.1245   30.1830 C   0  0  0  0  0  0  0  0  0  0  0  0
   23.8158   12.8126   29.4984 H   0  0  0  0  0  0  0  0  0  0  0  0
   25.4831   11.4471   29.4566 C   0  0  0  0  0  0  0  0  0  0  0  0
   25.1245   10.9968   28.5253 H   0  0  0  0  0  0  0  0  0  0  0  0
   25.9090   10.6541   30.0792 H   0  0  0  0  0  0  0  0  0  0  0  0
   26.2711   12.1669   29.2147 H   0  0  0  0  0  0  0  0  0  0  0  0
   24.7924   12.8761   31.4161 C   0  0  0  0  0  0  0  0  0  0  0  0
   25.3064   12.1947   32.0937 H   0  0  0  0  0  0  0  0  0  0  0  0
   25.4865   13.6644   31.1381 H   0  0  0  0  0  0  0  0  0  0  0  0
   23.9393   13.3244   31.9350 H   0  0  0  0  0  0  0  0  0  0  0  0
   20.1721   10.2820   32.5088 C   0  0  0  0  0  0  0  0  0  0  0  0
   19.7278   11.5796   32.9066 C   0  0  0  0  0  0  0  0  0  0  0  0
   19.3682   12.6361   33.2443 N   0  0  0  0  0  0  0  0  0  0  0  0
   19.4560    9.1630   32.9066 C   0  0  0  0  0  0  0  0  0  0  0  0
   18.3001    9.2888   33.6100 N   0  0  0  0  0  0  0  0  0  0  0  0
   17.7797    8.4420   33.8300 H   0  0  0  0  0  0  0  0  0  0  0  0
   17.8090   10.1723   33.5314 H   0  0  0  0  0  0  0  0  0  0  0  0
   19.8775    7.9037   32.5856 C   0  0  0  0  0  0  0  0  0  0  0  0
   19.3355    7.0220   32.8903 H   0  0  0  0  0  0  0  0  0  0  0  0
   24.0159    5.0919   30.5756 C   0  0  0  0  0  0  0  0  0  0  0  0
   23.7941    6.2072   29.7969 O   0  0  0  0  0  0  0  0  0  0  0  0
   24.9277    7.0733   29.6183 C   0  0  0  0  0  0  0  0  0  0  0  0
   25.7471    6.5355   29.1297 H   0  0  0  0  0  0  0  0  0  0  0  0
   25.2840    7.4404   30.5868 H   0  0  0  0  0  0  0  0  0  0  0  0
   24.6567    7.9323   28.9988 H   0  0  0  0  0  0  0  0  0  0  0  0
  1  2  1  0
  2  3  2  0
  3  4  1  0
  3  5  1  0
  5  6  1  0
  6  7  1  0
  7  8  1  0
  7  9  1  0
  7 10  1  0
  5 11  2  0
 11 12  1  0
 11 13  1  0
 13 14  1  0
 14 15  1  0
 14 16  1  0
 14 17  1  0
 17 18  2  0
 17 19  1  0
 19 20  1  0
 19 21  1  0
 21 22  2  0
 22 23  1  0
 23 24  1  0
 24 25  2  0
 24 26  1  0
 26 27  1  0
 26 28  1  0
 28 29  1  0
 28 30  1  0
 30 31  1  0
 30 32  1  0
 30 33  1  0
 28 34  1  0
 34 35  1  0
 34 36  1  0
 34 37  1  0
 23 38  2  0
 38 39  1  0
 39 40  3  0
 38 41  1  0
 41 42  1  0
 42 43  1  0
 42 44  1  0
 41 45  2  0
 45 46  1  0
 13 47  2  0
 47 48  1  0
 48 49  1  0
 49 50  1  0
 49 51  1  0
 49 52  1  0
 47  2  1  0
 45 21  1  0
M  END
>  <score>  (57) 
7.25729

$$$$

     RDKit          3D

 48 49  0  0  0  0  0  0  0  0999 V2000
   26.1810    5.4168   30.8495 H   0  0  0  0  0  0  0  0  0  0  0  0
   25.3385    4.7819   31.1017 C   0  0  0  0  0  0  0  0  0  0  0  0
   25.5240    3.6783   31.9453 C   0  0  0  0  0  0  0  0  0  0  0  0
   27.2741    3.3180   32.6365 Br  0  0  0  0  0  0  0  0  0  0  0  0
   24.4425    2.8444   32.2720 C   0  0  0  0  0  0  0  0  0  0  0  0
   24.6682    1.7843   33.1206 O   0  0  0  0  0  0  0  0  0  0  0  0
   23.6880    0.7368   33.1389 C   0  0  0  0  0  0  0  0  0  0  0  0
   22.7486    1.0842   33.5800 H   0  0  0  0  0  0  0  0  0  0  0  0
   23.4945    0.3673   32.1264 H   0  0  0  0  0  0  0  0  0  0  0  0
   24.0606   -0.0976   33.7410 H   0  0  0  0  0  0  0  0  0  0  0  0
   23.1806    3.1368   31.7294 C   0  0  0  0  0  0  0  0  0  0  0  0
   22.3459    2.4905   31.9808 H   0  0  0  0  0  0  0  0  0  0  0  0
   22.9914    4.2404   30.8822 C   0  0  0  0  0  0  0  0  0  0  0  0
   21.6089    4.5211   30.3315 C   0  0  0  0  0  0  0  0  0  0  0  0
   21.0113    3.6070   30.3170 H   0  0  0  0  0  0  0  0  0  0  0  0
   21.6977    4.8764   29.3030 H   0  0  0  0  0  0  0  0  0  0  0  0
   20.8819    5.5945   31.1331 C   0  0  0  0  0  0  0  0  0  0  0  0
   19.6907    5.4952   31.3775 O   0  0  0  0  0  0  0  0  0  0  0  0
   21.5404    6.7639   31.3834 N   0  0  0  0  0  0  0  0  0  0  0  0
   22.4288    6.8953   30.9258 H   0  0  0  0  0  0  0  0  0  0  0  0
   20.9653    7.9302   31.7477 C   0  0  0  0  0  0  0  0  0  0  0  0
   21.7306    8.9427   31.3585 N   0  0  0  0  0  0  0  0  0  0  0  0
   21.4478   10.2369   31.6729 C   0  0  0  0  0  0  0  0  0  0  0  0
   22.6030   11.6616   31.1475 S   0  0  0  0  0  0  0  0  0  0  0  0
   22.5651   12.8281   32.0627 O   0  0  0  0  0  0  0  0  0  0  0  0
   24.0062   11.2492   30.9234 O   0  0  0  0  0  0  0  0  0  0  0  0
   21.9799   12.2638   29.5466 C   0  0  0  0  0  0  0  0  0  0  0  0
   22.6869   13.0030   29.1564 H   0  0  0  0  0  0  0  0  0  0  0  0
   21.9409   11.4311   28.8410 H   0  0  0  0  0  0  0  0  0  0  0  0
   20.5979   12.8983   29.7132 C   0  0  0  0  0  0  0  0  0  0  0  0
   20.1989   13.2278   28.7459 H   0  0  0  0  0  0  0  0  0  0  0  0
   20.6441   13.7627   30.3836 H   0  0  0  0  0  0  0  0  0  0  0  0
   19.9120   12.1745   30.1556 H   0  0  0  0  0  0  0  0  0  0  0  0
   20.2878   10.4554   32.4534 C   0  0  0  0  0  0  0  0  0  0  0  0
   19.9277   11.7696   32.8788 C   0  0  0  0  0  0  0  0  0  0  0  0
   19.6550   12.8482   33.2149 N   0  0  0  0  0  0  0  0  0  0  0  0
   19.4998    9.3686   32.8501 C   0  0  0  0  0  0  0  0  0  0  0  0
   18.4016    9.4858   33.6560 N   0  0  0  0  0  0  0  0  0  0  0  0
   18.1109   10.4057   33.9726 H   0  0  0  0  0  0  0  0  0  0  0  0
   17.8780    8.6523   33.9322 H   0  0  0  0  0  0  0  0  0  0  0  0
   19.8184    8.0973   32.4748 C   0  0  0  0  0  0  0  0  0  0  0  0
   19.2173    7.2623   32.7928 H   0  0  0  0  0  0  0  0  0  0  0  0
   24.0769    5.0849   30.5673 C   0  0  0  0  0  0  0  0  0  0  0  0
   23.8517    6.1772   29.7556 O   0  0  0  0  0  0  0  0  0  0  0  0
   24.9295    7.1133   29.5913 C   0  0  0  0  0  0  0  0  0  0  0  0
   25.2645    7.4980   30.5607 H   0  0  0  0  0  0  0  0  0  0  0  0
   24.5881    7.9605   28.9896 H   0  0  0  0  0  0  0  0  0  0  0  0
   25.7789    6.6516   29.0765 H   0  0  0  0  0  0  0  0  0  0  0  0
  1  2  1  0
  2  3  2  0
  3  4  1  0
  3  5  1  0
  5  6  1  0
  6  7  1  0
  7  8  1  0
  7  9  1  0
  7 10  1  0
  5 11  2  0
 11 12  1  0
 11 13  1  0
 13 14  1  0
 14 15  1  0
 14 16  1  0
 14 17  1  0
 17 18  2  0
 17 19  1  0
 19 20  1  0
 19 21  1  0
 21 22  2  0
 22 23  1  0
 23 24  1  0
 24 25  2  0
 24 26  2  0
 24 27  1  0
 27 28  1  0
 27 29  1  0
 27 30  1  0
 30 31  1  0
 30 32  1  0
 30 33  1  0
 23 34  2  0
 34 35  1  0
 35 36  3  0
 34 37  1  0
 37 38  1  0
 38 39  1  0
 38 40  1  0
 37 41  2  0
 41 42  1  0
 13 43  2  0
 43 44  1  0
 44 45  1  0
 45 46  1  0
 45 47  1  0
 45 48  1  0
 43  2  1  0
 41 21  1  0
M  END
>  <score>  (58) 
7.25733

$$$$

     RDKit          3D

 39 40  0  0  0  0  0  0  0  0999 V2000
   26.1865    5.4136   30.8476 H   0  0  0  0  0  0  0  0  0  0  0  0
   25.3418    4.7827   31.1013 C   0  0  0  0  0  0  0  0  0  0  0  0
   25.5254    3.6787   31.9447 C   0  0  0  0  0  0  0  0  0  0  0  0
   27.2734    3.3116   32.6363 Br  0  0  0  0  0  0  0  0  0  0  0  0
   24.4422    2.8466   32.2724 C   0  0  0  0  0  0  0  0  0  0  0  0
   24.6660    1.7846   33.1197 O   0  0  0  0  0  0  0  0  0  0  0  0
   23.6881    0.7347   33.1397 C   0  0  0  0  0  0  0  0  0  0  0  0
   22.7481    1.0810   33.5811 H   0  0  0  0  0  0  0  0  0  0  0  0
   23.4944    0.3646   32.1274 H   0  0  0  0  0  0  0  0  0  0  0  0
   24.0650   -0.0983   33.7426 H   0  0  0  0  0  0  0  0  0  0  0  0
   23.1795    3.1408   31.7323 C   0  0  0  0  0  0  0  0  0  0  0  0
   22.3416    2.4969   31.9810 H   0  0  0  0  0  0  0  0  0  0  0  0
   22.9934    4.2450   30.8848 C   0  0  0  0  0  0  0  0  0  0  0  0
   21.6147    4.5372   30.3315 C   0  0  0  0  0  0  0  0  0  0  0  0
   21.7094    4.8830   29.2986 H   0  0  0  0  0  0  0  0  0  0  0  0
   21.0008    3.6315   30.3330 H   0  0  0  0  0  0  0  0  0  0  0  0
   20.9163    5.6353   31.1240 C   0  0  0  0  0  0  0  0  0  0  0  0
   19.7263    5.5449   31.3858 O   0  0  0  0  0  0  0  0  0  0  0  0
   21.5801    6.8006   31.3553 N   0  0  0  0  0  0  0  0  0  0  0  0
   22.4744    6.9359   30.9035 H   0  0  0  0  0  0  0  0  0  0  0  0
   20.9884    7.9428   31.7365 C   0  0  0  0  0  0  0  0  0  0  0  0
   21.7039    8.9694   31.3419 N   0  0  0  0  0  0  0  0  0  0  0  0
   21.3194   10.1885   31.7220 C   0  0  0  0  0  0  0  0  0  0  0  0
   22.3104   11.5602   31.2634 Cl  0  0  0  0  0  0  0  0  0  0  0  0
   20.2006   10.3927   32.4996 C   0  0  0  0  0  0  0  0  0  0  0  0
   19.8666   11.7192   32.9043 C   0  0  0  0  0  0  0  0  0  0  0  0
   19.6704   12.8203   33.2245 N   0  0  0  0  0  0  0  0  0  0  0  0
   19.4847    9.2860   32.8673 C   0  0  0  0  0  0  0  0  0  0  0  0
   18.4517    9.3457   33.7129 N   0  0  0  0  0  0  0  0  0  0  0  0
   17.5680    9.3097   33.2166 H   0  0  0  0  0  0  0  0  0  0  0  0
   18.5462    8.6418   34.4396 H   0  0  0  0  0  0  0  0  0  0  0  0
   19.8464    8.0388   32.4758 C   0  0  0  0  0  0  0  0  0  0  0  0
   19.2615    7.1740   32.7393 H   0  0  0  0  0  0  0  0  0  0  0  0
   24.0799    5.0877   30.5705 C   0  0  0  0  0  0  0  0  0  0  0  0
   23.8561    6.1789   29.7566 O   0  0  0  0  0  0  0  0  0  0  0  0
   24.9313    7.1161   29.5886 C   0  0  0  0  0  0  0  0  0  0  0  0
   24.5858    7.9620   28.9857 H   0  0  0  0  0  0  0  0  0  0  0  0
   25.7807    6.6534   29.0748 H   0  0  0  0  0  0  0  0  0  0  0  0
   25.2667    7.5005   30.5578 H   0  0  0  0  0  0  0  0  0  0  0  0
  1  2  1  0
  2  3  2  0
  3  4  1  0
  3  5  1  0
  5  6  1  0
  6  7  1  0
  7  8  1  0
  7  9  1  0
  7 10  1  0
  5 11  2  0
 11 12  1  0
 11 13  1  0
 13 14  1  0
 14 15  1  0
 14 16  1  0
 14 17  1  0
 17 18  2  0
 17 19  1  0
 19 20  1  0
 19 21  1  0
 21 22  2  0
 22 23  1  0
 23 24  1  0
 23 25  2  0
 25 26  1  0
 26 27  3  0
 25 28  1  0
 28 29  1  0
 29 30  1  0
 29 31  1  0
 28 32  2  0
 32 33  1  0
 13 34  2  0
 34 35  1  0
 35 36  1  0
 36 37  1  0
 36 38  1  0
 36 39  1  0
 34  2  1  0
 32 21  1  0
M  END
>  <score>  (59) 
7.25892

$$$$

     RDKit          3D

 43 44  0  0  0  0  0  0  0  0999 V2000
   20.4449   12.6437   29.9927 H   0  0  0  0  0  0  0  0  0  0  0  0
   21.6576   12.1383   29.6731 S   0  0  0  0  0  0  0  0  0  0  0  0
   22.2181   11.3357   31.2491 C   0  0  0  0  0  0  0  0  0  0  0  0
   22.2582   12.0882   32.0423 H   0  0  0  0  0  0  0  0  0  0  0  0
   23.2238   10.9353   31.1131 H   0  0  0  0  0  0  0  0  0  0  0  0
   21.3512   10.1904   31.6996 C   0  0  0  0  0  0  0  0  0  0  0  0
   21.7393    8.9600   31.3606 N   0  0  0  0  0  0  0  0  0  0  0  0
   21.0166    7.9386   31.7533 C   0  0  0  0  0  0  0  0  0  0  0  0
   21.5916    6.7914   31.3621 N   0  0  0  0  0  0  0  0  0  0  0  0
   22.4775    6.9237   30.9015 H   0  0  0  0  0  0  0  0  0  0  0  0
   20.9174    5.6341   31.1258 C   0  0  0  0  0  0  0  0  0  0  0  0
   19.7269    5.5478   31.3891 O   0  0  0  0  0  0  0  0  0  0  0  0
   21.6126    4.5365   30.3320 C   0  0  0  0  0  0  0  0  0  0  0  0
   21.0003    3.6312   30.3340 H   0  0  0  0  0  0  0  0  0  0  0  0
   21.7067    4.8816   29.2994 H   0  0  0  0  0  0  0  0  0  0  0  0
   22.9919    4.2442   30.8838 C   0  0  0  0  0  0  0  0  0  0  0  0
   23.1793    3.1403   31.7317 C   0  0  0  0  0  0  0  0  0  0  0  0
   22.3422    2.4957   31.9812 H   0  0  0  0  0  0  0  0  0  0  0  0
   24.4424    2.8464   32.2724 C   0  0  0  0  0  0  0  0  0  0  0  0
   24.6665    1.7842   33.1194 O   0  0  0  0  0  0  0  0  0  0  0  0
   23.6874    0.7357   33.1389 C   0  0  0  0  0  0  0  0  0  0  0  0
   22.7480    1.0831   33.5798 H   0  0  0  0  0  0  0  0  0  0  0  0
   24.0629   -0.0976   33.7416 H   0  0  0  0  0  0  0  0  0  0  0  0
   23.4937    0.3663   32.1267 H   0  0  0  0  0  0  0  0  0  0  0  0
   25.5251    3.6797   31.9450 C   0  0  0  0  0  0  0  0  0  0  0  0
   27.2737    3.3145   32.6365 Br  0  0  0  0  0  0  0  0  0  0  0  0
   25.3406    4.7833   31.1014 C   0  0  0  0  0  0  0  0  0  0  0  0
   26.1850    5.4151   30.8477 H   0  0  0  0  0  0  0  0  0  0  0  0
   24.0785    5.0873   30.5700 C   0  0  0  0  0  0  0  0  0  0  0  0
   23.8554    6.1790   29.7572 O   0  0  0  0  0  0  0  0  0  0  0  0
   24.9313    7.1152   29.5891 C   0  0  0  0  0  0  0  0  0  0  0  0
   25.7796    6.6515   29.0755 H   0  0  0  0  0  0  0  0  0  0  0  0
   24.5869    7.9614   28.9865 H   0  0  0  0  0  0  0  0  0  0  0  0
   25.2669    7.4984   30.5581 H   0  0  0  0  0  0  0  0  0  0  0  0
   19.8679    8.0483   32.4755 C   0  0  0  0  0  0  0  0  0  0  0  0
   19.2669    7.1923   32.7341 H   0  0  0  0  0  0  0  0  0  0  0  0
   19.5195    9.3004   32.8716 C   0  0  0  0  0  0  0  0  0  0  0  0
   18.4718    9.3599   33.7102 N   0  0  0  0  0  0  0  0  0  0  0  0
   18.5479    8.6375   34.4238 H   0  0  0  0  0  0  0  0  0  0  0  0
   17.5879    9.3458   33.2125 H   0  0  0  0  0  0  0  0  0  0  0  0
   20.2370   10.4056   32.4870 C   0  0  0  0  0  0  0  0  0  0  0  0
   19.8909   11.7288   32.8949 C   0  0  0  0  0  0  0  0  0  0  0  0
   19.6688   12.8230   33.2162 N   0  0  0  0  0  0  0  0  0  0  0  0
  1  2  1  0
  2  3  1  0
  3  4  1  0
  3  5  1  0
  3  6  1  0
  6  7  2  0
  7  8  1  0
  8  9  1  0
  9 10  1  0
  9 11  1  0
 11 12  2  0
 11 13  1  0
 13 14  1  0
 13 15  1  0
 13 16  1  0
 16 17  2  0
 17 18  1  0
 17 19  1  0
 19 20  1  0
 20 21  1  0
 21 22  1  0
 21 23  1  0
 21 24  1  0
 19 25  2  0
 25 26  1  0
 25 27  1  0
 27 28  1  0
 27 29  2  0
 29 30  1  0
 30 31  1  0
 31 32  1  0
 31 33  1  0
 31 34  1  0
  8 35  2  0
 35 36  1  0
 35 37  1  0
 37 38  1  0
 38 39  1  0
 38 40  1  0
 37 41  2  0
 41 42  1  0
 42 43  3  0
 41  6  1  0
 29 16  1  0
M  END
>  <score>  (60) 
7.259

$$$$

     RDKit          3D

 39 40  0  0  0  0  0  0  0  0999 V2000
   26.1870    5.4120   30.8473 H   0  0  0  0  0  0  0  0  0  0  0  0
   25.3405    4.7832   31.1009 C   0  0  0  0  0  0  0  0  0  0  0  0
   25.5240    3.6788   31.9438 C   0  0  0  0  0  0  0  0  0  0  0  0
   27.2728    3.3124   32.6359 Br  0  0  0  0  0  0  0  0  0  0  0  0
   24.4400    2.8477   32.2706 C   0  0  0  0  0  0  0  0  0  0  0  0
   24.6652    1.7847   33.1172 O   0  0  0  0  0  0  0  0  0  0  0  0
   23.6877    0.7352   33.1391 C   0  0  0  0  0  0  0  0  0  0  0  0
   22.7485    1.0817   33.5811 H   0  0  0  0  0  0  0  0  0  0  0  0
   23.4941    0.3647   32.1274 H   0  0  0  0  0  0  0  0  0  0  0  0
   24.0645   -0.0974   33.7422 H   0  0  0  0  0  0  0  0  0  0  0  0
   23.1758    3.1473   31.7339 C   0  0  0  0  0  0  0  0  0  0  0  0
   22.3401    2.5005   31.9806 H   0  0  0  0  0  0  0  0  0  0  0  0
   22.9856    4.2591   30.8939 C   0  0  0  0  0  0  0  0  0  0  0  0
   21.6029    4.5608   30.3462 C   0  0  0  0  0  0  0  0  0  0  0  0
   21.7013    4.9014   29.3114 H   0  0  0  0  0  0  0  0  0  0  0  0
   20.9970    3.6497   30.3405 H   0  0  0  0  0  0  0  0  0  0  0  0
   20.8904    5.6596   31.1425 C   0  0  0  0  0  0  0  0  0  0  0  0
   19.7020    5.5504   31.4073 O   0  0  0  0  0  0  0  0  0  0  0  0
   21.5483    6.8252   31.4054 N   0  0  0  0  0  0  0  0  0  0  0  0
   22.4286    6.9613   30.9287 H   0  0  0  0  0  0  0  0  0  0  0  0
   20.9745    7.9890   31.7876 C   0  0  0  0  0  0  0  0  0  0  0  0
   21.7548    8.9839   31.4230 N   0  0  0  0  0  0  0  0  0  0  0  0
   21.4044   10.2327   31.7325 C   0  0  0  0  0  0  0  0  0  0  0  0
   22.5323   11.6573   31.1241 Br  0  0  0  0  0  0  0  0  0  0  0  0
   20.2670   10.5024   32.4706 C   0  0  0  0  0  0  0  0  0  0  0  0
   19.9603   11.8354   32.8740 C   0  0  0  0  0  0  0  0  0  0  0  0
   19.7400   12.9378   33.1744 N   0  0  0  0  0  0  0  0  0  0  0  0
   19.4803    9.4373   32.8302 C   0  0  0  0  0  0  0  0  0  0  0  0
   18.3654    9.6505   33.5612 N   0  0  0  0  0  0  0  0  0  0  0  0
   17.8539   10.4616   33.2221 H   0  0  0  0  0  0  0  0  0  0  0  0
   18.5545    9.6710   34.5600 H   0  0  0  0  0  0  0  0  0  0  0  0
   19.8103    8.1596   32.4947 C   0  0  0  0  0  0  0  0  0  0  0  0
   19.1963    7.3428   32.8350 H   0  0  0  0  0  0  0  0  0  0  0  0
   24.0773    5.0927   30.5740 C   0  0  0  0  0  0  0  0  0  0  0  0
   23.8567    6.1809   29.7562 O   0  0  0  0  0  0  0  0  0  0  0  0
   24.9321    7.1166   29.5886 C   0  0  0  0  0  0  0  0  0  0  0  0
   24.5863    7.9620   28.9858 H   0  0  0  0  0  0  0  0  0  0  0  0
   25.7805    6.6533   29.0746 H   0  0  0  0  0  0  0  0  0  0  0  0
   25.2667    7.5005   30.5577 H   0  0  0  0  0  0  0  0  0  0  0  0
  1  2  1  0
  2  3  2  0
  3  4  1  0
  3  5  1  0
  5  6  1  0
  6  7  1  0
  7  8  1  0
  7  9  1  0
  7 10  1  0
  5 11  2  0
 11 12  1  0
 11 13  1  0
 13 14  1  0
 14 15  1  0
 14 16  1  0
 14 17  1  0
 17 18  2  0
 17 19  1  0
 19 20  1  0
 19 21  1  0
 21 22  2  0
 22 23  1  0
 23 24  1  0
 23 25  2  0
 25 26  1  0
 26 27  3  0
 25 28  1  0
 28 29  1  0
 29 30  1  0
 29 31  1  0
 28 32  2  0
 32 33  1  0
 13 34  2  0
 34 35  1  0
 35 36  1  0
 36 37  1  0
 36 38  1  0
 36 39  1  0
 34  2  1  0
 32 21  1  0
M  END
>  <score>  (61) 
7.26006

$$$$

     RDKit          3D

 49 50  0  0  0  0  0  0  0  0999 V2000
   26.1556    5.4335   30.8433 H   0  0  0  0  0  0  0  0  0  0  0  0
   25.3120    4.8029   31.0986 C   0  0  0  0  0  0  0  0  0  0  0  0
   25.5079    3.7049   31.9391 C   0  0  0  0  0  0  0  0  0  0  0  0
   27.2600    3.3580   32.6312 Br  0  0  0  0  0  0  0  0  0  0  0  0
   24.4299    2.8648   32.2636 C   0  0  0  0  0  0  0  0  0  0  0  0
   24.6620    1.7951   33.0978 O   0  0  0  0  0  0  0  0  0  0  0  0
   23.6738    0.7529   33.1233 C   0  0  0  0  0  0  0  0  0  0  0  0
   24.0384   -0.0861   33.7286 H   0  0  0  0  0  0  0  0  0  0  0  0
   23.4767    0.3856   32.1099 H   0  0  0  0  0  0  0  0  0  0  0  0
   22.7371    1.1147   33.5610 H   0  0  0  0  0  0  0  0  0  0  0  0
   23.1614    3.1531   31.7279 C   0  0  0  0  0  0  0  0  0  0  0  0
   22.3296    2.4983   31.9739 H   0  0  0  0  0  0  0  0  0  0  0  0
   22.9634    4.2600   30.8860 C   0  0  0  0  0  0  0  0  0  0  0  0
   21.5907    4.5534   30.3202 C   0  0  0  0  0  0  0  0  0  0  0  0
   21.6849    4.8373   29.2662 H   0  0  0  0  0  0  0  0  0  0  0  0
   20.9466    3.6764   30.3829 H   0  0  0  0  0  0  0  0  0  0  0  0
   20.9260    5.6934   31.0749 C   0  0  0  0  0  0  0  0  0  0  0  0
   19.8723    5.5244   31.6672 O   0  0  0  0  0  0  0  0  0  0  0  0
   21.4682    6.9354   30.9825 N   0  0  0  0  0  0  0  0  0  0  0  0
   22.3372    7.0613   30.4883 H   0  0  0  0  0  0  0  0  0  0  0  0
   20.9697    8.0481   31.5391 C   0  0  0  0  0  0  0  0  0  0  0  0
   21.7073    9.0658   31.1963 N   0  0  0  0  0  0  0  0  0  0  0  0
   21.3677   10.2630   31.6675 C   0  0  0  0  0  0  0  0  0  0  0  0
   22.1212   11.3534   31.3467 O   0  0  0  0  0  0  0  0  0  0  0  0
   23.2711   11.1063   30.5323 C   0  0  0  0  0  0  0  0  0  0  0  0
   22.9694   10.6391   29.5874 H   0  0  0  0  0  0  0  0  0  0  0  0
   23.9674   10.4261   31.0387 H   0  0  0  0  0  0  0  0  0  0  0  0
   23.9462   12.4421   30.2481 C   0  0  0  0  0  0  0  0  0  0  0  0
   23.2144   13.1241   29.8018 H   0  0  0  0  0  0  0  0  0  0  0  0
   24.7472   12.2803   29.5197 H   0  0  0  0  0  0  0  0  0  0  0  0
   24.5241   13.0683   31.5212 C   0  0  0  0  0  0  0  0  0  0  0  0
   25.1861   12.3558   32.0234 H   0  0  0  0  0  0  0  0  0  0  0  0
   23.7202   13.3771   32.2063 H   0  0  0  0  0  0  0  0  0  0  0  0
   25.1156   13.9426   31.2546 H   0  0  0  0  0  0  0  0  0  0  0  0
   20.2825   10.4534   32.4868 C   0  0  0  0  0  0  0  0  0  0  0  0
   19.9511   11.7670   32.9264 C   0  0  0  0  0  0  0  0  0  0  0  0
   19.6959   12.8566   33.2353 N   0  0  0  0  0  0  0  0  0  0  0  0
   19.5629    9.3565   32.8488 C   0  0  0  0  0  0  0  0  0  0  0  0
   18.5319    9.4667   33.7095 N   0  0  0  0  0  0  0  0  0  0  0  0
   17.9475    8.6478   33.8649 H   0  0  0  0  0  0  0  0  0  0  0  0
   18.1784   10.4013   33.8996 H   0  0  0  0  0  0  0  0  0  0  0  0
   19.8858    8.1284   32.3728 C   0  0  0  0  0  0  0  0  0  0  0  0
   19.3171    7.2642   32.6606 H   0  0  0  0  0  0  0  0  0  0  0  0
   24.0486    5.1033   30.5702 C   0  0  0  0  0  0  0  0  0  0  0  0
   23.8358    6.1891   29.7488 O   0  0  0  0  0  0  0  0  0  0  0  0
   24.9313    7.1058   29.5941 C   0  0  0  0  0  0  0  0  0  0  0  0
   25.7771    6.6237   29.0900 H   0  0  0  0  0  0  0  0  0  0  0  0
   24.6122    7.9630   28.9921 H   0  0  0  0  0  0  0  0  0  0  0  0
   25.2641    7.4725   30.5719 H   0  0  0  0  0  0  0  0  0  0  0  0
  1  2  1  0
  2  3  2  0
  3  4  1  0
  3  5  1  0
  5  6  1  0
  6  7  1  0
  7  8  1  0
  7  9  1  0
  7 10  1  0
  5 11  2  0
 11 12  1  0
 11 13  1  0
 13 14  1  0
 14 15  1  0
 14 16  1  0
 14 17  1  0
 17 18  2  0
 17 19  1  0
 19 20  1  0
 19 21  1  0
 21 22  2  0
 22 23  1  0
 23 24  1  0
 24 25  1  0
 25 26  1  0
 25 27  1  0
 25 28  1  0
 28 29  1  0
 28 30  1  0
 28 31  1  0
 31 32  1  0
 31 33  1  0
 31 34  1  0
 23 35  2  0
 35 36  1  0
 36 37  3  0
 35 38  1  0
 38 39  1  0
 39 40  1  0
 39 41  1  0
 38 42  2  0
 42 43  1  0
 13 44  2  0
 44 45  1  0
 45 46  1  0
 46 47  1  0
 46 48  1  0
 46 49  1  0
 44  2  1  0
 42 21  1  0
M  END
>  <score>  (62) 
7.26885

$$$$

     RDKit          3D

 47 48  0  0  0  0  0  0  0  0999 V2000
   22.0584   11.9017   26.9967 H   0  0  0  0  0  0  0  0  0  0  0  0
   21.4089   11.9847   27.7386 O   0  0  0  0  0  0  0  0  0  0  0  0
   21.8789   11.4433   28.9862 N   0  0  0  0  0  0  0  0  0  0  0  0
   22.3102   10.5232   29.0034 H   0  0  0  0  0  0  0  0  0  0  0  0
   21.5953   11.9569   30.2376 C   0  0  0  0  0  0  0  0  0  0  0  0
   20.8859   12.9346   30.4147 O   0  0  0  0  0  0  0  0  0  0  0  0
   22.2647   11.3434   31.4277 C   0  0  0  0  0  0  0  0  0  0  0  0
   23.2790   11.0109   31.1957 H   0  0  0  0  0  0  0  0  0  0  0  0
   22.2919   12.0568   32.2476 H   0  0  0  0  0  0  0  0  0  0  0  0
   21.4014   10.2103   31.7612 C   0  0  0  0  0  0  0  0  0  0  0  0
   21.7925    9.0288   31.2972 N   0  0  0  0  0  0  0  0  0  0  0  0
   21.0365    7.9854   31.5844 C   0  0  0  0  0  0  0  0  0  0  0  0
   21.5739    6.8316   31.1433 N   0  0  0  0  0  0  0  0  0  0  0  0
   22.4921    6.9121   30.7430 H   0  0  0  0  0  0  0  0  0  0  0  0
   20.9257    5.6319   31.0687 C   0  0  0  0  0  0  0  0  0  0  0  0
   19.7826    5.5307   31.4810 O   0  0  0  0  0  0  0  0  0  0  0  0
   21.5843    4.4695   30.3347 C   0  0  0  0  0  0  0  0  0  0  0  0
   21.6288    4.6901   29.2625 H   0  0  0  0  0  0  0  0  0  0  0  0
   20.9723    3.5724   30.4699 H   0  0  0  0  0  0  0  0  0  0  0  0
   22.9764    4.2282   30.8689 C   0  0  0  0  0  0  0  0  0  0  0  0
   23.1885    3.1260   31.7046 C   0  0  0  0  0  0  0  0  0  0  0  0
   22.3620    2.4627   31.9409 H   0  0  0  0  0  0  0  0  0  0  0  0
   24.4521    2.8534   32.2507 C   0  0  0  0  0  0  0  0  0  0  0  0
   24.6730    1.7681   33.0665 O   0  0  0  0  0  0  0  0  0  0  0  0
   23.6324    0.7802   33.0920 C   0  0  0  0  0  0  0  0  0  0  0  0
   23.9447   -0.0714   33.7033 H   0  0  0  0  0  0  0  0  0  0  0  0
   23.4223    0.4233   32.0779 H   0  0  0  0  0  0  0  0  0  0  0  0
   22.7142    1.1973   33.5185 H   0  0  0  0  0  0  0  0  0  0  0  0
   25.5141    3.7224   31.9542 C   0  0  0  0  0  0  0  0  0  0  0  0
   27.2608    3.4306   32.6779 Br  0  0  0  0  0  0  0  0  0  0  0  0
   25.3021    4.8312   31.1303 C   0  0  0  0  0  0  0  0  0  0  0  0
   26.1279    5.4963   30.9052 H   0  0  0  0  0  0  0  0  0  0  0  0
   24.0397    5.1093   30.5865 C   0  0  0  0  0  0  0  0  0  0  0  0
   23.8147    6.2223   29.8056 O   0  0  0  0  0  0  0  0  0  0  0  0
   24.9406    7.0916   29.6131 C   0  0  0  0  0  0  0  0  0  0  0  0
   25.3051    7.4592   30.5777 H   0  0  0  0  0  0  0  0  0  0  0  0
   25.7540    6.5572   29.1118 H   0  0  0  0  0  0  0  0  0  0  0  0
   24.6550    7.9493   28.9975 H   0  0  0  0  0  0  0  0  0  0  0  0
   19.8723    8.0602   32.3000 C   0  0  0  0  0  0  0  0  0  0  0  0
   19.2802    7.1947   32.5411 H   0  0  0  0  0  0  0  0  0  0  0  0
   19.4781    9.2820   32.7319 C   0  0  0  0  0  0  0  0  0  0  0  0
   18.3312    9.3437   33.4428 N   0  0  0  0  0  0  0  0  0  0  0  0
   17.9601    8.4404   33.7281 H   0  0  0  0  0  0  0  0  0  0  0  0
   18.2954   10.1048   34.1122 H   0  0  0  0  0  0  0  0  0  0  0  0
   20.2360   10.3951   32.4865 C   0  0  0  0  0  0  0  0  0  0  0  0
   19.8150   11.6842   32.9350 C   0  0  0  0  0  0  0  0  0  0  0  0
   19.4710   12.7306   33.3097 N   0  0  0  0  0  0  0  0  0  0  0  0
  1  2  1  0
  2  3  1  0
  3  4  1  0
  3  5  1  0
  5  6  2  0
  5  7  1  0
  7  8  1  0
  7  9  1  0
  7 10  1  0
 10 11  2  0
 11 12  1  0
 12 13  1  0
 13 14  1  0
 13 15  1  0
 15 16  2  0
 15 17  1  0
 17 18  1  0
 17 19  1  0
 17 20  1  0
 20 21  2  0
 21 22  1  0
 21 23  1  0
 23 24  1  0
 24 25  1  0
 25 26  1  0
 25 27  1  0
 25 28  1  0
 23 29  2  0
 29 30  1  0
 29 31  1  0
 31 32  1  0
 31 33  2  0
 33 34  1  0
 34 35  1  0
 35 36  1  0
 35 37  1  0
 35 38  1  0
 12 39  2  0
 39 40  1  0
 39 41  1  0
 41 42  1  0
 42 43  1  0
 42 44  1  0
 41 45  2  0
 45 46  1  0
 46 47  3  0
 45 10  1  0
 33 20  1  0
M  END
>  <score>  (63) 
7.26929

$$$$

     RDKit          3D

 47 48  0  0  0  0  0  0  0  0999 V2000
   26.1698    5.4268   30.8505 H   0  0  0  0  0  0  0  0  0  0  0  0
   25.3292    4.7908   31.1018 C   0  0  0  0  0  0  0  0  0  0  0  0
   25.5229    3.6903   31.9446 C   0  0  0  0  0  0  0  0  0  0  0  0
   27.2746    3.3465   32.6377 Br  0  0  0  0  0  0  0  0  0  0  0  0
   24.4453    2.8504   32.2690 C   0  0  0  0  0  0  0  0  0  0  0  0
   24.6715    1.7847   33.1109 O   0  0  0  0  0  0  0  0  0  0  0  0
   23.6804    0.7463   33.1299 C   0  0  0  0  0  0  0  0  0  0  0  0
   23.4844    0.3816   32.1163 H   0  0  0  0  0  0  0  0  0  0  0  0
   24.0408   -0.0940   33.7327 H   0  0  0  0  0  0  0  0  0  0  0  0
   22.7437    1.1068   33.5668 H   0  0  0  0  0  0  0  0  0  0  0  0
   23.1791    3.1378   31.7317 C   0  0  0  0  0  0  0  0  0  0  0  0
   22.3461    2.4888   31.9820 H   0  0  0  0  0  0  0  0  0  0  0  0
   22.9832    4.2455   30.8889 C   0  0  0  0  0  0  0  0  0  0  0  0
   21.5994    4.5453   30.3509 C   0  0  0  0  0  0  0  0  0  0  0  0
   21.6754    4.8876   29.3151 H   0  0  0  0  0  0  0  0  0  0  0  0
   20.9778    3.6486   30.3734 H   0  0  0  0  0  0  0  0  0  0  0  0
   20.9124    5.6460   31.1441 C   0  0  0  0  0  0  0  0  0  0  0  0
   19.7214    5.5794   31.3970 O   0  0  0  0  0  0  0  0  0  0  0  0
   21.6035    6.7952   31.3801 N   0  0  0  0  0  0  0  0  0  0  0  0
   22.4627    6.9290   30.8657 H   0  0  0  0  0  0  0  0  0  0  0  0
   21.0346    7.9505   31.7892 C   0  0  0  0  0  0  0  0  0  0  0  0
   21.7831    8.9611   31.4057 N   0  0  0  0  0  0  0  0  0  0  0  0
   21.3932   10.2144   31.6972 C   0  0  0  0  0  0  0  0  0  0  0  0
   22.2737   11.3924   31.2374 C   0  0  0  0  0  0  0  0  0  0  0  0
   23.2626   11.0074   30.9552 H   0  0  0  0  0  0  0  0  0  0  0  0
   22.4062   12.0439   32.1041 H   0  0  0  0  0  0  0  0  0  0  0  0
   21.7398   12.2353   30.1265 N   0  0  0  0  0  0  0  0  0  0  0  0
   22.2197   13.1368   30.0852 H   0  0  0  0  0  0  0  0  0  0  0  0
   21.7497   11.5869   28.8061 C   0  0  0  0  0  0  0  0  0  0  0  0
   22.7789   11.5042   28.4416 H   0  0  0  0  0  0  0  0  0  0  0  0
   21.3268   10.5777   28.8797 H   0  0  0  0  0  0  0  0  0  0  0  0
   21.1680   12.1751   28.0850 H   0  0  0  0  0  0  0  0  0  0  0  0
   20.2570   10.4309   32.4770 C   0  0  0  0  0  0  0  0  0  0  0  0
   19.9087   11.7522   32.8869 C   0  0  0  0  0  0  0  0  0  0  0  0
   19.6791   12.8356   33.2382 N   0  0  0  0  0  0  0  0  0  0  0  0
   19.5115    9.3435   32.8690 C   0  0  0  0  0  0  0  0  0  0  0  0
   18.4235    9.4728   33.6622 N   0  0  0  0  0  0  0  0  0  0  0  0
   17.8779    8.6494   33.9104 H   0  0  0  0  0  0  0  0  0  0  0  0
   18.1269   10.4076   33.9312 H   0  0  0  0  0  0  0  0  0  0  0  0
   19.8684    8.0871   32.4885 C   0  0  0  0  0  0  0  0  0  0  0  0
   19.2614    7.2416   32.7557 H   0  0  0  0  0  0  0  0  0  0  0  0
   24.0657    5.0893   30.5727 C   0  0  0  0  0  0  0  0  0  0  0  0
   23.8427    6.1821   29.7610 O   0  0  0  0  0  0  0  0  0  0  0  0
   24.9315    7.1042   29.5965 C   0  0  0  0  0  0  0  0  0  0  0  0
   25.7757    6.6278   29.0867 H   0  0  0  0  0  0  0  0  0  0  0  0
   24.6038    7.9563   28.9937 H   0  0  0  0  0  0  0  0  0  0  0  0
   25.2692    7.4804   30.5681 H   0  0  0  0  0  0  0  0  0  0  0  0
  1  2  1  0
  2  3  2  0
  3  4  1  0
  3  5  1  0
  5  6  1  0
  6  7  1  0
  7  8  1  0
  7  9  1  0
  7 10  1  0
  5 11  2  0
 11 12  1  0
 11 13  1  0
 13 14  1  0
 14 15  1  0
 14 16  1  0
 14 17  1  0
 17 18  2  0
 17 19  1  0
 19 20  1  0
 19 21  1  0
 21 22  2  0
 22 23  1  0
 23 24  1  0
 24 25  1  0
 24 26  1  0
 24 27  1  0
 27 28  1  0
 27 29  1  0
 29 30  1  0
 29 31  1  0
 29 32  1  0
 23 33  2  0
 33 34  1  0
 34 35  3  0
 33 36  1  0
 36 37  1  0
 37 38  1  0
 37 39  1  0
 36 40  2  0
 40 41  1  0
 13 42  2  0
 42 43  1  0
 43 44  1  0
 44 45  1  0
 44 46  1  0
 44 47  1  0
 42  2  1  0
 40 21  1  0
M  END
>  <score>  (64) 
7.27095

$$$$

     RDKit          3D

 51 52  0  0  0  0  0  0  0  0999 V2000
   25.0071   11.9912   28.1135 H   0  0  0  0  0  0  0  0  0  0  0  0
   24.1421   12.2434   28.4706 O   0  0  0  0  0  0  0  0  0  0  0  0
   23.3147   11.0820   28.5401 C   0  0  0  0  0  0  0  0  0  0  0  0
   23.7057   10.3715   29.2802 H   0  0  0  0  0  0  0  0  0  0  0  0
   23.2893   10.5777   27.5665 H   0  0  0  0  0  0  0  0  0  0  0  0
   21.9013   11.4988   28.9080 C   0  0  0  0  0  0  0  0  0  0  0  0
   21.2698   10.6084   28.9147 H   0  0  0  0  0  0  0  0  0  0  0  0
   21.5160   12.1798   28.1450 H   0  0  0  0  0  0  0  0  0  0  0  0
   21.8204   12.1929   30.2640 C   0  0  0  0  0  0  0  0  0  0  0  0
   22.4888   13.0596   30.3038 H   0  0  0  0  0  0  0  0  0  0  0  0
   20.8012   12.5648   30.4261 H   0  0  0  0  0  0  0  0  0  0  0  0
   22.2126   11.2279   31.2922 N   0  0  0  0  0  0  0  0  0  0  0  0
   23.0650   10.7292   31.0625 H   0  0  0  0  0  0  0  0  0  0  0  0
   21.3145   10.2847   31.6475 C   0  0  0  0  0  0  0  0  0  0  0  0
   21.7089    9.1206   31.1939 N   0  0  0  0  0  0  0  0  0  0  0  0
   20.9825    8.0897   31.5341 C   0  0  0  0  0  0  0  0  0  0  0  0
   21.4995    6.9740   30.9868 N   0  0  0  0  0  0  0  0  0  0  0  0
   22.3718    7.0900   30.4930 H   0  0  0  0  0  0  0  0  0  0  0  0
   20.9433    5.7338   31.0728 C   0  0  0  0  0  0  0  0  0  0  0  0
   19.8962    5.5738   31.6756 O   0  0  0  0  0  0  0  0  0  0  0  0
   21.5916    4.5775   30.3264 C   0  0  0  0  0  0  0  0  0  0  0  0
   21.6878    4.8495   29.2683 H   0  0  0  0  0  0  0  0  0  0  0  0
   20.9371    3.7043   30.3965 H   0  0  0  0  0  0  0  0  0  0  0  0
   22.9645    4.2687   30.8892 C   0  0  0  0  0  0  0  0  0  0  0  0
   23.1604    3.1570   31.7286 C   0  0  0  0  0  0  0  0  0  0  0  0
   22.3331    2.4983   31.9762 H   0  0  0  0  0  0  0  0  0  0  0  0
   24.4291    2.8645   32.2640 C   0  0  0  0  0  0  0  0  0  0  0  0
   24.6627    1.7958   33.0992 O   0  0  0  0  0  0  0  0  0  0  0  0
   23.6746    0.7530   33.1238 C   0  0  0  0  0  0  0  0  0  0  0  0
   22.7370    1.1122   33.5627 H   0  0  0  0  0  0  0  0  0  0  0  0
   24.0385   -0.0862   33.7286 H   0  0  0  0  0  0  0  0  0  0  0  0
   23.4784    0.3849   32.1102 H   0  0  0  0  0  0  0  0  0  0  0  0
   25.5090    3.7006   31.9378 C   0  0  0  0  0  0  0  0  0  0  0  0
   27.2593    3.3534   32.6324 Br  0  0  0  0  0  0  0  0  0  0  0  0
   25.3160    4.8009   31.0984 C   0  0  0  0  0  0  0  0  0  0  0  0
   26.1573    5.4332   30.8394 H   0  0  0  0  0  0  0  0  0  0  0  0
   24.0530    5.1041   30.5696 C   0  0  0  0  0  0  0  0  0  0  0  0
   23.8395    6.1854   29.7417 O   0  0  0  0  0  0  0  0  0  0  0  0
   24.9330    7.1053   29.5922 C   0  0  0  0  0  0  0  0  0  0  0  0
   25.2568    7.4789   30.5713 H   0  0  0  0  0  0  0  0  0  0  0  0
   25.7853    6.6270   29.0937 H   0  0  0  0  0  0  0  0  0  0  0  0
   24.6154    7.9590   28.9853 H   0  0  0  0  0  0  0  0  0  0  0  0
   19.8867    8.1528   32.3590 C   0  0  0  0  0  0  0  0  0  0  0  0
   19.3390    7.2766   32.6605 H   0  0  0  0  0  0  0  0  0  0  0  0
   19.5264    9.3839   32.8166 C   0  0  0  0  0  0  0  0  0  0  0  0
   18.5136    9.4758   33.7033 N   0  0  0  0  0  0  0  0  0  0  0  0
   17.9440    8.6498   33.8807 H   0  0  0  0  0  0  0  0  0  0  0  0
   18.1647   10.4071   33.9063 H   0  0  0  0  0  0  0  0  0  0  0  0
   20.2225   10.5000   32.4409 C   0  0  0  0  0  0  0  0  0  0  0  0
   19.9157   11.8191   32.8813 C   0  0  0  0  0  0  0  0  0  0  0  0
   19.6930   12.9097   33.2172 N   0  0  0  0  0  0  0  0  0  0  0  0
  1  2  1  0
  2  3  1  0
  3  4  1  0
  3  5  1  0
  3  6  1  0
  6  7  1  0
  6  8  1  0
  6  9  1  0
  9 10  1  0
  9 11  1  0
  9 12  1  0
 12 13  1  0
 12 14  1  0
 14 15  2  0
 15 16  1  0
 16 17  1  0
 17 18  1  0
 17 19  1  0
 19 20  2  0
 19 21  1  0
 21 22  1  0
 21 23  1  0
 21 24  1  0
 24 25  2  0
 25 26  1  0
 25 27  1  0
 27 28  1  0
 28 29  1  0
 29 30  1  0
 29 31  1  0
 29 32  1  0
 27 33  2  0
 33 34  1  0
 33 35  1  0
 35 36  1  0
 35 37  2  0
 37 38  1  0
 38 39  1  0
 39 40  1  0
 39 41  1  0
 39 42  1  0
 16 43  2  0
 43 44  1  0
 43 45  1  0
 45 46  1  0
 46 47  1  0
 46 48  1  0
 45 49  2  0
 49 50  1  0
 50 51  3  0
 49 14  1  0
 37 24  1  0
M  END
>  <score>  (65) 
7.27161

$$$$

     RDKit          3D

 50 51  0  0  0  0  0  0  0  0999 V2000
   26.0817    5.5240   30.9908 H   0  0  0  0  0  0  0  0  0  0  0  0
   25.2425    4.8712   31.2064 C   0  0  0  0  0  0  0  0  0  0  0  0
   25.4511    3.7409   32.0043 C   0  0  0  0  0  0  0  0  0  0  0  0
   27.2031    3.4158   32.7103 Br  0  0  0  0  0  0  0  0  0  0  0  0
   24.3892    2.8602   32.2664 C   0  0  0  0  0  0  0  0  0  0  0  0
   24.6276    1.7372   33.0256 O   0  0  0  0  0  0  0  0  0  0  0  0
   23.5689    0.7703   33.0801 C   0  0  0  0  0  0  0  0  0  0  0  0
   23.3305    0.3983   32.0772 H   0  0  0  0  0  0  0  0  0  0  0  0
   23.8773   -0.0770   33.6994 H   0  0  0  0  0  0  0  0  0  0  0  0
   22.6680    1.2119   33.5182 H   0  0  0  0  0  0  0  0  0  0  0  0
   23.1213    3.1529   31.7335 C   0  0  0  0  0  0  0  0  0  0  0  0
   22.3034    2.4675   31.9305 H   0  0  0  0  0  0  0  0  0  0  0  0
   22.8995    4.2935   30.9511 C   0  0  0  0  0  0  0  0  0  0  0  0
   21.4962    4.5672   30.4438 C   0  0  0  0  0  0  0  0  0  0  0  0
   20.8708    3.6768   30.5572 H   0  0  0  0  0  0  0  0  0  0  0  0
   21.5286    4.8151   29.3798 H   0  0  0  0  0  0  0  0  0  0  0  0
   20.8561    5.7251   31.1994 C   0  0  0  0  0  0  0  0  0  0  0  0
   19.7238    5.6091   31.6433 O   0  0  0  0  0  0  0  0  0  0  0  0
   21.5203    6.9138   31.2628 N   0  0  0  0  0  0  0  0  0  0  0  0
   22.4191    6.9952   30.8068 H   0  0  0  0  0  0  0  0  0  0  0  0
   21.0071    8.0694   31.7387 C   0  0  0  0  0  0  0  0  0  0  0  0
   21.7376    9.1100   31.3992 N   0  0  0  0  0  0  0  0  0  0  0  0
   21.3579   10.3395   31.8013 C   0  0  0  0  0  0  0  0  0  0  0  0
   22.2323   11.5384   31.4136 C   0  0  0  0  0  0  0  0  0  0  0  0
   22.2208   12.2441   32.2499 H   0  0  0  0  0  0  0  0  0  0  0  0
   23.2571   11.1682   31.3067 H   0  0  0  0  0  0  0  0  0  0  0  0
   21.8476   12.2952   30.1824 N   0  0  0  0  0  0  0  0  0  0  0  0
   22.3423   13.1878   30.1353 H   0  0  0  0  0  0  0  0  0  0  0  0
   22.0192   11.5925   28.9073 C   0  0  0  0  0  0  0  0  0  0  0  0
   21.5320   12.1560   28.1050 H   0  0  0  0  0  0  0  0  0  0  0  0
   21.5770   10.5880   28.9512 H   0  0  0  0  0  0  0  0  0  0  0  0
   23.5156   11.5491   28.6478 C   0  0  0  0  0  0  0  0  0  0  0  0
   23.7518   11.0565   27.7015 H   0  0  0  0  0  0  0  0  0  0  0  0
   24.0166   11.0082   29.4560 H   0  0  0  0  0  0  0  0  0  0  0  0
   23.8930   12.5779   28.6005 H   0  0  0  0  0  0  0  0  0  0  0  0
   20.2345   10.5062   32.6124 C   0  0  0  0  0  0  0  0  0  0  0  0
   19.8353   11.7935   33.0837 C   0  0  0  0  0  0  0  0  0  0  0  0
   19.5248   12.8506   33.4626 N   0  0  0  0  0  0  0  0  0  0  0  0
   19.5157    9.3854   32.9479 C   0  0  0  0  0  0  0  0  0  0  0  0
   18.4090    9.4813   33.7159 N   0  0  0  0  0  0  0  0  0  0  0  0
   18.1074   10.4277   33.9318 H   0  0  0  0  0  0  0  0  0  0  0  0
   17.6933    8.7769   33.5641 H   0  0  0  0  0  0  0  0  0  0  0  0
   19.8849    8.1525   32.5087 C   0  0  0  0  0  0  0  0  0  0  0  0
   19.3298    7.2733   32.7830 H   0  0  0  0  0  0  0  0  0  0  0  0
   23.9748    5.1655   30.6742 C   0  0  0  0  0  0  0  0  0  0  0  0
   23.7399    6.2792   29.8978 O   0  0  0  0  0  0  0  0  0  0  0  0
   24.8598    7.1276   29.6048 C   0  0  0  0  0  0  0  0  0  0  0  0
   25.6397    6.5751   29.0703 H   0  0  0  0  0  0  0  0  0  0  0  0
   24.5296    7.9561   28.9714 H   0  0  0  0  0  0  0  0  0  0  0  0
   25.2844    7.5439   30.5242 H   0  0  0  0  0  0  0  0  0  0  0  0
  1  2  1  0
  2  3  2  0
  3  4  1  0
  3  5  1  0
  5  6  1  0
  6  7  1  0
  7  8  1  0
  7  9  1  0
  7 10  1  0
  5 11  2  0
 11 12  1  0
 11 13  1  0
 13 14  1  0
 14 15  1  0
 14 16  1  0
 14 17  1  0
 17 18  2  0
 17 19  1  0
 19 20  1  0
 19 21  1  0
 21 22  2  0
 22 23  1  0
 23 24  1  0
 24 25  1  0
 24 26  1  0
 24 27  1  0
 27 28  1  0
 27 29  1  0
 29 30  1  0
 29 31  1  0
 29 32  1  0
 32 33  1  0
 32 34  1  0
 32 35  1  0
 23 36  2  0
 36 37  1  0
 37 38  3  0
 36 39  1  0
 39 40  1  0
 40 41  1  0
 40 42  1  0
 39 43  2  0
 43 44  1  0
 13 45  2  0
 45 46  1  0
 46 47  1  0
 47 48  1  0
 47 49  1  0
 47 50  1  0
 45  2  1  0
 43 21  1  0
M  END
>  <score>  (66) 
7.27373

$$$$

     RDKit          3D

 50 51  0  0  0  0  0  0  0  0999 V2000
   26.1897    5.4061   30.8449 H   0  0  0  0  0  0  0  0  0  0  0  0
   25.3406    4.7783   31.0964 C   0  0  0  0  0  0  0  0  0  0  0  0
   25.5202    3.6753   31.9443 C   0  0  0  0  0  0  0  0  0  0  0  0
   27.2670    3.2906   32.6337 Br  0  0  0  0  0  0  0  0  0  0  0  0
   24.4332    2.8476   32.2700 C   0  0  0  0  0  0  0  0  0  0  0  0
   24.6577    1.7868   33.1214 O   0  0  0  0  0  0  0  0  0  0  0  0
   23.6912    0.7289   33.1444 C   0  0  0  0  0  0  0  0  0  0  0  0
   24.0809   -0.0973   33.7474 H   0  0  0  0  0  0  0  0  0  0  0  0
   23.4992    0.3552   32.1344 H   0  0  0  0  0  0  0  0  0  0  0  0
   22.7510    1.0664   33.5885 H   0  0  0  0  0  0  0  0  0  0  0  0
   23.1696    3.1489   31.7281 C   0  0  0  0  0  0  0  0  0  0  0  0
   22.3325    2.5050   31.9771 H   0  0  0  0  0  0  0  0  0  0  0  0
   22.9819    4.2555   30.8780 C   0  0  0  0  0  0  0  0  0  0  0  0
   21.6072    4.5381   30.3009 C   0  0  0  0  0  0  0  0  0  0  0  0
   21.0120    3.6241   30.2965 H   0  0  0  0  0  0  0  0  0  0  0  0
   21.7250    4.8574   29.2654 H   0  0  0  0  0  0  0  0  0  0  0  0
   20.8738    5.6548   31.0435 C   0  0  0  0  0  0  0  0  0  0  0  0
   19.8061    5.4628   31.6068 O   0  0  0  0  0  0  0  0  0  0  0  0
   21.3956    6.9126   30.9947 N   0  0  0  0  0  0  0  0  0  0  0  0
   22.2214    7.0897   30.4446 H   0  0  0  0  0  0  0  0  0  0  0  0
   20.9291    8.0103   31.6096 C   0  0  0  0  0  0  0  0  0  0  0  0
   21.6871    9.0227   31.2523 N   0  0  0  0  0  0  0  0  0  0  0  0
   21.3828   10.2449   31.6857 C   0  0  0  0  0  0  0  0  0  0  0  0
   22.2650   11.3772   31.2065 C   0  0  0  0  0  0  0  0  0  0  0  0
   23.2607   10.9655   31.0151 H   0  0  0  0  0  0  0  0  0  0  0  0
   22.3511   12.1280   31.9977 H   0  0  0  0  0  0  0  0  0  0  0  0
   21.7129   12.0409   29.9255 C   0  0  0  0  0  0  0  0  0  0  0  0
   21.5540   11.2617   29.1730 H   0  0  0  0  0  0  0  0  0  0  0  0
   20.7466   12.5064   30.1495 H   0  0  0  0  0  0  0  0  0  0  0  0
   22.6434   13.0959   29.3217 C   0  0  0  0  0  0  0  0  0  0  0  0
   23.6438   12.6777   29.1661 H   0  0  0  0  0  0  0  0  0  0  0  0
   22.2493   13.3907   28.3447 H   0  0  0  0  0  0  0  0  0  0  0  0
   22.7116   14.2767   30.1879 N   0  0  0  0  0  0  0  0  0  0  0  0
   21.7779   14.6227   30.4040 H   0  0  0  0  0  0  0  0  0  0  0  0
   23.2209   14.0725   31.0445 H   0  0  0  0  0  0  0  0  0  0  0  0
   20.2871   10.4669   32.5064 C   0  0  0  0  0  0  0  0  0  0  0  0
   19.9451   11.7927   32.9000 C   0  0  0  0  0  0  0  0  0  0  0  0
   19.7136   12.9008   33.1797 N   0  0  0  0  0  0  0  0  0  0  0  0
   19.5496    9.3683   32.8851 C   0  0  0  0  0  0  0  0  0  0  0  0
   18.4649    9.4935   33.6663 N   0  0  0  0  0  0  0  0  0  0  0  0
   17.9336    8.6608   33.8941 H   0  0  0  0  0  0  0  0  0  0  0  0
   18.1533   10.4161   33.9502 H   0  0  0  0  0  0  0  0  0  0  0  0
   19.8529    8.1108   32.4535 C   0  0  0  0  0  0  0  0  0  0  0  0
   19.2565    7.2619   32.7582 H   0  0  0  0  0  0  0  0  0  0  0  0
   24.0783    5.0884   30.5623 C   0  0  0  0  0  0  0  0  0  0  0  0
   23.8660    6.1772   29.7405 O   0  0  0  0  0  0  0  0  0  0  0  0
   24.9303    7.1253   29.5804 C   0  0  0  0  0  0  0  0  0  0  0  0
   25.7829    6.6718   29.0684 H   0  0  0  0  0  0  0  0  0  0  0  0
   24.5752    7.9689   28.9801 H   0  0  0  0  0  0  0  0  0  0  0  0
   25.2590    7.5075   30.5503 H   0  0  0  0  0  0  0  0  0  0  0  0
  1  2  1  0
  2  3  2  0
  3  4  1  0
  3  5  1  0
  5  6  1  0
  6  7  1  0
  7  8  1  0
  7  9  1  0
  7 10  1  0
  5 11  2  0
 11 12  1  0
 11 13  1  0
 13 14  1  0
 14 15  1  0
 14 16  1  0
 14 17  1  0
 17 18  2  0
 17 19  1  0
 19 20  1  0
 19 21  1  0
 21 22  2  0
 22 23  1  0
 23 24  1  0
 24 25  1  0
 24 26  1  0
 24 27  1  0
 27 28  1  0
 27 29  1  0
 27 30  1  0
 30 31  1  0
 30 32  1  0
 30 33  1  0
 33 34  1  0
 33 35  1  0
 23 36  2  0
 36 37  1  0
 37 38  3  0
 36 39  1  0
 39 40  1  0
 40 41  1  0
 40 42  1  0
 39 43  2  0
 43 44  1  0
 13 45  2  0
 45 46  1  0
 46 47  1  0
 47 48  1  0
 47 49  1  0
 47 50  1  0
 45  2  1  0
 43 21  1  0
M  END
>  <score>  (67) 
7.27595

$$$$

     RDKit          3D

 45 46  0  0  0  0  0  0  0  0999 V2000
   26.1622    5.4551   30.8714 H   0  0  0  0  0  0  0  0  0  0  0  0
   25.3229    4.8129   31.1101 C   0  0  0  0  0  0  0  0  0  0  0  0
   25.5200    3.7093   31.9430 C   0  0  0  0  0  0  0  0  0  0  0  0
   27.2697    3.3867   32.6500 Br  0  0  0  0  0  0  0  0  0  0  0  0
   24.4443    2.8629   32.2565 C   0  0  0  0  0  0  0  0  0  0  0  0
   24.6686    1.7845   33.0809 O   0  0  0  0  0  0  0  0  0  0  0  0
   23.6566    0.7678   33.1051 C   0  0  0  0  0  0  0  0  0  0  0  0
   22.7298    1.1568   33.5407 H   0  0  0  0  0  0  0  0  0  0  0  0
   23.4544    0.4037   32.0909 H   0  0  0  0  0  0  0  0  0  0  0  0
   23.9977   -0.0767   33.7137 H   0  0  0  0  0  0  0  0  0  0  0  0
   23.1769    3.1563   31.7246 C   0  0  0  0  0  0  0  0  0  0  0  0
   22.3409    2.5093   31.9702 H   0  0  0  0  0  0  0  0  0  0  0  0
   22.9783    4.2667   30.8921 C   0  0  0  0  0  0  0  0  0  0  0  0
   21.5979    4.5693   30.3537 C   0  0  0  0  0  0  0  0  0  0  0  0
   21.6521    4.7851   29.2849 H   0  0  0  0  0  0  0  0  0  0  0  0
   20.9375    3.7100   30.4880 H   0  0  0  0  0  0  0  0  0  0  0  0
   20.9988    5.7791   31.0579 C   0  0  0  0  0  0  0  0  0  0  0  0
   19.8470    5.7402   31.4520 O   0  0  0  0  0  0  0  0  0  0  0  0
   21.7364    6.9217   31.2133 N   0  0  0  0  0  0  0  0  0  0  0  0
   22.6252    7.0038   30.7487 H   0  0  0  0  0  0  0  0  0  0  0  0
   21.2713    8.0600   31.7590 C   0  0  0  0  0  0  0  0  0  0  0  0
   22.0769    9.0752   31.5558 N   0  0  0  0  0  0  0  0  0  0  0  0
   21.6395   10.2819   31.9120 C   0  0  0  0  0  0  0  0  0  0  0  0
   22.3429   11.3848   31.6435 O   0  0  0  0  0  0  0  0  0  0  0  0
   23.3264   10.9838   30.4300 S   0  0  0  0  0  0  0  0  0  0  0  0
   22.7538   10.0393   29.4724 O   0  0  0  0  0  0  0  0  0  0  0  0
   24.0656   12.1317   29.9277 O   0  0  0  0  0  0  0  0  0  0  0  0
   24.2766   10.1792   31.4669 N   0  0  0  0  0  0  0  0  0  0  0  0
   24.4954   10.8721   32.1648 H   0  0  0  0  0  0  0  0  0  0  0  0
   23.6513    9.4819   31.8391 H   0  0  0  0  0  0  0  0  0  0  0  0
   20.4447   10.4830   32.5442 C   0  0  0  0  0  0  0  0  0  0  0  0
   20.0377   11.7952   32.9188 C   0  0  0  0  0  0  0  0  0  0  0  0
   19.7301   12.8761   33.2121 N   0  0  0  0  0  0  0  0  0  0  0  0
   19.6650    9.3940   32.7742 C   0  0  0  0  0  0  0  0  0  0  0  0
   18.4591    9.4985   33.3623 N   0  0  0  0  0  0  0  0  0  0  0  0
   18.2741   10.3766   33.8399 H   0  0  0  0  0  0  0  0  0  0  0  0
   18.0896    8.6406   33.7668 H   0  0  0  0  0  0  0  0  0  0  0  0
   20.0702    8.1650   32.3906 C   0  0  0  0  0  0  0  0  0  0  0  0
   19.4384    7.3149   32.5640 H   0  0  0  0  0  0  0  0  0  0  0  0
   24.0592    5.1137   30.5855 C   0  0  0  0  0  0  0  0  0  0  0  0
   23.8340    6.2187   29.7951 O   0  0  0  0  0  0  0  0  0  0  0  0
   24.9412    7.1104   29.6089 C   0  0  0  0  0  0  0  0  0  0  0  0
   24.6271    7.9684   29.0068 H   0  0  0  0  0  0  0  0  0  0  0  0
   25.7586    6.5996   29.0879 H   0  0  0  0  0  0  0  0  0  0  0  0
   25.3050    7.4784   30.5753 H   0  0  0  0  0  0  0  0  0  0  0  0
  1  2  1  0
  2  3  2  0
  3  4  1  0
  3  5  1  0
  5  6  1  0
  6  7  1  0
  7  8  1  0
  7  9  1  0
  7 10  1  0
  5 11  2  0
 11 12  1  0
 11 13  1  0
 13 14  1  0
 14 15  1  0
 14 16  1  0
 14 17  1  0
 17 18  2  0
 17 19  1  0
 19 20  1  0
 19 21  1  0
 21 22  2  0
 22 23  1  0
 23 24  1  0
 24 25  1  0
 25 26  2  0
 25 27  2  0
 25 28  1  0
 28 29  1  0
 28 30  1  0
 23 31  2  0
 31 32  1  0
 32 33  3  0
 31 34  1  0
 34 35  1  0
 35 36  1  0
 35 37  1  0
 34 38  2  0
 38 39  1  0
 13 40  2  0
 40 41  1  0
 41 42  1  0
 42 43  1  0
 42 44  1  0
 42 45  1  0
 40  2  1  0
 38 21  1  0
M  END
>  <score>  (68) 
7.28384

$$$$

     RDKit          3D

 54 56  0  0  0  0  0  0  0  0999 V2000
   23.7294    9.0485   25.8057 H   0  0  0  0  0  0  0  0  0  0  0  0
   23.4206    9.5418   26.7119 C   0  0  0  0  0  0  0  0  0  0  0  0
   22.2260    9.1771   27.3186 C   0  0  0  0  0  0  0  0  0  0  0  0
   21.6510    8.3621   26.8995 H   0  0  0  0  0  0  0  0  0  0  0  0
   21.7803    9.8531   28.4556 C   0  0  0  0  0  0  0  0  0  0  0  0
   20.8729    9.4974   28.9228 H   0  0  0  0  0  0  0  0  0  0  0  0
   22.5054   10.9365   28.9923 C   0  0  0  0  0  0  0  0  0  0  0  0
   22.0006   11.7528   30.1794 C   0  0  0  0  0  0  0  0  0  0  0  0
   20.9314   11.9874   30.0713 H   0  0  0  0  0  0  0  0  0  0  0  0
   22.5347   12.7109   30.2151 H   0  0  0  0  0  0  0  0  0  0  0  0
   22.2797   11.0430   31.4332 N   0  0  0  0  0  0  0  0  0  0  0  0
   23.1071   10.4632   31.3367 H   0  0  0  0  0  0  0  0  0  0  0  0
   21.3823   10.1441   31.8432 C   0  0  0  0  0  0  0  0  0  0  0  0
   21.8398    8.9862   31.4552 N   0  0  0  0  0  0  0  0  0  0  0  0
   21.1236    7.9530   31.7882 C   0  0  0  0  0  0  0  0  0  0  0  0
   21.6366    6.8358   31.2596 N   0  0  0  0  0  0  0  0  0  0  0  0
   22.4784    6.9765   30.7179 H   0  0  0  0  0  0  0  0  0  0  0  0
   20.9364    5.6793   31.1038 C   0  0  0  0  0  0  0  0  0  0  0  0
   19.7882    5.5933   31.5103 O   0  0  0  0  0  0  0  0  0  0  0  0
   21.5814    4.5269   30.3566 C   0  0  0  0  0  0  0  0  0  0  0  0
   20.9669    3.6344   30.4799 H   0  0  0  0  0  0  0  0  0  0  0  0
   21.6217    4.7698   29.2945 H   0  0  0  0  0  0  0  0  0  0  0  0
   22.9721    4.2711   30.8805 C   0  0  0  0  0  0  0  0  0  0  0  0
   23.1760    3.1599   31.7059 C   0  0  0  0  0  0  0  0  0  0  0  0
   22.3482    2.4989   31.9412 H   0  0  0  0  0  0  0  0  0  0  0  0
   24.4375    2.8736   32.2505 C   0  0  0  0  0  0  0  0  0  0  0  0
   24.6584    1.7861   33.0640 O   0  0  0  0  0  0  0  0  0  0  0  0
   23.6220    0.7937   33.0859 C   0  0  0  0  0  0  0  0  0  0  0  0
   22.7010    1.2038   33.5112 H   0  0  0  0  0  0  0  0  0  0  0  0
   23.4114    0.4345   32.0733 H   0  0  0  0  0  0  0  0  0  0  0  0
   23.9364   -0.0580   33.6956 H   0  0  0  0  0  0  0  0  0  0  0  0
   25.5076    3.7348   31.9595 C   0  0  0  0  0  0  0  0  0  0  0  0
   27.2588    3.4101   32.6699 Br  0  0  0  0  0  0  0  0  0  0  0  0
   25.3068    4.8473   31.1330 C   0  0  0  0  0  0  0  0  0  0  0  0
   26.1392    5.5067   30.9078 H   0  0  0  0  0  0  0  0  0  0  0  0
   24.0455    5.1375   30.5876 C   0  0  0  0  0  0  0  0  0  0  0  0
   23.8249    6.2484   29.8001 O   0  0  0  0  0  0  0  0  0  0  0  0
   24.9459    7.1251   29.6024 C   0  0  0  0  0  0  0  0  0  0  0  0
   24.6503    7.9795   28.9867 H   0  0  0  0  0  0  0  0  0  0  0  0
   25.7611    6.5998   29.0945 H   0  0  0  0  0  0  0  0  0  0  0  0
   25.3148    7.5026   30.5619 H   0  0  0  0  0  0  0  0  0  0  0  0
   20.0006    8.0120   32.5631 C   0  0  0  0  0  0  0  0  0  0  0  0
   19.4518    7.1386   32.8636 H   0  0  0  0  0  0  0  0  0  0  0  0
   19.5882    9.2453   32.9458 C   0  0  0  0  0  0  0  0  0  0  0  0
   18.4671    9.2829   33.6844 N   0  0  0  0  0  0  0  0  0  0  0  0
   17.9691    8.4044   33.7700 H   0  0  0  0  0  0  0  0  0  0  0  0
   17.9234   10.1408   33.6271 H   0  0  0  0  0  0  0  0  0  0  0  0
   20.2553   10.3691   32.5694 C   0  0  0  0  0  0  0  0  0  0  0  0
   19.8536   11.6879   32.9221 C   0  0  0  0  0  0  0  0  0  0  0  0
   19.5398   12.7711   33.2017 N   0  0  0  0  0  0  0  0  0  0  0  0
   23.7377   11.2537   28.3860 C   0  0  0  0  0  0  0  0  0  0  0  0
   24.3539   12.0538   28.7788 H   0  0  0  0  0  0  0  0  0  0  0  0
   24.1897   10.5678   27.2515 C   0  0  0  0  0  0  0  0  0  0  0  0
   25.1013   10.8727   26.7482 H   0  0  0  0  0  0  0  0  0  0  0  0
  1  2  1  0
  2  3  2  0
  3  4  1  0
  3  5  1  0
  5  6  1  0
  5  7  2  0
  7  8  1  0
  8  9  1  0
  8 10  1  0
  8 11  1  0
 11 12  1  0
 11 13  1  0
 13 14  2  0
 14 15  1  0
 15 16  1  0
 16 17  1  0
 16 18  1  0
 18 19  2  0
 18 20  1  0
 20 21  1  0
 20 22  1  0
 20 23  1  0
 23 24  2  0
 24 25  1  0
 24 26  1  0
 26 27  1  0
 27 28  1  0
 28 29  1  0
 28 30  1  0
 28 31  1  0
 26 32  2  0
 32 33  1  0
 32 34  1  0
 34 35  1  0
 34 36  2  0
 36 37  1  0
 37 38  1  0
 38 39  1  0
 38 40  1  0
 38 41  1  0
 15 42  2  0
 42 43  1  0
 42 44  1  0
 44 45  1  0
 45 46  1  0
 45 47  1  0
 44 48  2  0
 48 49  1  0
 49 50  3  0
  7 51  1  0
 51 52  1  0
 51 53  2  0
 53 54  1  0
 53  2  1  0
 48 13  1  0
 36 23  1  0
M  END
>  <score>  (69) 
7.29545

$$$$

     RDKit          3D

 58 60  0  0  0  0  0  0  0  0999 V2000
   26.1043    5.4997   30.8770 H   0  0  0  0  0  0  0  0  0  0  0  0
   25.2749    4.8393   31.1051 C   0  0  0  0  0  0  0  0  0  0  0  0
   25.4856    3.7440   31.9427 C   0  0  0  0  0  0  0  0  0  0  0  0
   27.2404    3.4654   32.6567 Br  0  0  0  0  0  0  0  0  0  0  0  0
   24.4214    2.8805   32.2462 C   0  0  0  0  0  0  0  0  0  0  0  0
   24.6496    1.7990   33.0631 O   0  0  0  0  0  0  0  0  0  0  0  0
   23.6209    0.8000   33.0786 C   0  0  0  0  0  0  0  0  0  0  0  0
   22.6981    1.2076   33.5035 H   0  0  0  0  0  0  0  0  0  0  0  0
   23.4155    0.4426   32.0634 H   0  0  0  0  0  0  0  0  0  0  0  0
   23.9423   -0.0497   33.6877 H   0  0  0  0  0  0  0  0  0  0  0  0
   23.1526    3.1582   31.7103 C   0  0  0  0  0  0  0  0  0  0  0  0
   22.3158    2.5123   31.9575 H   0  0  0  0  0  0  0  0  0  0  0  0
   22.9412    4.2564   30.8727 C   0  0  0  0  0  0  0  0  0  0  0  0
   21.5452    4.5184   30.3740 C   0  0  0  0  0  0  0  0  0  0  0  0
   20.9238    3.6269   30.5092 H   0  0  0  0  0  0  0  0  0  0  0  0
   21.5614    4.7616   29.3110 H   0  0  0  0  0  0  0  0  0  0  0  0
   20.9475    5.6960   31.1265 C   0  0  0  0  0  0  0  0  0  0  0  0
   19.8952    5.5675   31.7268 O   0  0  0  0  0  0  0  0  0  0  0  0
   21.5548    6.9150   31.0377 N   0  0  0  0  0  0  0  0  0  0  0  0
   22.3968    7.0092   30.4827 H   0  0  0  0  0  0  0  0  0  0  0  0
   21.0564    8.0628   31.5275 C   0  0  0  0  0  0  0  0  0  0  0  0
   21.7695    9.1027   31.1697 N   0  0  0  0  0  0  0  0  0  0  0  0
   21.3999   10.3035   31.6218 C   0  0  0  0  0  0  0  0  0  0  0  0
   22.1197   11.4127   31.2660 O   0  0  0  0  0  0  0  0  0  0  0  0
   23.2394   11.2573   30.3626 C   0  0  0  0  0  0  0  0  0  0  0  0
   24.0500   10.6727   30.8136 H   0  0  0  0  0  0  0  0  0  0  0  0
   22.9377   10.7532   29.4367 H   0  0  0  0  0  0  0  0  0  0  0  0
   23.7564   12.6624   30.0352 C   0  0  0  0  0  0  0  0  0  0  0  0
   23.9320   13.2047   30.9707 H   0  0  0  0  0  0  0  0  0  0  0  0
   22.9714   13.1856   29.4866 H   0  0  0  0  0  0  0  0  0  0  0  0
   24.9996   12.6550   29.2339 N   0  0  0  0  0  0  0  0  0  0  0  0
   25.4632   13.9531   28.7383 C   0  0  0  0  0  0  0  0  0  0  0  0
   24.8448   14.3130   27.9141 H   0  0  0  0  0  0  0  0  0  0  0  0
   25.4295   14.6966   29.5392 H   0  0  0  0  0  0  0  0  0  0  0  0
   26.9045   13.7042   28.3012 C   0  0  0  0  0  0  0  0  0  0  0  0
   27.5389   14.5515   28.5672 H   0  0  0  0  0  0  0  0  0  0  0  0
   26.9673   13.5540   27.2217 H   0  0  0  0  0  0  0  0  0  0  0  0
   27.3407   12.4239   29.0086 C   0  0  0  0  0  0  0  0  0  0  0  0
   27.5278   11.6238   28.2891 H   0  0  0  0  0  0  0  0  0  0  0  0
   28.2443   12.5763   29.6081 H   0  0  0  0  0  0  0  0  0  0  0  0
   26.1558   12.0545   29.8794 C   0  0  0  0  0  0  0  0  0  0  0  0
   26.0548   10.9720   30.0187 H   0  0  0  0  0  0  0  0  0  0  0  0
   26.2494   12.5262   30.8524 H   0  0  0  0  0  0  0  0  0  0  0  0
   20.3217   10.4768   32.4655 C   0  0  0  0  0  0  0  0  0  0  0  0
   19.9676   11.7632   32.9685 C   0  0  0  0  0  0  0  0  0  0  0  0
   19.6877   12.8153   33.3808 N   0  0  0  0  0  0  0  0  0  0  0  0
   19.6273    9.3581   32.8204 C   0  0  0  0  0  0  0  0  0  0  0  0
   18.6014    9.4058   33.6844 N   0  0  0  0  0  0  0  0  0  0  0  0
   18.0225    8.5733   33.7359 H   0  0  0  0  0  0  0  0  0  0  0  0
   18.1790   10.3155   33.8328 H   0  0  0  0  0  0  0  0  0  0  0  0
   19.9546    8.1412   32.3250 C   0  0  0  0  0  0  0  0  0  0  0  0
   19.3796    7.2695   32.5806 H   0  0  0  0  0  0  0  0  0  0  0  0
   24.0111    5.1193   30.5643 C   0  0  0  0  0  0  0  0  0  0  0  0
   23.7940    6.2301   29.7782 O   0  0  0  0  0  0  0  0  0  0  0  0
   24.9261    7.0964   29.6109 C   0  0  0  0  0  0  0  0  0  0  0  0
   24.6588    7.9629   29.0003 H   0  0  0  0  0  0  0  0  0  0  0  0
   25.7397    6.5560   29.1165 H   0  0  0  0  0  0  0  0  0  0  0  0
   25.2801    7.4524   30.5845 H   0  0  0  0  0  0  0  0  0  0  0  0
  1  2  1  0
  2  3  2  0
  3  4  1  0
  3  5  1  0
  5  6  1  0
  6  7  1  0
  7  8  1  0
  7  9  1  0
  7 10  1  0
  5 11  2  0
 11 12  1  0
 11 13  1  0
 13 14  1  0
 14 15  1  0
 14 16  1  0
 14 17  1  0
 17 18  2  0
 17 19  1  0
 19 20  1  0
 19 21  1  0
 21 22  2  0
 22 23  1  0
 23 24  1  0
 24 25  1  0
 25 26  1  0
 25 27  1  0
 25 28  1  0
 28 29  1  0
 28 30  1  0
 28 31  1  0
 31 32  1  0
 32 33  1  0
 32 34  1  0
 32 35  1  0
 35 36  1  0
 35 37  1  0
 35 38  1  0
 38 39  1  0
 38 40  1  0
 38 41  1  0
 41 42  1  0
 41 43  1  0
 23 44  2  0
 44 45  1  0
 45 46  3  0
 44 47  1  0
 47 48  1  0
 48 49  1  0
 48 50  1  0
 47 51  2  0
 51 52  1  0
 13 53  2  0
 53 54  1  0
 54 55  1  0
 55 56  1  0
 55 57  1  0
 55 58  1  0
 53  2  1  0
 51 21  1  0
 41 31  1  0
M  END
>  <score>  (70) 
7.29717

$$$$

     RDKit          3D

 50 51  0  0  0  0  0  0  0  0999 V2000
   26.0578    5.5252   30.9278 H   0  0  0  0  0  0  0  0  0  0  0  0
   25.2510    4.8323   31.1396 C   0  0  0  0  0  0  0  0  0  0  0  0
   25.4748    3.7274   31.9672 C   0  0  0  0  0  0  0  0  0  0  0  0
   27.2222    3.4652   32.7046 Br  0  0  0  0  0  0  0  0  0  0  0  0
   24.4306    2.8320   32.2413 C   0  0  0  0  0  0  0  0  0  0  0  0
   24.6677    1.7525   33.0575 O   0  0  0  0  0  0  0  0  0  0  0  0
   23.6281    0.7656   33.0971 C   0  0  0  0  0  0  0  0  0  0  0  0
   23.4078    0.4014   32.0881 H   0  0  0  0  0  0  0  0  0  0  0  0
   23.9405   -0.0820   33.7128 H   0  0  0  0  0  0  0  0  0  0  0  0
   22.7140    1.1898   33.5237 H   0  0  0  0  0  0  0  0  0  0  0  0
   23.1711    3.0762   31.6801 C   0  0  0  0  0  0  0  0  0  0  0  0
   22.3588    2.3938   31.9105 H   0  0  0  0  0  0  0  0  0  0  0  0
   22.9473    4.1796   30.8533 C   0  0  0  0  0  0  0  0  0  0  0  0
   21.5473    4.4114   30.3547 C   0  0  0  0  0  0  0  0  0  0  0  0
   21.5559    4.6686   29.2940 H   0  0  0  0  0  0  0  0  0  0  0  0
   20.9472    3.5078   30.4857 H   0  0  0  0  0  0  0  0  0  0  0  0
   20.9161    5.5485   31.1433 C   0  0  0  0  0  0  0  0  0  0  0  0
   19.7658    5.4650   31.5360 O   0  0  0  0  0  0  0  0  0  0  0  0
   21.6418    6.6957   31.3334 N   0  0  0  0  0  0  0  0  0  0  0  0
   22.4929    6.8118   30.8021 H   0  0  0  0  0  0  0  0  0  0  0  0
   21.1332    7.8504   31.8230 C   0  0  0  0  0  0  0  0  0  0  0  0
   21.8441    8.9105   31.4502 N   0  0  0  0  0  0  0  0  0  0  0  0
   21.5035   10.1864   31.8046 C   0  0  0  0  0  0  0  0  0  0  0  0
   22.5423   11.6891   31.2473 S   0  0  0  0  0  0  0  0  0  0  0  0
   23.9801   11.3853   31.0809 O   0  0  0  0  0  0  0  0  0  0  0  0
   22.3616   12.8646   32.1264 O   0  0  0  0  0  0  0  0  0  0  0  0
   21.9233   12.1981   29.6751 N   0  0  0  0  0  0  0  0  0  0  0  0
   22.0177   11.1865   28.6162 C   0  0  0  0  0  0  0  0  0  0  0  0
   21.5240   11.5565   27.7127 H   0  0  0  0  0  0  0  0  0  0  0  0
   21.5290   10.2534   28.9164 H   0  0  0  0  0  0  0  0  0  0  0  0
   23.0643   10.9713   28.3784 H   0  0  0  0  0  0  0  0  0  0  0  0
   20.6802   12.9750   29.7485 C   0  0  0  0  0  0  0  0  0  0  0  0
   20.8495   13.9275   30.2615 H   0  0  0  0  0  0  0  0  0  0  0  0
   20.3075   13.1890   28.7410 H   0  0  0  0  0  0  0  0  0  0  0  0
   19.9161   12.4214   30.2999 H   0  0  0  0  0  0  0  0  0  0  0  0
   20.3392   10.3339   32.5972 C   0  0  0  0  0  0  0  0  0  0  0  0
   19.8558   11.6191   32.9834 C   0  0  0  0  0  0  0  0  0  0  0  0
   19.4673   12.6786   33.2699 N   0  0  0  0  0  0  0  0  0  0  0  0
   19.6287    9.1958   32.9825 C   0  0  0  0  0  0  0  0  0  0  0  0
   18.4771    9.2405   33.6963 N   0  0  0  0  0  0  0  0  0  0  0  0
   17.8729   10.0349   33.5069 H   0  0  0  0  0  0  0  0  0  0  0  0
   18.0253    8.3410   33.8446 H   0  0  0  0  0  0  0  0  0  0  0  0
   20.0202    7.9472   32.6058 C   0  0  0  0  0  0  0  0  0  0  0  0
   19.4612    7.0727   32.9033 H   0  0  0  0  0  0  0  0  0  0  0  0
   23.9928    5.0842   30.5763 C   0  0  0  0  0  0  0  0  0  0  0  0
   23.7584    6.2022   29.8021 O   0  0  0  0  0  0  0  0  0  0  0  0
   24.8877    7.0748   29.6157 C   0  0  0  0  0  0  0  0  0  0  0  0
   25.2533    7.4437   30.5812 H   0  0  0  0  0  0  0  0  0  0  0  0
   24.6091    7.9351   29.0010 H   0  0  0  0  0  0  0  0  0  0  0  0
   25.7036    6.5420   29.1146 H   0  0  0  0  0  0  0  0  0  0  0  0
  1  2  1  0
  2  3  2  0
  3  4  1  0
  3  5  1  0
  5  6  1  0
  6  7  1  0
  7  8  1  0
  7  9  1  0
  7 10  1  0
  5 11  2  0
 11 12  1  0
 11 13  1  0
 13 14  1  0
 14 15  1  0
 14 16  1  0
 14 17  1  0
 17 18  2  0
 17 19  1  0
 19 20  1  0
 19 21  1  0
 21 22  2  0
 22 23  1  0
 23 24  1  0
 24 25  2  0
 24 26  2  0
 24 27  1  0
 27 28  1  0
 28 29  1  0
 28 30  1  0
 28 31  1  0
 27 32  1  0
 32 33  1  0
 32 34  1  0
 32 35  1  0
 23 36  2  0
 36 37  1  0
 37 38  3  0
 36 39  1  0
 39 40  1  0
 40 41  1  0
 40 42  1  0
 39 43  2  0
 43 44  1  0
 13 45  2  0
 45 46  1  0
 46 47  1  0
 47 48  1  0
 47 49  1  0
 47 50  1  0
 45  2  1  0
 43 21  1  0
M  END
>  <score>  (71) 
7.29946

$$$$

     RDKit          3D

 56 58  0  0  0  0  0  0  0  0999 V2000
   22.5833   17.5294   28.9252 H   0  0  0  0  0  0  0  0  0  0  0  0
   22.3476   16.4744   29.0307 C   0  0  0  0  0  0  0  0  0  0  0  0
   23.0595   15.5234   28.2897 C   0  0  0  0  0  0  0  0  0  0  0  0
   23.8615   15.8323   27.6237 H   0  0  0  0  0  0  0  0  0  0  0  0
   22.7271   14.1706   28.3957 C   0  0  0  0  0  0  0  0  0  0  0  0
   23.2650   13.4343   27.8058 H   0  0  0  0  0  0  0  0  0  0  0  0
   21.6996   13.7534   29.2493 C   0  0  0  0  0  0  0  0  0  0  0  0
   21.3249   12.3030   29.2799 C   0  0  0  0  0  0  0  0  0  0  0  0
   20.3939   12.1564   29.8370 H   0  0  0  0  0  0  0  0  0  0  0  0
   21.1610   11.9673   28.2542 H   0  0  0  0  0  0  0  0  0  0  0  0
   22.4006   11.5378   29.8336 O   0  0  0  0  0  0  0  0  0  0  0  0
   22.3282   11.3340   31.2599 C   0  0  0  0  0  0  0  0  0  0  0  0
   22.0153   12.2575   31.7551 H   0  0  0  0  0  0  0  0  0  0  0  0
   23.3311   11.0865   31.6242 H   0  0  0  0  0  0  0  0  0  0  0  0
   21.3984   10.2042   31.6672 C   0  0  0  0  0  0  0  0  0  0  0  0
   21.7249    8.9792   31.2516 N   0  0  0  0  0  0  0  0  0  0  0  0
   20.9574    7.9742   31.5936 C   0  0  0  0  0  0  0  0  0  0  0  0
   21.4655    6.8487   31.0628 N   0  0  0  0  0  0  0  0  0  0  0  0
   22.3395    6.9663   30.5718 H   0  0  0  0  0  0  0  0  0  0  0  0
   20.9056    5.6174   31.1200 C   0  0  0  0  0  0  0  0  0  0  0  0
   19.8527    5.4427   31.7086 O   0  0  0  0  0  0  0  0  0  0  0  0
   21.5682    4.5072   30.3292 C   0  0  0  0  0  0  0  0  0  0  0  0
   20.9457    3.6150   30.3857 H   0  0  0  0  0  0  0  0  0  0  0  0
   21.6454    4.8071   29.2808 H   0  0  0  0  0  0  0  0  0  0  0  0
   22.9488    4.2435   30.8736 C   0  0  0  0  0  0  0  0  0  0  0  0
   23.1539    3.1485   31.7253 C   0  0  0  0  0  0  0  0  0  0  0  0
   22.3245    2.4928   31.9724 H   0  0  0  0  0  0  0  0  0  0  0  0
   24.4253    2.8702   32.2620 C   0  0  0  0  0  0  0  0  0  0  0  0
   24.6612    1.7951   33.0895 O   0  0  0  0  0  0  0  0  0  0  0  0
   23.6611    0.7684   33.1101 C   0  0  0  0  0  0  0  0  0  0  0  0
   22.7292    1.1439   33.5398 H   0  0  0  0  0  0  0  0  0  0  0  0
   23.4601    0.4069   32.0984 H   0  0  0  0  0  0  0  0  0  0  0  0
   24.0103   -0.0742   33.7141 H   0  0  0  0  0  0  0  0  0  0  0  0
   25.4960    3.7222   31.9441 C   0  0  0  0  0  0  0  0  0  0  0  0
   27.2564    3.3968   32.6331 Br  0  0  0  0  0  0  0  0  0  0  0  0
   25.2909    4.8158   31.0983 C   0  0  0  0  0  0  0  0  0  0  0  0
   26.1318    5.4535   30.8449 H   0  0  0  0  0  0  0  0  0  0  0  0
   24.0253    5.1014   30.5635 C   0  0  0  0  0  0  0  0  0  0  0  0
   23.8201    6.1953   29.7492 O   0  0  0  0  0  0  0  0  0  0  0  0
   24.9263    7.0966   29.5986 C   0  0  0  0  0  0  0  0  0  0  0  0
   25.2615    7.4502   30.5762 H   0  0  0  0  0  0  0  0  0  0  0  0
   25.7659    6.5995   29.1066 H   0  0  0  0  0  0  0  0  0  0  0  0
   24.6267    7.9592   28.9971 H   0  0  0  0  0  0  0  0  0  0  0  0
   19.8428    8.0851   32.3872 C   0  0  0  0  0  0  0  0  0  0  0  0
   19.2425    7.2341   32.6587 H   0  0  0  0  0  0  0  0  0  0  0  0
   19.5397    9.3300   32.8605 C   0  0  0  0  0  0  0  0  0  0  0  0
   18.5025    9.4674   33.7232 N   0  0  0  0  0  0  0  0  0  0  0  0
   17.9148    8.6587   33.8876 H   0  0  0  0  0  0  0  0  0  0  0  0
   18.1430   10.4011   33.9160 H   0  0  0  0  0  0  0  0  0  0  0  0
   20.2872   10.4163   32.4839 C   0  0  0  0  0  0  0  0  0  0  0  0
   19.9441   11.7275   32.9207 C   0  0  0  0  0  0  0  0  0  0  0  0
   19.7014   12.8240   33.2284 N   0  0  0  0  0  0  0  0  0  0  0  0
   21.0210   14.7047   30.0239 C   0  0  0  0  0  0  0  0  0  0  0  0
   20.2271   14.3958   30.6957 H   0  0  0  0  0  0  0  0  0  0  0  0
   21.3453   16.0631   29.9174 C   0  0  0  0  0  0  0  0  0  0  0  0
   20.8040   16.8043   30.5007 H   0  0  0  0  0  0  0  0  0  0  0  0
  1  2  1  0
  2  3  2  0
  3  4  1  0
  3  5  1  0
  5  6  1  0
  5  7  2  0
  7  8  1  0
  8  9  1  0
  8 10  1  0
  8 11  1  0
 11 12  1  0
 12 13  1  0
 12 14  1  0
 12 15  1  0
 15 16  2  0
 16 17  1  0
 17 18  1  0
 18 19  1  0
 18 20  1  0
 20 21  2  0
 20 22  1  0
 22 23  1  0
 22 24  1  0
 22 25  1  0
 25 26  2  0
 26 27  1  0
 26 28  1  0
 28 29  1  0
 29 30  1  0
 30 31  1  0
 30 32  1  0
 30 33  1  0
 28 34  2  0
 34 35  1  0
 34 36  1  0
 36 37  1  0
 36 38  2  0
 38 39  1  0
 39 40  1  0
 40 41  1  0
 40 42  1  0
 40 43  1  0
 17 44  2  0
 44 45  1  0
 44 46  1  0
 46 47  1  0
 47 48  1  0
 47 49  1  0
 46 50  2  0
 50 51  1  0
 51 52  3  0
  7 53  1  0
 53 54  1  0
 53 55  2  0
 55 56  1  0
 55  2  1  0
 50 15  1  0
 38 25  1  0
M  END
>  <score>  (72) 
7.2997

$$$$

     RDKit          3D

 51 52  0  0  0  0  0  0  0  0999 V2000
   25.9655   14.1578   30.4246 H   0  0  0  0  0  0  0  0  0  0  0  0
   25.7653   13.5023   29.7342 O   0  0  0  0  0  0  0  0  0  0  0  0
   24.7833   12.5459   30.1754 C   0  0  0  0  0  0  0  0  0  0  0  0
   25.2330   11.8753   30.9146 H   0  0  0  0  0  0  0  0  0  0  0  0
   24.4641   11.9345   29.3253 H   0  0  0  0  0  0  0  0  0  0  0  0
   23.5589   13.2230   30.8073 C   0  0  0  0  0  0  0  0  0  0  0  0
   23.9079   13.9382   31.5586 H   0  0  0  0  0  0  0  0  0  0  0  0
   22.9881   13.7705   30.0493 H   0  0  0  0  0  0  0  0  0  0  0  0
   22.7033   12.2236   31.4810 N   0  0  0  0  0  0  0  0  0  0  0  0
   23.2745   11.6641   32.1177 H   0  0  0  0  0  0  0  0  0  0  0  0
   21.8055   11.3602   30.6463 C   0  0  0  0  0  0  0  0  0  0  0  0
   22.3876   10.9358   29.8182 H   0  0  0  0  0  0  0  0  0  0  0  0
   21.0349   11.9938   30.1996 H   0  0  0  0  0  0  0  0  0  0  0  0
   21.0961   10.1854   31.3570 C   0  0  0  0  0  0  0  0  0  0  0  0
   21.4966    8.9526   31.0088 N   0  0  0  0  0  0  0  0  0  0  0  0
   20.9295    7.9010   31.5590 C   0  0  0  0  0  0  0  0  0  0  0  0
   21.4537    6.7696   31.0661 N   0  0  0  0  0  0  0  0  0  0  0  0
   22.2567    6.8908   30.4695 H   0  0  0  0  0  0  0  0  0  0  0  0
   20.8420    5.5539   31.1066 C   0  0  0  0  0  0  0  0  0  0  0  0
   19.7448    5.4292   31.6260 O   0  0  0  0  0  0  0  0  0  0  0  0
   21.5141    4.4088   30.3682 C   0  0  0  0  0  0  0  0  0  0  0  0
   20.9321    3.4949   30.5068 H   0  0  0  0  0  0  0  0  0  0  0  0
   21.5417    4.6366   29.3021 H   0  0  0  0  0  0  0  0  0  0  0  0
   22.9205    4.2033   30.8802 C   0  0  0  0  0  0  0  0  0  0  0  0
   23.1629    3.0838   31.6785 C   0  0  0  0  0  0  0  0  0  0  0  0
   22.3549    2.3905   31.8785 H   0  0  0  0  0  0  0  0  0  0  0  0
   24.4226    2.8265   32.2433 C   0  0  0  0  0  0  0  0  0  0  0  0
   24.6493    1.7286   33.0454 O   0  0  0  0  0  0  0  0  0  0  0  0
   23.5914    0.7557   33.0944 C   0  0  0  0  0  0  0  0  0  0  0  0
   23.3659    0.3866   32.0871 H   0  0  0  0  0  0  0  0  0  0  0  0
   23.8952   -0.0928   33.7153 H   0  0  0  0  0  0  0  0  0  0  0  0
   22.6798    1.1894   33.5225 H   0  0  0  0  0  0  0  0  0  0  0  0
   25.4675    3.7309   31.9861 C   0  0  0  0  0  0  0  0  0  0  0  0
   27.2101    3.4697   32.7413 Br  0  0  0  0  0  0  0  0  0  0  0  0
   25.2396    4.8520   31.1776 C   0  0  0  0  0  0  0  0  0  0  0  0
   26.0561    5.5436   30.9842 H   0  0  0  0  0  0  0  0  0  0  0  0
   23.9749    5.1063   30.6144 C   0  0  0  0  0  0  0  0  0  0  0  0
   23.7441    6.2175   29.8311 O   0  0  0  0  0  0  0  0  0  0  0  0
   24.8665    7.0848   29.5939 C   0  0  0  0  0  0  0  0  0  0  0  0
   25.6708    6.5434   29.0832 H   0  0  0  0  0  0  0  0  0  0  0  0
   24.5648    7.9315   28.9669 H   0  0  0  0  0  0  0  0  0  0  0  0
   25.2517    7.4735   30.5425 H   0  0  0  0  0  0  0  0  0  0  0  0
   19.9400    7.9604   32.4972 C   0  0  0  0  0  0  0  0  0  0  0  0
   19.5144    7.0721   32.9458 H   0  0  0  0  0  0  0  0  0  0  0  0
   19.5104    9.1977   32.8581 C   0  0  0  0  0  0  0  0  0  0  0  0
   18.5212    9.1644   33.7814 N   0  0  0  0  0  0  0  0  0  0  0  0
   18.3071    8.2153   34.0824 H   0  0  0  0  0  0  0  0  0  0  0  0
   17.7327    9.7865   33.6228 H   0  0  0  0  0  0  0  0  0  0  0  0
   20.0513   10.3422   32.2857 C   0  0  0  0  0  0  0  0  0  0  0  0
   19.5729   11.6427   32.6178 C   0  0  0  0  0  0  0  0  0  0  0  0
   19.2105   12.7277   32.8397 N   0  0  0  0  0  0  0  0  0  0  0  0
  1  2  1  0
  2  3  1  0
  3  4  1  0
  3  5  1  0
  3  6  1  0
  6  7  1  0
  6  8  1  0
  6  9  1  0
  9 10  1  0
  9 11  1  0
 11 12  1  0
 11 13  1  0
 11 14  1  0
 14 15  2  0
 15 16  1  0
 16 17  1  0
 17 18  1  0
 17 19  1  0
 19 20  2  0
 19 21  1  0
 21 22  1  0
 21 23  1  0
 21 24  1  0
 24 25  2  0
 25 26  1  0
 25 27  1  0
 27 28  1  0
 28 29  1  0
 29 30  1  0
 29 31  1  0
 29 32  1  0
 27 33  2  0
 33 34  1  0
 33 35  1  0
 35 36  1  0
 35 37  2  0
 37 38  1  0
 38 39  1  0
 39 40  1  0
 39 41  1  0
 39 42  1  0
 16 43  2  0
 43 44  1  0
 43 45  1  0
 45 46  1  0
 46 47  1  0
 46 48  1  0
 45 49  2  0
 49 50  1  0
 50 51  3  0
 49 14  1  0
 37 24  1  0
M  END
>  <score>  (73) 
7.30096

$$$$

     RDKit          3D

 50 52  0  0  0  0  0  0  0  0999 V2000
   26.1868    5.4124   30.8446 H   0  0  0  0  0  0  0  0  0  0  0  0
   25.3430    4.7804   31.1015 C   0  0  0  0  0  0  0  0  0  0  0  0
   25.5218    3.6749   31.9449 C   0  0  0  0  0  0  0  0  0  0  0  0
   27.2699    3.3066   32.6344 Br  0  0  0  0  0  0  0  0  0  0  0  0
   24.4367    2.8459   32.2720 C   0  0  0  0  0  0  0  0  0  0  0  0
   24.6625    1.7841   33.1191 O   0  0  0  0  0  0  0  0  0  0  0  0
   23.6876    0.7337   33.1394 C   0  0  0  0  0  0  0  0  0  0  0  0
   24.0682   -0.0960   33.7429 H   0  0  0  0  0  0  0  0  0  0  0  0
   23.4964    0.3613   32.1273 H   0  0  0  0  0  0  0  0  0  0  0  0
   22.7486    1.0772   33.5844 H   0  0  0  0  0  0  0  0  0  0  0  0
   23.1757    3.1488   31.7330 C   0  0  0  0  0  0  0  0  0  0  0  0
   22.3393    2.5044   31.9808 H   0  0  0  0  0  0  0  0  0  0  0  0
   22.9930    4.2569   30.8893 C   0  0  0  0  0  0  0  0  0  0  0  0
   21.6154    4.5597   30.3417 C   0  0  0  0  0  0  0  0  0  0  0  0
   20.9942    3.6580   30.3446 H   0  0  0  0  0  0  0  0  0  0  0  0
   21.7135    4.8958   29.3065 H   0  0  0  0  0  0  0  0  0  0  0  0
   20.9294    5.6742   31.1270 C   0  0  0  0  0  0  0  0  0  0  0  0
   19.7418    5.6028   31.3936 O   0  0  0  0  0  0  0  0  0  0  0  0
   21.6120    6.8372   31.3479 N   0  0  0  0  0  0  0  0  0  0  0  0
   22.5138    6.9437   30.9094 H   0  0  0  0  0  0  0  0  0  0  0  0
   21.0582    8.0053   31.7324 C   0  0  0  0  0  0  0  0  0  0  0  0
   21.8251    9.0123   31.3776 N   0  0  0  0  0  0  0  0  0  0  0  0
   21.4419   10.2272   31.7286 C   0  0  0  0  0  0  0  0  0  0  0  0
   22.2116   11.2670   31.3055 N   0  0  0  0  0  0  0  0  0  0  0  0
   21.7722   12.1659   31.1988 H   0  0  0  0  0  0  0  0  0  0  0  0
   23.5124   11.1003   30.9205 C   0  0  0  0  0  0  0  0  0  0  0  0
   24.0772   10.0456   31.1620 O   0  0  0  0  0  0  0  0  0  0  0  0
   24.2670   12.2056   30.1726 C   0  0  0  0  0  0  0  0  0  0  0  0
   25.2624   11.8629   29.8855 H   0  0  0  0  0  0  0  0  0  0  0  0
   24.1368   13.6928   30.5156 C   0  0  0  0  0  0  0  0  0  0  0  0
   23.4539   14.0088   31.3112 H   0  0  0  0  0  0  0  0  0  0  0  0
   25.0352   14.3057   30.4087 H   0  0  0  0  0  0  0  0  0  0  0  0
   23.5584   13.1701   29.2088 C   0  0  0  0  0  0  0  0  0  0  0  0
   22.4697   13.1166   29.0968 H   0  0  0  0  0  0  0  0  0  0  0  0
   24.0910   13.4750   28.3016 H   0  0  0  0  0  0  0  0  0  0  0  0
   20.3117   10.4912   32.4597 C   0  0  0  0  0  0  0  0  0  0  0  0
   19.9803   11.8198   32.8622 C   0  0  0  0  0  0  0  0  0  0  0  0
   19.7243   12.9126   33.1756 N   0  0  0  0  0  0  0  0  0  0  0  0
   19.5632    9.4012   32.8179 C   0  0  0  0  0  0  0  0  0  0  0  0
   18.4801    9.5167   33.6081 N   0  0  0  0  0  0  0  0  0  0  0  0
   18.1835   10.4326   33.9278 H   0  0  0  0  0  0  0  0  0  0  0  0
   17.9674    8.6793   33.8697 H   0  0  0  0  0  0  0  0  0  0  0  0
   19.8941    8.1393   32.4365 C   0  0  0  0  0  0  0  0  0  0  0  0
   19.2806    7.2987   32.7248 H   0  0  0  0  0  0  0  0  0  0  0  0
   24.0832    5.0917   30.5708 C   0  0  0  0  0  0  0  0  0  0  0  0
   23.8621    6.1791   29.7515 O   0  0  0  0  0  0  0  0  0  0  0  0
   24.9311    7.1220   29.5891 C   0  0  0  0  0  0  0  0  0  0  0  0
   25.7787    6.6659   29.0668 H   0  0  0  0  0  0  0  0  0  0  0  0
   25.2642    7.5006   30.5609 H   0  0  0  0  0  0  0  0  0  0  0  0
   24.5794    7.9703   28.9942 H   0  0  0  0  0  0  0  0  0  0  0  0
  1  2  1  0
  2  3  2  0
  3  4  1  0
  3  5  1  0
  5  6  1  0
  6  7  1  0
  7  8  1  0
  7  9  1  0
  7 10  1  0
  5 11  2  0
 11 12  1  0
 11 13  1  0
 13 14  1  0
 14 15  1  0
 14 16  1  0
 14 17  1  0
 17 18  2  0
 17 19  1  0
 19 20  1  0
 19 21  1  0
 21 22  2  0
 22 23  1  0
 23 24  1  0
 24 25  1  0
 24 26  1  0
 26 27  2  0
 26 28  1  0
 28 29  1  0
 28 30  1  0
 30 31  1  0
 30 32  1  0
 30 33  1  0
 33 34  1  0
 33 35  1  0
 23 36  2  0
 36 37  1  0
 37 38  3  0
 36 39  1  0
 39 40  1  0
 40 41  1  0
 40 42  1  0
 39 43  2  0
 43 44  1  0
 13 45  2  0
 45 46  1  0
 46 47  1  0
 47 48  1  0
 47 49  1  0
 47 50  1  0
 45  2  1  0
 43 21  1  0
 33 28  1  0
M  END
>  <score>  (74) 
7.3032

$$$$

     RDKit          3D

 49 50  0  0  0  0  0  0  0  0999 V2000
   26.1740    5.4240   30.8441 H   0  0  0  0  0  0  0  0  0  0  0  0
   25.3352    4.7882   31.1031 C   0  0  0  0  0  0  0  0  0  0  0  0
   25.5216    3.6840   31.9445 C   0  0  0  0  0  0  0  0  0  0  0  0
   27.2713    3.3290   32.6362 Br  0  0  0  0  0  0  0  0  0  0  0  0
   24.4410    2.8497   32.2710 C   0  0  0  0  0  0  0  0  0  0  0  0
   24.6685    1.7857   33.1138 O   0  0  0  0  0  0  0  0  0  0  0  0
   23.6834    0.7423   33.1332 C   0  0  0  0  0  0  0  0  0  0  0  0
   24.0511   -0.0944   33.7361 H   0  0  0  0  0  0  0  0  0  0  0  0
   23.4890    0.3735   32.1199 H   0  0  0  0  0  0  0  0  0  0  0  0
   22.7447    1.0945   33.5738 H   0  0  0  0  0  0  0  0  0  0  0  0
   23.1773    3.1444   31.7334 C   0  0  0  0  0  0  0  0  0  0  0  0
   22.3450    2.4940   31.9830 H   0  0  0  0  0  0  0  0  0  0  0  0
   22.9877    4.2556   30.8956 C   0  0  0  0  0  0  0  0  0  0  0  0
   21.6079    4.5648   30.3557 C   0  0  0  0  0  0  0  0  0  0  0  0
   20.9778    3.6713   30.3736 H   0  0  0  0  0  0  0  0  0  0  0  0
   21.6947    4.9004   29.3202 H   0  0  0  0  0  0  0  0  0  0  0  0
   20.9296    5.6861   31.1343 C   0  0  0  0  0  0  0  0  0  0  0  0
   19.7380    5.6227   31.3882 O   0  0  0  0  0  0  0  0  0  0  0  0
   21.6061    6.8541   31.3321 N   0  0  0  0  0  0  0  0  0  0  0  0
   22.4831    6.9645   30.8500 H   0  0  0  0  0  0  0  0  0  0  0  0
   21.0188    8.0178   31.6860 C   0  0  0  0  0  0  0  0  0  0  0  0
   21.7509    9.0385   31.2940 N   0  0  0  0  0  0  0  0  0  0  0  0
   21.3761   10.2500   31.6603 C   0  0  0  0  0  0  0  0  0  0  0  0
   22.2800   11.3335   31.2769 C   0  0  0  0  0  0  0  0  0  0  0  0
   23.2815   10.9651   31.0660 H   0  0  0  0  0  0  0  0  0  0  0  0
   22.3231   12.0949   32.0482 H   0  0  0  0  0  0  0  0  0  0  0  0
   21.6688   11.8838   30.0417 C   0  0  0  0  0  0  0  0  0  0  0  0
   21.6599   11.2232   29.0229 O   0  0  0  0  0  0  0  0  0  0  0  0
   21.1464   13.1533   30.0904 N   0  0  0  0  0  0  0  0  0  0  0  0
   21.2843   13.6693   30.9503 H   0  0  0  0  0  0  0  0  0  0  0  0
   20.7063   13.8795   28.9054 C   0  0  0  0  0  0  0  0  0  0  0  0
   19.7594   13.4684   28.5365 H   0  0  0  0  0  0  0  0  0  0  0  0
   21.4673   13.7959   28.1224 H   0  0  0  0  0  0  0  0  0  0  0  0
   20.5667   14.9458   29.1257 H   0  0  0  0  0  0  0  0  0  0  0  0
   20.2550   10.4934   32.4270 C   0  0  0  0  0  0  0  0  0  0  0  0
   19.9339   11.8153   32.8558 C   0  0  0  0  0  0  0  0  0  0  0  0
   19.7133   12.9030   33.2042 N   0  0  0  0  0  0  0  0  0  0  0  0
   19.5236    9.3961   32.8157 C   0  0  0  0  0  0  0  0  0  0  0  0
   18.4792    9.4982   33.6635 N   0  0  0  0  0  0  0  0  0  0  0  0
   17.9359    8.6625   33.8763 H   0  0  0  0  0  0  0  0  0  0  0  0
   18.1454   10.4204   33.9173 H   0  0  0  0  0  0  0  0  0  0  0  0
   19.8703    8.1399   32.4240 C   0  0  0  0  0  0  0  0  0  0  0  0
   19.3012    7.2814   32.7503 H   0  0  0  0  0  0  0  0  0  0  0  0
   24.0734    5.0933   30.5742 C   0  0  0  0  0  0  0  0  0  0  0  0
   23.8485    6.1818   29.7579 O   0  0  0  0  0  0  0  0  0  0  0  0
   24.9315    7.1100   29.5925 C   0  0  0  0  0  0  0  0  0  0  0  0
   25.7788    6.6408   29.0791 H   0  0  0  0  0  0  0  0  0  0  0  0
   25.2669    7.4906   30.5642 H   0  0  0  0  0  0  0  0  0  0  0  0
   24.5968    7.9598   28.9902 H   0  0  0  0  0  0  0  0  0  0  0  0
  1  2  1  0
  2  3  2  0
  3  4  1  0
  3  5  1  0
  5  6  1  0
  6  7  1  0
  7  8  1  0
  7  9  1  0
  7 10  1  0
  5 11  2  0
 11 12  1  0
 11 13  1  0
 13 14  1  0
 14 15  1  0
 14 16  1  0
 14 17  1  0
 17 18  2  0
 17 19  1  0
 19 20  1  0
 19 21  1  0
 21 22  2  0
 22 23  1  0
 23 24  1  0
 24 25  1  0
 24 26  1  0
 24 27  1  0
 27 28  2  0
 27 29  1  0
 29 30  1  0
 29 31  1  0
 31 32  1  0
 31 33  1  0
 31 34  1  0
 23 35  2  0
 35 36  1  0
 36 37  3  0
 35 38  1  0
 38 39  1  0
 39 40  1  0
 39 41  1  0
 38 42  2  0
 42 43  1  0
 13 44  2  0
 44 45  1  0
 45 46  1  0
 46 47  1  0
 46 48  1  0
 46 49  1  0
 44  2  1  0
 42 21  1  0
M  END
>  <score>  (75) 
7.30507

$$$$

     RDKit          3D

 49 50  0  0  0  0  0  0  0  0999 V2000
   26.1446    5.4559   30.8662 H   0  0  0  0  0  0  0  0  0  0  0  0
   25.3075    4.8091   31.1085 C   0  0  0  0  0  0  0  0  0  0  0  0
   25.5130    3.7127   31.9491 C   0  0  0  0  0  0  0  0  0  0  0  0
   27.2738    3.4199   32.6495 Br  0  0  0  0  0  0  0  0  0  0  0  0
   24.4432    2.8578   32.2605 C   0  0  0  0  0  0  0  0  0  0  0  0
   24.6768    1.7800   33.0826 O   0  0  0  0  0  0  0  0  0  0  0  0
   23.6579    0.7711   33.1039 C   0  0  0  0  0  0  0  0  0  0  0  0
   22.7330    1.1684   33.5332 H   0  0  0  0  0  0  0  0  0  0  0  0
   23.9871   -0.0784   33.7103 H   0  0  0  0  0  0  0  0  0  0  0  0
   23.4536    0.4137   32.0890 H   0  0  0  0  0  0  0  0  0  0  0  0
   23.1726    3.1414   31.7261 C   0  0  0  0  0  0  0  0  0  0  0  0
   22.3448    2.4865   31.9780 H   0  0  0  0  0  0  0  0  0  0  0  0
   22.9594    4.2446   30.8885 C   0  0  0  0  0  0  0  0  0  0  0  0
   21.5571    4.5167   30.3694 C   0  0  0  0  0  0  0  0  0  0  0  0
   21.6070    4.8327   29.3259 H   0  0  0  0  0  0  0  0  0  0  0  0
   20.9370    3.6195   30.4310 H   0  0  0  0  0  0  0  0  0  0  0  0
   20.8833    5.6316   31.1513 C   0  0  0  0  0  0  0  0  0  0  0  0
   19.7063    5.5745   31.4653 O   0  0  0  0  0  0  0  0  0  0  0  0
   21.6064    6.7628   31.3660 N   0  0  0  0  0  0  0  0  0  0  0  0
   22.4820    6.8621   30.8786 H   0  0  0  0  0  0  0  0  0  0  0  0
   21.0931    7.9106   31.8329 C   0  0  0  0  0  0  0  0  0  0  0  0
   21.8835    8.9064   31.5025 N   0  0  0  0  0  0  0  0  0  0  0  0
   21.4969   10.1474   31.8091 C   0  0  0  0  0  0  0  0  0  0  0  0
   22.3961   11.2916   31.3592 C   0  0  0  0  0  0  0  0  0  0  0  0
   22.2079   12.1477   32.0140 H   0  0  0  0  0  0  0  0  0  0  0  0
   23.4273   10.9695   31.5361 H   0  0  0  0  0  0  0  0  0  0  0  0
   22.2667   11.6988   29.9350 N   0  0  0  0  0  0  0  0  0  0  0  0
   22.8776   11.2585   29.2509 H   0  0  0  0  0  0  0  0  0  0  0  0
   21.2785   12.5095   29.4094 C   0  0  0  0  0  0  0  0  0  0  0  0
   20.4501   13.0368   30.1324 O   0  0  0  0  0  0  0  0  0  0  0  0
   21.1608   12.6569   27.9086 C   0  0  0  0  0  0  0  0  0  0  0  0
   21.3005   11.6832   27.4392 H   0  0  0  0  0  0  0  0  0  0  0  0
   21.9229   13.3437   27.5357 H   0  0  0  0  0  0  0  0  0  0  0  0
   20.1636   13.0226   27.6557 H   0  0  0  0  0  0  0  0  0  0  0  0
   20.3221   10.3826   32.5204 C   0  0  0  0  0  0  0  0  0  0  0  0
   19.9493   11.7057   32.8996 C   0  0  0  0  0  0  0  0  0  0  0  0
   19.6986   12.7960   33.2181 N   0  0  0  0  0  0  0  0  0  0  0  0
   19.5430    9.3034   32.8668 C   0  0  0  0  0  0  0  0  0  0  0  0
   18.3833    9.4752   33.5529 N   0  0  0  0  0  0  0  0  0  0  0  0
   18.1333   10.4055   33.8778 H   0  0  0  0  0  0  0  0  0  0  0  0
   17.8831    8.6634   33.8995 H   0  0  0  0  0  0  0  0  0  0  0  0
   19.9117    8.0365   32.5183 C   0  0  0  0  0  0  0  0  0  0  0  0
   19.3017    7.1825   32.7804 H   0  0  0  0  0  0  0  0  0  0  0  0
   24.0398    5.0972   30.5747 C   0  0  0  0  0  0  0  0  0  0  0  0
   23.8169    6.1977   29.7769 O   0  0  0  0  0  0  0  0  0  0  0  0
   24.9327    7.0848   29.6123 C   0  0  0  0  0  0  0  0  0  0  0  0
   25.7618    6.5703   29.1140 H   0  0  0  0  0  0  0  0  0  0  0  0
   25.2796    7.4459   30.5869 H   0  0  0  0  0  0  0  0  0  0  0  0
   24.6380    7.9456   29.0050 H   0  0  0  0  0  0  0  0  0  0  0  0
  1  2  1  0
  2  3  2  0
  3  4  1  0
  3  5  1  0
  5  6  1  0
  6  7  1  0
  7  8  1  0
  7  9  1  0
  7 10  1  0
  5 11  2  0
 11 12  1  0
 11 13  1  0
 13 14  1  0
 14 15  1  0
 14 16  1  0
 14 17  1  0
 17 18  2  0
 17 19  1  0
 19 20  1  0
 19 21  1  0
 21 22  2  0
 22 23  1  0
 23 24  1  0
 24 25  1  0
 24 26  1  0
 24 27  1  0
 27 28  1  0
 27 29  1  0
 29 30  2  0
 29 31  1  0
 31 32  1  0
 31 33  1  0
 31 34  1  0
 23 35  2  0
 35 36  1  0
 36 37  3  0
 35 38  1  0
 38 39  1  0
 39 40  1  0
 39 41  1  0
 38 42  2  0
 42 43  1  0
 13 44  2  0
 44 45  1  0
 45 46  1  0
 46 47  1  0
 46 48  1  0
 46 49  1  0
 44  2  1  0
 42 21  1  0
M  END
>  <score>  (76) 
7.31028

$$$$

     RDKit          3D

 53 55  0  0  0  0  0  0  0  0999 V2000
   22.1191    9.1258   25.4247 H   0  0  0  0  0  0  0  0  0  0  0  0
   22.3993    9.5460   26.3846 C   0  0  0  0  0  0  0  0  0  0  0  0
   23.7288    9.5837   26.8216 C   0  0  0  0  0  0  0  0  0  0  0  0
   24.5408    9.2020   26.2355 H   0  0  0  0  0  0  0  0  0  0  0  0
   24.0582   10.1255   28.0618 C   0  0  0  0  0  0  0  0  0  0  0  0
   25.0843   10.1430   28.3984 H   0  0  0  0  0  0  0  0  0  0  0  0
   23.0730   10.6389   28.8913 C   0  0  0  0  0  0  0  0  0  0  0  0
   23.3999   11.1245   30.1335 O   0  0  0  0  0  0  0  0  0  0  0  0
   22.2804   11.4226   31.0109 C   0  0  0  0  0  0  0  0  0  0  0  0
   22.6762   11.9865   31.8537 H   0  0  0  0  0  0  0  0  0  0  0  0
   21.5833   12.0824   30.4898 H   0  0  0  0  0  0  0  0  0  0  0  0
   21.4620   10.2429   31.5556 C   0  0  0  0  0  0  0  0  0  0  0  0
   21.8090    8.9941   31.2282 N   0  0  0  0  0  0  0  0  0  0  0  0
   21.0976    7.9778   31.6686 C   0  0  0  0  0  0  0  0  0  0  0  0
   21.6188    6.8015   31.2685 N   0  0  0  0  0  0  0  0  0  0  0  0
   22.5046    6.8644   30.7899 H   0  0  0  0  0  0  0  0  0  0  0  0
   20.8998    5.6519   31.1249 C   0  0  0  0  0  0  0  0  0  0  0  0
   19.7433    5.5865   31.5119 O   0  0  0  0  0  0  0  0  0  0  0  0
   21.5476    4.4997   30.3688 C   0  0  0  0  0  0  0  0  0  0  0  0
   20.9263    3.6035   30.4598 H   0  0  0  0  0  0  0  0  0  0  0  0
   21.5953    4.7663   29.3104 H   0  0  0  0  0  0  0  0  0  0  0  0
   22.9487    4.2432   30.8920 C   0  0  0  0  0  0  0  0  0  0  0  0
   23.1693    3.1418   31.7274 C   0  0  0  0  0  0  0  0  0  0  0  0
   22.3432    2.4835   31.9735 H   0  0  0  0  0  0  0  0  0  0  0  0
   24.4418    2.8620   32.2565 C   0  0  0  0  0  0  0  0  0  0  0  0
   24.6774    1.7781   33.0693 O   0  0  0  0  0  0  0  0  0  0  0  0
   23.6495    0.7784   33.0969 C   0  0  0  0  0  0  0  0  0  0  0  0
   22.7292    1.1845   33.5277 H   0  0  0  0  0  0  0  0  0  0  0  0
   23.4386    0.4155   32.0852 H   0  0  0  0  0  0  0  0  0  0  0  0
   23.9732   -0.0693   33.7069 H   0  0  0  0  0  0  0  0  0  0  0  0
   25.5071    3.7205   31.9474 C   0  0  0  0  0  0  0  0  0  0  0  0
   27.2629    3.4285   32.6579 Br  0  0  0  0  0  0  0  0  0  0  0  0
   25.2934    4.8194   31.1133 C   0  0  0  0  0  0  0  0  0  0  0  0
   26.1275    5.4690   30.8716 H   0  0  0  0  0  0  0  0  0  0  0  0
   24.0235    5.1047   30.5848 C   0  0  0  0  0  0  0  0  0  0  0  0
   23.8023    6.2084   29.7904 O   0  0  0  0  0  0  0  0  0  0  0  0
   24.9210    7.0913   29.6138 C   0  0  0  0  0  0  0  0  0  0  0  0
   25.7479    6.5707   29.1191 H   0  0  0  0  0  0  0  0  0  0  0  0
   24.6315    7.9446   28.9959 H   0  0  0  0  0  0  0  0  0  0  0  0
   25.2700    7.4675   30.5815 H   0  0  0  0  0  0  0  0  0  0  0  0
   19.9857    8.1090   32.4448 C   0  0  0  0  0  0  0  0  0  0  0  0
   19.4463    7.2424   32.7862 H   0  0  0  0  0  0  0  0  0  0  0  0
   19.6154    9.3686   32.7899 C   0  0  0  0  0  0  0  0  0  0  0  0
   18.5064    9.4929   33.5546 N   0  0  0  0  0  0  0  0  0  0  0  0
   17.9969    8.6575   33.8420 H   0  0  0  0  0  0  0  0  0  0  0  0
   18.1880   10.4222   33.8108 H   0  0  0  0  0  0  0  0  0  0  0  0
   20.3508   10.4616   32.3755 C   0  0  0  0  0  0  0  0  0  0  0  0
   19.9844   11.7781   32.7884 C   0  0  0  0  0  0  0  0  0  0  0  0
   19.7023   12.8506   33.1330 N   0  0  0  0  0  0  0  0  0  0  0  0
   21.7656   10.6544   28.4258 C   0  0  0  0  0  0  0  0  0  0  0  0
   21.0728   11.1511   29.0825 H   0  0  0  0  0  0  0  0  0  0  0  0
   21.4063   10.0820   27.1966 C   0  0  0  0  0  0  0  0  0  0  0  0
   20.3807   10.0664   26.8429 H   0  0  0  0  0  0  0  0  0  0  0  0
  1  2  1  0
  2  3  2  0
  3  4  1  0
  3  5  1  0
  5  6  1  0
  5  7  2  0
  7  8  1  0
  8  9  1  0
  9 10  1  0
  9 11  1  0
  9 12  1  0
 12 13  2  0
 13 14  1  0
 14 15  1  0
 15 16  1  0
 15 17  1  0
 17 18  2  0
 17 19  1  0
 19 20  1  0
 19 21  1  0
 19 22  1  0
 22 23  2  0
 23 24  1  0
 23 25  1  0
 25 26  1  0
 26 27  1  0
 27 28  1  0
 27 29  1  0
 27 30  1  0
 25 31  2  0
 31 32  1  0
 31 33  1  0
 33 34  1  0
 33 35  2  0
 35 36  1  0
 36 37  1  0
 37 38  1  0
 37 39  1  0
 37 40  1  0
 14 41  2  0
 41 42  1  0
 41 43  1  0
 43 44  1  0
 44 45  1  0
 44 46  1  0
 43 47  2  0
 47 48  1  0
 48 49  3  0
  7 50  1  0
 50 51  1  0
 50 52  2  0
 52 53  1  0
 52  2  1  0
 47 12  1  0
 35 22  1  0
M  END
>  <score>  (77) 
7.31226

$$$$

     RDKit          3D

 47 49  0  0  0  0  0  0  0  0999 V2000
   26.1580    5.4301   30.8413 H   0  0  0  0  0  0  0  0  0  0  0  0
   25.3186    4.7930   31.0991 C   0  0  0  0  0  0  0  0  0  0  0  0
   25.5096    3.6894   31.9415 C   0  0  0  0  0  0  0  0  0  0  0  0
   27.2631    3.3403   32.6318 Br  0  0  0  0  0  0  0  0  0  0  0  0
   24.4307    2.8536   32.2675 C   0  0  0  0  0  0  0  0  0  0  0  0
   24.6646    1.7901   33.1108 O   0  0  0  0  0  0  0  0  0  0  0  0
   23.6814    0.7464   33.1309 C   0  0  0  0  0  0  0  0  0  0  0  0
   23.4875    0.3772   32.1193 H   0  0  0  0  0  0  0  0  0  0  0  0
   22.7442    1.0977   33.5712 H   0  0  0  0  0  0  0  0  0  0  0  0
   24.0485   -0.0889   33.7332 H   0  0  0  0  0  0  0  0  0  0  0  0
   23.1657    3.1455   31.7271 C   0  0  0  0  0  0  0  0  0  0  0  0
   22.3422    2.4856   31.9769 H   0  0  0  0  0  0  0  0  0  0  0  0
   22.9682    4.2516   30.8794 C   0  0  0  0  0  0  0  0  0  0  0  0
   21.5904    4.5163   30.3043 C   0  0  0  0  0  0  0  0  0  0  0  0
   20.9802    3.6131   30.3229 H   0  0  0  0  0  0  0  0  0  0  0  0
   21.6927    4.8302   29.2624 H   0  0  0  0  0  0  0  0  0  0  0  0
   20.8655    5.6138   31.0680 C   0  0  0  0  0  0  0  0  0  0  0  0
   19.8130    5.4072   31.6467 O   0  0  0  0  0  0  0  0  0  0  0  0
   21.3891    6.8639   31.0216 N   0  0  0  0  0  0  0  0  0  0  0  0
   22.2565    7.0188   30.5315 H   0  0  0  0  0  0  0  0  0  0  0  0
   20.8894    7.9669   31.5928 C   0  0  0  0  0  0  0  0  0  0  0  0
   21.6509    8.9679   31.2233 N   0  0  0  0  0  0  0  0  0  0  0  0
   21.4100   10.2201   31.6457 C   0  0  0  0  0  0  0  0  0  0  0  0
   22.3382   11.3351   31.2073 C   0  0  0  0  0  0  0  0  0  0  0  0
   23.4137   11.2190   30.4586 N   0  0  0  0  0  0  0  0  0  0  0  0
   23.9144   12.4910   30.3402 C   0  0  0  0  0  0  0  0  0  0  0  0
   25.1489   12.7466   29.5343 C   0  0  0  0  0  0  0  0  0  0  0  0
   25.2208   12.0062   28.7325 H   0  0  0  0  0  0  0  0  0  0  0  0
   25.1316   13.7451   29.0934 H   0  0  0  0  0  0  0  0  0  0  0  0
   26.0319   12.6572   30.1697 H   0  0  0  0  0  0  0  0  0  0  0  0
   23.2127   13.3819   30.9820 N   0  0  0  0  0  0  0  0  0  0  0  0
   22.1561   12.6426   31.5710 O   0  0  0  0  0  0  0  0  0  0  0  0
   20.3023   10.4380   32.4801 C   0  0  0  0  0  0  0  0  0  0  0  0
   19.9576   11.7534   32.9101 C   0  0  0  0  0  0  0  0  0  0  0  0
   19.6789   12.8375   33.2262 N   0  0  0  0  0  0  0  0  0  0  0  0
   19.5319    9.3494   32.8653 C   0  0  0  0  0  0  0  0  0  0  0  0
   18.4774    9.4715   33.7096 N   0  0  0  0  0  0  0  0  0  0  0  0
   17.8949    8.6594   33.9172 H   0  0  0  0  0  0  0  0  0  0  0  0
   18.1517   10.4064   33.9317 H   0  0  0  0  0  0  0  0  0  0  0  0
   19.8200    8.0953   32.4282 C   0  0  0  0  0  0  0  0  0  0  0  0
   19.2229    7.2604   32.7457 H   0  0  0  0  0  0  0  0  0  0  0  0
   24.0557    5.0937   30.5651 C   0  0  0  0  0  0  0  0  0  0  0  0
   23.8404    6.1792   29.7421 O   0  0  0  0  0  0  0  0  0  0  0  0
   24.9272    7.1068   29.5917 C   0  0  0  0  0  0  0  0  0  0  0  0
   25.2561    7.4815   30.5662 H   0  0  0  0  0  0  0  0  0  0  0  0
   24.6011    7.9601   28.9931 H   0  0  0  0  0  0  0  0  0  0  0  0
   25.7768    6.6408   29.0825 H   0  0  0  0  0  0  0  0  0  0  0  0
  1  2  1  0
  2  3  2  0
  3  4  1  0
  3  5  1  0
  5  6  1  0
  6  7  1  0
  7  8  1  0
  7  9  1  0
  7 10  1  0
  5 11  2  0
 11 12  1  0
 11 13  1  0
 13 14  1  0
 14 15  1  0
 14 16  1  0
 14 17  1  0
 17 18  2  0
 17 19  1  0
 19 20  1  0
 19 21  1  0
 21 22  2  0
 22 23  1  0
 23 24  1  0
 24 25  2  0
 25 26  1  0
 26 27  1  0
 27 28  1  0
 27 29  1  0
 27 30  1  0
 26 31  2  0
 31 32  1  0
 23 33  2  0
 33 34  1  0
 34 35  3  0
 33 36  1  0
 36 37  1  0
 37 38  1  0
 37 39  1  0
 36 40  2  0
 40 41  1  0
 13 42  2  0
 42 43  1  0
 43 44  1  0
 44 45  1  0
 44 46  1  0
 44 47  1  0
 42  2  1  0
 40 21  1  0
 32 24  1  0
M  END
>  <score>  (78) 
7.3171

$$$$

     RDKit          3D

 53 55  0  0  0  0  0  0  0  0999 V2000
   24.2782   10.6639   32.4011 H   0  0  0  0  0  0  0  0  0  0  0  0
   23.9636   11.0914   31.5851 O   0  0  0  0  0  0  0  0  0  0  0  0
   22.5264   11.3242   31.6323 C   0  0  2  0  0  0  0  0  0  0  0  0
   22.3093   12.0746   32.3947 H   0  0  0  0  0  0  0  0  0  0  0  0
   21.6038   10.1203   31.9339 C   0  0  0  0  0  0  0  0  0  0  0  0
   21.9266    8.8861   31.5070 N   0  0  0  0  0  0  0  0  0  0  0  0
   21.1411    7.8698   31.7962 C   0  0  0  0  0  0  0  0  0  0  0  0
   21.6026    6.7471   31.2115 N   0  0  0  0  0  0  0  0  0  0  0  0
   22.4704    6.8549   30.7019 H   0  0  0  0  0  0  0  0  0  0  0  0
   20.9108    5.5748   31.0856 C   0  0  0  0  0  0  0  0  0  0  0  0
   19.7777    5.4670   31.5298 O   0  0  0  0  0  0  0  0  0  0  0  0
   21.5584    4.4236   30.3228 C   0  0  0  0  0  0  0  0  0  0  0  0
   20.9650    3.5149   30.4558 H   0  0  0  0  0  0  0  0  0  0  0  0
   21.5968    4.6496   29.2532 H   0  0  0  0  0  0  0  0  0  0  0  0
   22.9543    4.1955   30.8480 C   0  0  0  0  0  0  0  0  0  0  0  0
   23.1777    3.0976   31.6858 C   0  0  0  0  0  0  0  0  0  0  0  0
   22.3615    2.4226   31.9213 H   0  0  0  0  0  0  0  0  0  0  0  0
   24.4391    2.8436   32.2494 C   0  0  0  0  0  0  0  0  0  0  0  0
   24.6693    1.7635   33.0712 O   0  0  0  0  0  0  0  0  0  0  0  0
   23.6293    0.7754   33.0963 C   0  0  0  0  0  0  0  0  0  0  0  0
   22.7104    1.1929   33.5220 H   0  0  0  0  0  0  0  0  0  0  0  0
   23.4185    0.4184   32.0818 H   0  0  0  0  0  0  0  0  0  0  0  0
   23.9412   -0.0756   33.7074 H   0  0  0  0  0  0  0  0  0  0  0  0
   25.4911    3.7272   31.9624 C   0  0  0  0  0  0  0  0  0  0  0  0
   27.2388    3.4541   32.6901 Br  0  0  0  0  0  0  0  0  0  0  0  0
   25.2713    4.8340   31.1370 C   0  0  0  0  0  0  0  0  0  0  0  0
   26.0889    5.5158   30.9221 H   0  0  0  0  0  0  0  0  0  0  0  0
   24.0109    5.0897   30.5748 C   0  0  0  0  0  0  0  0  0  0  0  0
   23.7847    6.2034   29.7950 O   0  0  0  0  0  0  0  0  0  0  0  0
   24.9079    7.0812   29.6107 C   0  0  0  0  0  0  0  0  0  0  0  0
   24.6226    7.9424   28.9984 H   0  0  0  0  0  0  0  0  0  0  0  0
   25.7265    6.5536   29.1095 H   0  0  0  0  0  0  0  0  0  0  0  0
   25.2677    7.4461   30.5785 H   0  0  0  0  0  0  0  0  0  0  0  0
   20.0110    7.9690   32.5580 C   0  0  0  0  0  0  0  0  0  0  0  0
   19.4240    7.1005   32.8087 H   0  0  0  0  0  0  0  0  0  0  0  0
   19.6474    9.2145   32.9646 C   0  0  0  0  0  0  0  0  0  0  0  0
   18.5148    9.3107   33.7010 N   0  0  0  0  0  0  0  0  0  0  0  0
   17.9699    8.4545   33.7621 H   0  0  0  0  0  0  0  0  0  0  0  0
   18.0094   10.1851   33.5989 H   0  0  0  0  0  0  0  0  0  0  0  0
   20.4025   10.3190   32.6317 C   0  0  0  0  0  0  0  0  0  0  0  0
   19.9632   11.6191   33.0277 C   0  0  0  0  0  0  0  0  0  0  0  0
   19.6198   12.6845   33.3466 N   0  0  0  0  0  0  0  0  0  0  0  0
   22.0744   11.9248   30.3572 C   0  0  0  0  0  0  0  0  0  0  0  0
   21.3970   13.1461   30.3848 C   0  0  0  0  0  0  0  0  0  0  0  0
   21.3108   13.7096   31.3057 H   0  0  0  0  0  0  0  0  0  0  0  0
   20.7516   13.6000   29.2453 C   0  0  0  0  0  0  0  0  0  0  0  0
   20.1918   14.5249   29.2581 H   0  0  0  0  0  0  0  0  0  0  0  0
   20.7812   12.8168   28.0966 C   0  0  0  0  0  0  0  0  0  0  0  0
   20.1586   13.0807   27.2604 H   0  0  0  0  0  0  0  0  0  0  0  0
   21.5273   11.6387   28.0464 C   0  0  0  0  0  0  0  0  0  0  0  0
   21.5012   11.0108   27.1632 H   0  0  0  0  0  0  0  0  0  0  0  0
   22.1754   11.1918   29.1806 C   0  0  0  0  0  0  0  0  0  0  0  0
   22.7023   10.2471   29.1750 H   0  0  0  0  0  0  0  0  0  0  0  0
  1  2  1  0
  2  3  1  0
  3  4  1  1
  3  5  1  0
  5  6  2  0
  6  7  1  0
  7  8  1  0
  8  9  1  0
  8 10  1  0
 10 11  2  0
 10 12  1  0
 12 13  1  0
 12 14  1  0
 12 15  1  0
 15 16  2  0
 16 17  1  0
 16 18  1  0
 18 19  1  0
 19 20  1  0
 20 21  1  0
 20 22  1  0
 20 23  1  0
 18 24  2  0
 24 25  1  0
 24 26  1  0
 26 27  1  0
 26 28  2  0
 28 29  1  0
 29 30  1  0
 30 31  1  0
 30 32  1  0
 30 33  1  0
  7 34  2  0
 34 35  1  0
 34 36  1  0
 36 37  1  0
 37 38  1  0
 37 39  1  0
 36 40  2  0
 40 41  1  0
 41 42  3  0
  3 43  1  0
 43 44  2  0
 44 45  1  0
 44 46  1  0
 46 47  1  0
 46 48  2  0
 48 49  1  0
 48 50  1  0
 50 51  1  0
 50 52  2  0
 52 53  1  0
 40  5  1  0
 52 43  1  0
 28 15  1  0
M  END
>  <score>  (79) 
7.31752

$$$$

     RDKit          3D

 53 55  0  0  0  0  0  0  0  0999 V2000
   25.4692   15.0277   28.6767 H   0  0  0  0  0  0  0  0  0  0  0  0
   24.8494   14.1835   28.9684 C   0  0  0  0  0  0  0  0  0  0  0  0
   25.1744   13.4389   30.1067 C   0  0  0  0  0  0  0  0  0  0  0  0
   26.0414   13.6951   30.6981 H   0  0  0  0  0  0  0  0  0  0  0  0
   24.4051   12.3309   30.4742 C   0  0  0  0  0  0  0  0  0  0  0  0
   24.6612   11.7389   31.3487 H   0  0  0  0  0  0  0  0  0  0  0  0
   23.3091   11.9438   29.6940 C   0  0  0  0  0  0  0  0  0  0  0  0
   22.5507   10.6965   30.0456 C   0  0  0  0  0  0  0  0  0  0  0  0
   21.9304   10.3650   29.2029 H   0  0  0  0  0  0  0  0  0  0  0  0
   23.2772    9.9000   30.2425 H   0  0  0  0  0  0  0  0  0  0  0  0
   21.7395   10.9796   31.1966 O   0  0  0  0  0  0  0  0  0  0  0  0
   21.0582    9.9259   31.7186 C   0  0  0  0  0  0  0  0  0  0  0  0
   21.4536    8.6854   31.4390 N   0  0  0  0  0  0  0  0  0  0  0  0
   20.7750    7.7077   31.9612 C   0  0  0  0  0  0  0  0  0  0  0  0
   21.3877    6.5788   31.6136 N   0  0  0  0  0  0  0  0  0  0  0  0
   22.2309    6.7597   31.0870 H   0  0  0  0  0  0  0  0  0  0  0  0
   20.7165    5.4395   31.3129 C   0  0  0  0  0  0  0  0  0  0  0  0
   19.5377    5.3110   31.6113 O   0  0  0  0  0  0  0  0  0  0  0  0
   21.4360    4.4410   30.4171 C   0  0  0  0  0  0  0  0  0  0  0  0
   21.4711    4.8423   29.4007 H   0  0  0  0  0  0  0  0  0  0  0  0
   20.8793    3.5025   30.3904 H   0  0  0  0  0  0  0  0  0  0  0  0
   22.8460    4.2045   30.9207 C   0  0  0  0  0  0  0  0  0  0  0  0
   23.0969    3.0731   31.7052 C   0  0  0  0  0  0  0  0  0  0  0  0
   22.3012    2.3624   31.9028 H   0  0  0  0  0  0  0  0  0  0  0  0
   24.3647    2.8257   32.2566 C   0  0  0  0  0  0  0  0  0  0  0  0
   24.6206    1.7176   33.0311 O   0  0  0  0  0  0  0  0  0  0  0  0
   23.5688    0.7448   33.0952 C   0  0  0  0  0  0  0  0  0  0  0  0
   23.3288    0.3748   32.0929 H   0  0  0  0  0  0  0  0  0  0  0  0
   23.8787   -0.1017   33.7137 H   0  0  0  0  0  0  0  0  0  0  0  0
   22.6684    1.1864   33.5332 H   0  0  0  0  0  0  0  0  0  0  0  0
   25.3972    3.7444   32.0107 C   0  0  0  0  0  0  0  0  0  0  0  0
   27.1458    3.4932   32.7527 Br  0  0  0  0  0  0  0  0  0  0  0  0
   25.1590    4.8657   31.2087 C   0  0  0  0  0  0  0  0  0  0  0  0
   25.9688    5.5592   31.0090 H   0  0  0  0  0  0  0  0  0  0  0  0
   23.8905    5.1182   30.6607 C   0  0  0  0  0  0  0  0  0  0  0  0
   23.6361    6.2377   29.8978 O   0  0  0  0  0  0  0  0  0  0  0  0
   24.7573    7.0881   29.6068 C   0  0  0  0  0  0  0  0  0  0  0  0
   25.1832    7.4966   30.5297 H   0  0  0  0  0  0  0  0  0  0  0  0
   24.4344    7.9215   28.9750 H   0  0  0  0  0  0  0  0  0  0  0  0
   25.5383    6.5323   29.0759 H   0  0  0  0  0  0  0  0  0  0  0  0
   19.6744    7.8459   32.7541 C   0  0  0  0  0  0  0  0  0  0  0  0
   19.1446    6.9936   33.1451 H   0  0  0  0  0  0  0  0  0  0  0  0
   19.3253    9.1234   33.0678 C   0  0  0  0  0  0  0  0  0  0  0  0
   18.2968    9.3313   33.9091 N   0  0  0  0  0  0  0  0  0  0  0  0
   17.6984    8.5364   34.1182 H   0  0  0  0  0  0  0  0  0  0  0  0
   17.9064   10.2686   33.9080 H   0  0  0  0  0  0  0  0  0  0  0  0
   20.0064   10.1900   32.5572 C   0  0  0  0  0  0  0  0  0  0  0  0
   19.6797   11.5346   32.8944 C   0  0  0  0  0  0  0  0  0  0  0  0
   19.4636   12.6479   33.1578 N   0  0  0  0  0  0  0  0  0  0  0  0
   22.9687   12.7069   28.5722 C   0  0  0  0  0  0  0  0  0  0  0  0
   22.1098   12.4184   27.9770 H   0  0  0  0  0  0  0  0  0  0  0  0
   23.7376   13.8152   28.2030 C   0  0  0  0  0  0  0  0  0  0  0  0
   23.4911   14.3655   27.3034 H   0  0  0  0  0  0  0  0  0  0  0  0
  1  2  1  0
  2  3  2  0
  3  4  1  0
  3  5  1  0
  5  6  1  0
  5  7  2  0
  7  8  1  0
  8  9  1  0
  8 10  1  0
  8 11  1  0
 11 12  1  0
 12 13  2  0
 13 14  1  0
 14 15  1  0
 15 16  1  0
 15 17  1  0
 17 18  2  0
 17 19  1  0
 19 20  1  0
 19 21  1  0
 19 22  1  0
 22 23  2  0
 23 24  1  0
 23 25  1  0
 25 26  1  0
 26 27  1  0
 27 28  1  0
 27 29  1  0
 27 30  1  0
 25 31  2  0
 31 32  1  0
 31 33  1  0
 33 34  1  0
 33 35  2  0
 35 36  1  0
 36 37  1  0
 37 38  1  0
 37 39  1  0
 37 40  1  0
 14 41  2  0
 41 42  1  0
 41 43  1  0
 43 44  1  0
 44 45  1  0
 44 46  1  0
 43 47  2  0
 47 48  1  0
 48 49  3  0
  7 50  1  0
 50 51  1  0
 50 52  2  0
 52 53  1  0
 52  2  1  0
 47 12  1  0
 35 22  1  0
M  END
>  <score>  (80) 
7.3184

$$$$

     RDKit          3D

 55 57  0  0  0  0  0  0  0  0999 V2000
   21.6802   18.1246   33.1763 H   0  0  0  0  0  0  0  0  0  0  0  0
   21.8455   17.1397   32.7603 C   0  0  0  0  0  0  0  0  0  0  0  0
   22.6796   16.2391   33.4442 C   0  0  0  0  0  0  0  0  0  0  0  0
   23.1176   16.4947   34.4047 H   0  0  0  0  0  0  0  0  0  0  0  0
   22.9442   14.9811   32.8992 C   0  0  0  0  0  0  0  0  0  0  0  0
   23.6118   14.2977   33.4217 H   0  0  0  0  0  0  0  0  0  0  0  0
   22.4147   14.6491   31.6402 C   0  0  0  0  0  0  0  0  0  0  0  0
   22.8617   13.4140   30.9417 C   0  0  0  0  0  0  0  0  0  0  0  0
   22.8269   13.5321   29.8519 H   0  0  0  0  0  0  0  0  0  0  0  0
   23.8937   13.1796   31.2255 H   0  0  0  0  0  0  0  0  0  0  0  0
   21.9575   12.4046   31.3659 O   0  0  0  0  0  0  0  0  0  0  0  0
   22.3964   11.1434   31.1643 C   0  0  0  0  0  0  0  0  0  0  0  0
   23.4552   10.8622   30.5893 O   0  0  0  0  0  0  0  0  0  0  0  0
   21.4907   10.0562   31.6931 C   0  0  0  0  0  0  0  0  0  0  0  0
   21.7929    8.7830   31.4008 N   0  0  0  0  0  0  0  0  0  0  0  0
   21.0134    7.8194   31.8066 C   0  0  0  0  0  0  0  0  0  0  0  0
   21.5476    6.6789   31.3782 N   0  0  0  0  0  0  0  0  0  0  0  0
   22.4224    6.8009   30.8904 H   0  0  0  0  0  0  0  0  0  0  0  0
   20.8493    5.5484   31.1382 C   0  0  0  0  0  0  0  0  0  0  0  0
   19.6803    5.4632   31.4764 O   0  0  0  0  0  0  0  0  0  0  0  0
   21.5450    4.4574   30.3476 C   0  0  0  0  0  0  0  0  0  0  0  0
   21.5947    4.7729   29.3023 H   0  0  0  0  0  0  0  0  0  0  0  0
   20.9460    3.5452   30.4061 H   0  0  0  0  0  0  0  0  0  0  0  0
   22.9480    4.2232   30.8822 C   0  0  0  0  0  0  0  0  0  0  0  0
   23.1707    3.1289   31.7255 C   0  0  0  0  0  0  0  0  0  0  0  0
   22.3454    2.4687   31.9708 H   0  0  0  0  0  0  0  0  0  0  0  0
   24.4431    2.8570   32.2586 C   0  0  0  0  0  0  0  0  0  0  0  0
   24.6781    1.7763   33.0758 O   0  0  0  0  0  0  0  0  0  0  0  0
   23.6536    0.7721   33.1014 C   0  0  0  0  0  0  0  0  0  0  0  0
   22.7309    1.1749   33.5309 H   0  0  0  0  0  0  0  0  0  0  0  0
   23.4448    0.4119   32.0884 H   0  0  0  0  0  0  0  0  0  0  0  0
   23.9791   -0.0769   33.7097 H   0  0  0  0  0  0  0  0  0  0  0  0
   25.5062    3.7184   31.9479 C   0  0  0  0  0  0  0  0  0  0  0  0
   27.2636    3.4271   32.6567 Br  0  0  0  0  0  0  0  0  0  0  0  0
   25.2890    4.8168   31.1144 C   0  0  0  0  0  0  0  0  0  0  0  0
   26.1238    5.4669   30.8767 H   0  0  0  0  0  0  0  0  0  0  0  0
   24.0185    5.0958   30.5821 C   0  0  0  0  0  0  0  0  0  0  0  0
   23.7987    6.2011   29.7892 O   0  0  0  0  0  0  0  0  0  0  0  0
   24.9193    7.0849   29.6165 C   0  0  0  0  0  0  0  0  0  0  0  0
   25.7447    6.5675   29.1158 H   0  0  0  0  0  0  0  0  0  0  0  0
   24.6293    7.9454   29.0077 H   0  0  0  0  0  0  0  0  0  0  0  0
   25.2740    7.4507   30.5862 H   0  0  0  0  0  0  0  0  0  0  0  0
   19.8692    7.9892   32.5238 C   0  0  0  0  0  0  0  0  0  0  0  0
   19.2734    7.1446   32.8248 H   0  0  0  0  0  0  0  0  0  0  0  0
   19.5295    9.2692   32.8395 C   0  0  0  0  0  0  0  0  0  0  0  0
   18.3725    9.4604   33.5209 N   0  0  0  0  0  0  0  0  0  0  0  0
   17.9104    8.6494   33.9256 H   0  0  0  0  0  0  0  0  0  0  0  0
   18.1726   10.3918   33.8786 H   0  0  0  0  0  0  0  0  0  0  0  0
   20.3356   10.3255   32.4589 C   0  0  0  0  0  0  0  0  0  0  0  0
   19.9814   11.6538   32.8463 C   0  0  0  0  0  0  0  0  0  0  0  0
   19.7004   12.7355   33.1684 N   0  0  0  0  0  0  0  0  0  0  0  0
   21.4811   15.4970   31.0225 C   0  0  0  0  0  0  0  0  0  0  0  0
   21.0138   15.2243   30.0787 H   0  0  0  0  0  0  0  0  0  0  0  0
   21.1946   16.7447   31.5817 C   0  0  0  0  0  0  0  0  0  0  0  0
   20.5013   17.4065   31.0695 H   0  0  0  0  0  0  0  0  0  0  0  0
  1  2  1  0
  2  3  2  0
  3  4  1  0
  3  5  1  0
  5  6  1  0
  5  7  2  0
  7  8  1  0
  8  9  1  0
  8 10  1  0
  8 11  1  0
 11 12  1  0
 12 13  2  0
 12 14  1  0
 14 15  2  0
 15 16  1  0
 16 17  1  0
 17 18  1  0
 17 19  1  0
 19 20  2  0
 19 21  1  0
 21 22  1  0
 21 23  1  0
 21 24  1  0
 24 25  2  0
 25 26  1  0
 25 27  1  0
 27 28  1  0
 28 29  1  0
 29 30  1  0
 29 31  1  0
 29 32  1  0
 27 33  2  0
 33 34  1  0
 33 35  1  0
 35 36  1  0
 35 37  2  0
 37 38  1  0
 38 39  1  0
 39 40  1  0
 39 41  1  0
 39 42  1  0
 16 43  2  0
 43 44  1  0
 43 45  1  0
 45 46  1  0
 46 47  1  0
 46 48  1  0
 45 49  2  0
 49 50  1  0
 50 51  3  0
  7 52  1  0
 52 53  1  0
 52 54  2  0
 54 55  1  0
 54  2  1  0
 49 14  1  0
 37 24  1  0
M  END
>  <score>  (81) 
7.32019

$$$$

     RDKit          3D

 56 57  0  0  0  0  0  0  0  0999 V2000
   26.0910    5.4982   30.8809 H   0  0  0  0  0  0  0  0  0  0  0  0
   25.2591    4.8464   31.1286 C   0  0  0  0  0  0  0  0  0  0  0  0
   25.4738    3.7397   31.9532 C   0  0  0  0  0  0  0  0  0  0  0  0
   27.2355    3.4228   32.6390 Br  0  0  0  0  0  0  0  0  0  0  0  0
   24.4095    2.8789   32.2603 C   0  0  0  0  0  0  0  0  0  0  0  0
   24.6530    1.7845   33.0573 O   0  0  0  0  0  0  0  0  0  0  0  0
   23.6230    0.7874   33.0856 C   0  0  0  0  0  0  0  0  0  0  0  0
   23.9449   -0.0607   33.6970 H   0  0  0  0  0  0  0  0  0  0  0  0
   22.7035    1.1979   33.5143 H   0  0  0  0  0  0  0  0  0  0  0  0
   23.4107    0.4250   32.0738 H   0  0  0  0  0  0  0  0  0  0  0  0
   23.1337    3.1714   31.7453 C   0  0  0  0  0  0  0  0  0  0  0  0
   22.3115    2.5086   31.9966 H   0  0  0  0  0  0  0  0  0  0  0  0
   22.9109    4.2880   30.9284 C   0  0  0  0  0  0  0  0  0  0  0  0
   21.5086    4.5571   30.4279 C   0  0  0  0  0  0  0  0  0  0  0  0
   20.8963    3.6581   30.5256 H   0  0  0  0  0  0  0  0  0  0  0  0
   21.5454    4.8249   29.3714 H   0  0  0  0  0  0  0  0  0  0  0  0
   20.8543    5.6975   31.1918 C   0  0  0  0  0  0  0  0  0  0  0  0
   19.7041    5.5956   31.5909 O   0  0  0  0  0  0  0  0  0  0  0  0
   21.5404    6.8697   31.3082 N   0  0  0  0  0  0  0  0  0  0  0  0
   22.3976    6.9787   30.7875 H   0  0  0  0  0  0  0  0  0  0  0  0
   21.0492    8.0276   31.7698 C   0  0  0  0  0  0  0  0  0  0  0  0
   21.7941    9.0227   31.3456 N   0  0  0  0  0  0  0  0  0  0  0  0
   21.4388   10.2642   31.6778 C   0  0  0  0  0  0  0  0  0  0  0  0
   22.3241   11.3735   31.1466 C   0  0  0  0  0  0  0  0  0  0  0  0
   23.3254   10.9584   30.9845 H   0  0  0  0  0  0  0  0  0  0  0  0
   22.4108   12.1666   31.8977 H   0  0  0  0  0  0  0  0  0  0  0  0
   21.8282   11.9728   29.8122 C   0  0  0  0  0  0  0  0  0  0  0  0
   20.7761   12.2649   29.8960 H   0  0  0  0  0  0  0  0  0  0  0  0
   21.9001   11.2121   29.0264 H   0  0  0  0  0  0  0  0  0  0  0  0
   22.6460   13.2156   29.4189 C   0  0  0  0  0  0  0  0  0  0  0  0
   22.2076   13.6798   28.5307 H   0  0  0  0  0  0  0  0  0  0  0  0
   22.5870   13.9493   30.2300 H   0  0  0  0  0  0  0  0  0  0  0  0
   24.0602   12.8778   29.1623 N   0  0  0  0  0  0  0  0  0  0  0  0
   25.0020   13.9996   29.2631 C   0  0  0  0  0  0  0  0  0  0  0  0
   26.0321   13.6582   29.1537 H   0  0  0  0  0  0  0  0  0  0  0  0
   24.9049   14.4716   30.2363 H   0  0  0  0  0  0  0  0  0  0  0  0
   24.8018   14.7471   28.4951 H   0  0  0  0  0  0  0  0  0  0  0  0
   24.3381   11.9488   28.0552 C   0  0  0  0  0  0  0  0  0  0  0  0
   24.4047   12.4884   27.1092 H   0  0  0  0  0  0  0  0  0  0  0  0
   23.5582   11.1904   27.9691 H   0  0  0  0  0  0  0  0  0  0  0  0
   25.2874   11.4349   28.2154 H   0  0  0  0  0  0  0  0  0  0  0  0
   20.3475   10.5133   32.5112 C   0  0  0  0  0  0  0  0  0  0  0  0
   20.0195   11.8495   32.8925 C   0  0  0  0  0  0  0  0  0  0  0  0
   19.8305   12.9626   33.1732 N   0  0  0  0  0  0  0  0  0  0  0  0
   19.6113    9.4320   32.9446 C   0  0  0  0  0  0  0  0  0  0  0  0
   18.5262    9.5506   33.7373 N   0  0  0  0  0  0  0  0  0  0  0  0
   17.8433    8.8022   33.6497 H   0  0  0  0  0  0  0  0  0  0  0  0
   18.1925   10.4932   33.9147 H   0  0  0  0  0  0  0  0  0  0  0  0
   19.9398    8.1725   32.5488 C   0  0  0  0  0  0  0  0  0  0  0  0
   19.3569    7.3211   32.8516 H   0  0  0  0  0  0  0  0  0  0  0  0
   23.9887    5.1433   30.6093 C   0  0  0  0  0  0  0  0  0  0  0  0
   23.7786    6.2551   29.8215 O   0  0  0  0  0  0  0  0  0  0  0  0
   24.9186    7.1073   29.6162 C   0  0  0  0  0  0  0  0  0  0  0  0
   24.6449    7.9655   28.9958 H   0  0  0  0  0  0  0  0  0  0  0  0
   25.7227    6.5591   29.1142 H   0  0  0  0  0  0  0  0  0  0  0  0
   25.2962    7.4780   30.5751 H   0  0  0  0  0  0  0  0  0  0  0  0
  1  2  1  0
  2  3  2  0
  3  4  1  0
  3  5  1  0
  5  6  1  0
  6  7  1  0
  7  8  1  0
  7  9  1  0
  7 10  1  0
  5 11  2  0
 11 12  1  0
 11 13  1  0
 13 14  1  0
 14 15  1  0
 14 16  1  0
 14 17  1  0
 17 18  2  0
 17 19  1  0
 19 20  1  0
 19 21  1  0
 21 22  2  0
 22 23  1  0
 23 24  1  0
 24 25  1  0
 24 26  1  0
 24 27  1  0
 27 28  1  0
 27 29  1  0
 27 30  1  0
 30 31  1  0
 30 32  1  0
 30 33  1  0
 33 34  1  0
 34 35  1  0
 34 36  1  0
 34 37  1  0
 33 38  1  0
 38 39  1  0
 38 40  1  0
 38 41  1  0
 23 42  2  0
 42 43  1  0
 43 44  3  0
 42 45  1  0
 45 46  1  0
 46 47  1  0
 46 48  1  0
 45 49  2  0
 49 50  1  0
 13 51  2  0
 51 52  1  0
 52 53  1  0
 53 54  1  0
 53 55  1  0
 53 56  1  0
 51  2  1  0
 49 21  1  0
M  END
>  <score>  (82) 
7.32223

$$$$

     RDKit          3D

 48 49  0  0  0  0  0  0  0  0999 V2000
   26.1664    5.4249   30.8400 H   0  0  0  0  0  0  0  0  0  0  0  0
   25.3253    4.7908   31.0990 C   0  0  0  0  0  0  0  0  0  0  0  0
   25.5114    3.6865   31.9405 C   0  0  0  0  0  0  0  0  0  0  0  0
   27.2624    3.3308   32.6316 Br  0  0  0  0  0  0  0  0  0  0  0  0
   24.4299    2.8537   32.2673 C   0  0  0  0  0  0  0  0  0  0  0  0
   24.6620    1.7900   33.1105 O   0  0  0  0  0  0  0  0  0  0  0  0
   23.6824    0.7434   33.1326 C   0  0  0  0  0  0  0  0  0  0  0  0
   22.7447    1.0924   33.5749 H   0  0  0  0  0  0  0  0  0  0  0  0
   24.0547   -0.0899   33.7357 H   0  0  0  0  0  0  0  0  0  0  0  0
   23.4893    0.3727   32.1209 H   0  0  0  0  0  0  0  0  0  0  0  0
   23.1654    3.1518   31.7288 C   0  0  0  0  0  0  0  0  0  0  0  0
   22.3388    2.4944   31.9769 H   0  0  0  0  0  0  0  0  0  0  0  0
   22.9725    4.2624   30.8851 C   0  0  0  0  0  0  0  0  0  0  0  0
   21.5965    4.5517   30.3133 C   0  0  0  0  0  0  0  0  0  0  0  0
   21.7035    4.8497   29.2659 H   0  0  0  0  0  0  0  0  0  0  0  0
   20.9662    3.6596   30.3483 H   0  0  0  0  0  0  0  0  0  0  0  0
   20.8999    5.6862   31.0544 C   0  0  0  0  0  0  0  0  0  0  0  0
   19.8480    5.5086   31.6470 O   0  0  0  0  0  0  0  0  0  0  0  0
   21.4289    6.9347   30.9684 N   0  0  0  0  0  0  0  0  0  0  0  0
   22.2920    7.0749   30.4646 H   0  0  0  0  0  0  0  0  0  0  0  0
   20.9179    8.0489   31.5185 C   0  0  0  0  0  0  0  0  0  0  0  0
   21.6559    9.0649   31.1484 N   0  0  0  0  0  0  0  0  0  0  0  0
   21.3649   10.2530   31.6352 C   0  0  0  0  0  0  0  0  0  0  0  0
   22.2989   11.3027   31.2471 C   0  0  0  0  0  0  0  0  0  0  0  0
   22.3496   12.0722   32.0126 H   0  0  0  0  0  0  0  0  0  0  0  0
   23.2933   10.9064   31.0506 H   0  0  0  0  0  0  0  0  0  0  0  0
   21.6863   11.8553   30.0139 C   0  0  0  0  0  0  0  0  0  0  0  0
   21.8329   11.2811   28.9427 O   0  0  0  0  0  0  0  0  0  0  0  0
   20.9685   12.9671   30.2328 O   0  0  0  0  0  0  0  0  0  0  0  0
   20.5191   13.6495   29.0641 C   0  0  0  0  0  0  0  0  0  0  0  0
   19.7499   13.0692   28.5446 H   0  0  0  0  0  0  0  0  0  0  0  0
   21.3471   13.8775   28.3842 H   0  0  0  0  0  0  0  0  0  0  0  0
   20.0904   14.5946   29.3707 H   0  0  0  0  0  0  0  0  0  0  0  0
   20.2820   10.4872   32.4575 C   0  0  0  0  0  0  0  0  0  0  0  0
   19.9568   11.8085   32.8889 C   0  0  0  0  0  0  0  0  0  0  0  0
   19.6985   12.8940   33.2177 N   0  0  0  0  0  0  0  0  0  0  0  0
   19.5480    9.3866   32.8352 C   0  0  0  0  0  0  0  0  0  0  0  0
   18.5179    9.4869   33.7043 N   0  0  0  0  0  0  0  0  0  0  0  0
   18.1629   10.4138   33.9151 H   0  0  0  0  0  0  0  0  0  0  0  0
   17.9434    8.6646   33.8797 H   0  0  0  0  0  0  0  0  0  0  0  0
   19.8587    8.1389   32.3834 C   0  0  0  0  0  0  0  0  0  0  0  0
   19.3062    7.2788   32.7256 H   0  0  0  0  0  0  0  0  0  0  0  0
   24.0635    5.0978   30.5682 C   0  0  0  0  0  0  0  0  0  0  0  0
   23.8475    6.1819   29.7443 O   0  0  0  0  0  0  0  0  0  0  0  0
   24.9302    7.1109   29.5886 C   0  0  0  0  0  0  0  0  0  0  0  0
   24.5979    7.9619   28.9884 H   0  0  0  0  0  0  0  0  0  0  0  0
   25.2592    7.4876   30.5627 H   0  0  0  0  0  0  0  0  0  0  0  0
   25.7792    6.6445   29.0779 H   0  0  0  0  0  0  0  0  0  0  0  0
  1  2  1  0
  2  3  2  0
  3  4  1  0
  3  5  1  0
  5  6  1  0
  6  7  1  0
  7  8  1  0
  7  9  1  0
  7 10  1  0
  5 11  2  0
 11 12  1  0
 11 13  1  0
 13 14  1  0
 14 15  1  0
 14 16  1  0
 14 17  1  0
 17 18  2  0
 17 19  1  0
 19 20  1  0
 19 21  1  0
 21 22  2  0
 22 23  1  0
 23 24  1  0
 24 25  1  0
 24 26  1  0
 24 27  1  0
 27 28  2  0
 27 29  1  0
 29 30  1  0
 30 31  1  0
 30 32  1  0
 30 33  1  0
 23 34  2  0
 34 35  1  0
 35 36  3  0
 34 37  1  0
 37 38  1  0
 38 39  1  0
 38 40  1  0
 37 41  2  0
 41 42  1  0
 13 43  2  0
 43 44  1  0
 44 45  1  0
 45 46  1  0
 45 47  1  0
 45 48  1  0
 43  2  1  0
 41 21  1  0
M  END
>  <score>  (83) 
7.3225

$$$$

     RDKit          3D

 41 42  0  0  0  0  0  0  0  0999 V2000
   26.1788    5.4194   30.8455 H   0  0  0  0  0  0  0  0  0  0  0  0
   25.3380    4.7834   31.1022 C   0  0  0  0  0  0  0  0  0  0  0  0
   25.5224    3.6791   31.9449 C   0  0  0  0  0  0  0  0  0  0  0  0
   27.2716    3.3203   32.6356 Br  0  0  0  0  0  0  0  0  0  0  0  0
   24.4410    2.8452   32.2721 C   0  0  0  0  0  0  0  0  0  0  0  0
   24.6669    1.7833   33.1184 O   0  0  0  0  0  0  0  0  0  0  0  0
   23.6859    0.7380   33.1367 C   0  0  0  0  0  0  0  0  0  0  0  0
   24.0583   -0.0951   33.7394 H   0  0  0  0  0  0  0  0  0  0  0  0
   23.4941    0.3688   32.1237 H   0  0  0  0  0  0  0  0  0  0  0  0
   22.7482    1.0873   33.5796 H   0  0  0  0  0  0  0  0  0  0  0  0
   23.1793    3.1419   31.7315 C   0  0  0  0  0  0  0  0  0  0  0  0
   22.3469    2.4929   31.9819 H   0  0  0  0  0  0  0  0  0  0  0  0
   22.9891    4.2487   30.8876 C   0  0  0  0  0  0  0  0  0  0  0  0
   21.6066    4.5437   30.3431 C   0  0  0  0  0  0  0  0  0  0  0  0
   20.9924    3.6385   30.3424 H   0  0  0  0  0  0  0  0  0  0  0  0
   21.6973    4.8882   29.3113 H   0  0  0  0  0  0  0  0  0  0  0  0
   20.9074    5.6414   31.1329 C   0  0  0  0  0  0  0  0  0  0  0  0
   19.7164    5.5626   31.3821 O   0  0  0  0  0  0  0  0  0  0  0  0
   21.5804    6.8038   31.3674 N   0  0  0  0  0  0  0  0  0  0  0  0
   22.4594    6.9292   30.8892 H   0  0  0  0  0  0  0  0  0  0  0  0
   21.0097    7.9605   31.7446 C   0  0  0  0  0  0  0  0  0  0  0  0
   21.7600    8.9678   31.3493 N   0  0  0  0  0  0  0  0  0  0  0  0
   21.4323   10.2340   31.6776 C   0  0  0  0  0  0  0  0  0  0  0  0
   22.2618   11.3090   31.2358 N   0  0  0  0  0  4  0  0  0  0  0  0
   22.2015   12.3760   31.8608 O   0  0  0  0  0  0  0  0  0  0  0  0
   22.9968   11.1364   30.2528 O   0  0  0  0  0  1  0  0  0  0  0  0
   20.2991   10.4653   32.4728 C   0  0  0  0  0  0  0  0  0  0  0  0
   19.9473   11.7828   32.9011 C   0  0  0  0  0  0  0  0  0  0  0  0
   19.6858   12.8735   33.2195 N   0  0  0  0  0  0  0  0  0  0  0  0
   19.5392    9.3737   32.8463 C   0  0  0  0  0  0  0  0  0  0  0  0
   18.4571    9.4926   33.6455 N   0  0  0  0  0  0  0  0  0  0  0  0
   18.1602   10.4168   33.9332 H   0  0  0  0  0  0  0  0  0  0  0  0
   17.9204    8.6654   33.8932 H   0  0  0  0  0  0  0  0  0  0  0  0
   19.8572    8.1106   32.4643 C   0  0  0  0  0  0  0  0  0  0  0  0
   19.2385    7.2775   32.7580 H   0  0  0  0  0  0  0  0  0  0  0  0
   24.0770    5.0889   30.5709 C   0  0  0  0  0  0  0  0  0  0  0  0
   23.8536    6.1797   29.7577 O   0  0  0  0  0  0  0  0  0  0  0  0
   24.9315    7.1129   29.5912 C   0  0  0  0  0  0  0  0  0  0  0  0
   25.2643    7.4963   30.5615 H   0  0  0  0  0  0  0  0  0  0  0  0
   24.5909    7.9599   28.9892 H   0  0  0  0  0  0  0  0  0  0  0  0
   25.7781    6.6478   29.0753 H   0  0  0  0  0  0  0  0  0  0  0  0
  1  2  1  0
  2  3  2  0
  3  4  1  0
  3  5  1  0
  5  6  1  0
  6  7  1  0
  7  8  1  0
  7  9  1  0
  7 10  1  0
  5 11  2  0
 11 12  1  0
 11 13  1  0
 13 14  1  0
 14 15  1  0
 14 16  1  0
 14 17  1  0
 17 18  2  0
 17 19  1  0
 19 20  1  0
 19 21  1  0
 21 22  2  0
 22 23  1  0
 23 24  1  0
 24 25  2  0
 24 26  1  0
 23 27  2  0
 27 28  1  0
 28 29  3  0
 27 30  1  0
 30 31  1  0
 31 32  1  0
 31 33  1  0
 30 34  2  0
 34 35  1  0
 13 36  2  0
 36 37  1  0
 37 38  1  0
 38 39  1  0
 38 40  1  0
 38 41  1  0
 36  2  1  0
 34 21  1  0
M  CHG  2  24   1  26  -1
M  END
>  <score>  (84) 
7.32489

$$$$

     RDKit          3D

 47 48  0  0  0  0  0  0  0  0999 V2000
   23.8845   10.8939   27.2922 H   0  0  0  0  0  0  0  0  0  0  0  0
   24.1092   10.9438   28.2400 O   0  0  0  0  0  0  0  0  0  0  0  0
   22.9268   10.9957   29.0534 C   0  0  0  0  0  0  0  0  0  0  0  0
   22.2998   11.8315   28.7283 H   0  0  0  0  0  0  0  0  0  0  0  0
   22.3536   10.0720   28.9326 H   0  0  0  0  0  0  0  0  0  0  0  0
   23.3061   11.1867   30.5268 C   0  0  0  0  0  0  0  0  0  0  0  0
   23.9032   12.1034   30.6088 H   0  0  0  0  0  0  0  0  0  0  0  0
   23.9256   10.3443   30.8596 H   0  0  0  0  0  0  0  0  0  0  0  0
   22.1483   11.3469   31.3704 O   0  0  0  0  0  0  0  0  0  0  0  0
   21.3855   10.2518   31.6878 C   0  0  0  0  0  0  0  0  0  0  0  0
   21.6981    9.0455   31.2170 N   0  0  0  0  0  0  0  0  0  0  0  0
   20.9420    8.0353   31.5730 C   0  0  0  0  0  0  0  0  0  0  0  0
   21.4227    6.9366   30.9810 N   0  0  0  0  0  0  0  0  0  0  0  0
   22.2689    7.0950   30.4578 H   0  0  0  0  0  0  0  0  0  0  0  0
   20.8898    5.6854   31.0426 C   0  0  0  0  0  0  0  0  0  0  0  0
   19.8356    5.4994   31.6253 O   0  0  0  0  0  0  0  0  0  0  0  0
   21.6024    4.5541   30.3079 C   0  0  0  0  0  0  0  0  0  0  0  0
   21.7153    4.8565   29.2647 H   0  0  0  0  0  0  0  0  0  0  0  0
   20.9837    3.6521   30.3263 H   0  0  0  0  0  0  0  0  0  0  0  0
   22.9782    4.2649   30.8821 C   0  0  0  0  0  0  0  0  0  0  0  0
   23.1671    3.1537   31.7276 C   0  0  0  0  0  0  0  0  0  0  0  0
   22.3391    2.4996   31.9769 H   0  0  0  0  0  0  0  0  0  0  0  0
   24.4297    2.8484   32.2683 C   0  0  0  0  0  0  0  0  0  0  0  0
   24.6603    1.7869   33.1167 O   0  0  0  0  0  0  0  0  0  0  0  0
   23.6874    0.7365   33.1384 C   0  0  0  0  0  0  0  0  0  0  0  0
   22.7496    1.0781   33.5832 H   0  0  0  0  0  0  0  0  0  0  0  0
   24.0672   -0.0918   33.7408 H   0  0  0  0  0  0  0  0  0  0  0  0
   23.4957    0.3631   32.1285 H   0  0  0  0  0  0  0  0  0  0  0  0
   25.5142    3.6782   31.9421 C   0  0  0  0  0  0  0  0  0  0  0  0
   27.2647    3.3120   32.6315 Br  0  0  0  0  0  0  0  0  0  0  0  0
   25.3344    4.7850   31.0984 C   0  0  0  0  0  0  0  0  0  0  0  0
   26.1794    5.4170   30.8415 H   0  0  0  0  0  0  0  0  0  0  0  0
   24.0733    5.0959   30.5659 C   0  0  0  0  0  0  0  0  0  0  0  0
   23.8573    6.1810   29.7432 O   0  0  0  0  0  0  0  0  0  0  0  0
   24.9301    7.1188   29.5857 C   0  0  0  0  0  0  0  0  0  0  0  0
   25.7798    6.6602   29.0728 H   0  0  0  0  0  0  0  0  0  0  0  0
   24.5875    7.9653   28.9861 H   0  0  0  0  0  0  0  0  0  0  0  0
   25.2566    7.4997   30.5570 H   0  0  0  0  0  0  0  0  0  0  0  0
   19.8690    8.1180   32.4134 C   0  0  0  0  0  0  0  0  0  0  0  0
   19.2852    7.2637   32.7255 H   0  0  0  0  0  0  0  0  0  0  0  0
   19.5598    9.3627   32.8534 C   0  0  0  0  0  0  0  0  0  0  0  0
   18.4927    9.4772   33.6628 N   0  0  0  0  0  0  0  0  0  0  0  0
   17.9373    8.6563   33.8905 H   0  0  0  0  0  0  0  0  0  0  0  0
   18.1789   10.4038   33.9254 H   0  0  0  0  0  0  0  0  0  0  0  0
   20.2941   10.4607   32.4966 C   0  0  0  0  0  0  0  0  0  0  0  0
   19.9549   11.7868   32.9049 C   0  0  0  0  0  0  0  0  0  0  0  0
   19.7014   12.8819   33.2012 N   0  0  0  0  0  0  0  0  0  0  0  0
  1  2  1  0
  2  3  1  0
  3  4  1  0
  3  5  1  0
  3  6  1  0
  6  7  1  0
  6  8  1  0
  6  9  1  0
  9 10  1  0
 10 11  2  0
 11 12  1  0
 12 13  1  0
 13 14  1  0
 13 15  1  0
 15 16  2  0
 15 17  1  0
 17 18  1  0
 17 19  1  0
 17 20  1  0
 20 21  2  0
 21 22  1  0
 21 23  1  0
 23 24  1  0
 24 25  1  0
 25 26  1  0
 25 27  1  0
 25 28  1  0
 23 29  2  0
 29 30  1  0
 29 31  1  0
 31 32  1  0
 31 33  2  0
 33 34  1  0
 34 35  1  0
 35 36  1  0
 35 37  1  0
 35 38  1  0
 12 39  2  0
 39 40  1  0
 39 41  1  0
 41 42  1  0
 42 43  1  0
 42 44  1  0
 41 45  2  0
 45 46  1  0
 46 47  3  0
 45 10  1  0
 33 20  1  0
M  END
>  <score>  (85) 
7.32599

$$$$

     RDKit          3D

 52 53  0  0  0  0  0  0  0  0999 V2000
   26.1423    5.4778   30.8849 H   0  0  0  0  0  0  0  0  0  0  0  0
   25.3099    4.8216   31.1220 C   0  0  0  0  0  0  0  0  0  0  0  0
   25.5142    3.7162   31.9544 C   0  0  0  0  0  0  0  0  0  0  0  0
   27.2706    3.4100   32.6586 Br  0  0  0  0  0  0  0  0  0  0  0  0
   24.4438    2.8593   32.2593 C   0  0  0  0  0  0  0  0  0  0  0  0
   24.6769    1.7789   33.0783 O   0  0  0  0  0  0  0  0  0  0  0  0
   23.6504    0.7755   33.1001 C   0  0  0  0  0  0  0  0  0  0  0  0
   23.9758   -0.0743   33.7079 H   0  0  0  0  0  0  0  0  0  0  0  0
   22.7256    1.1772   33.5274 H   0  0  0  0  0  0  0  0  0  0  0  0
   23.4403    0.4152   32.0868 H   0  0  0  0  0  0  0  0  0  0  0  0
   23.1771    3.1394   31.7139 C   0  0  0  0  0  0  0  0  0  0  0  0
   22.3488    2.4849   31.9691 H   0  0  0  0  0  0  0  0  0  0  0  0
   22.9725    4.2388   30.8698 C   0  0  0  0  0  0  0  0  0  0  0  0
   21.5883    4.4914   30.3192 C   0  0  0  0  0  0  0  0  0  0  0  0
   20.9611    3.6050   30.4447 H   0  0  0  0  0  0  0  0  0  0  0  0
   21.6521    4.7012   29.2493 H   0  0  0  0  0  0  0  0  0  0  0  0
   20.9481    5.6725   31.0416 C   0  0  0  0  0  0  0  0  0  0  0  0
   19.8076    5.5787   31.4714 O   0  0  0  0  0  0  0  0  0  0  0  0
   21.6327    6.8462   31.1731 N   0  0  0  0  0  0  0  0  0  0  0  0
   22.4886    6.9722   30.6504 H   0  0  0  0  0  0  0  0  0  0  0  0
   21.1103    7.9794   31.6819 C   0  0  0  0  0  0  0  0  0  0  0  0
   21.7752    9.0387   31.2995 N   0  0  0  0  0  0  0  0  0  0  0  0
   21.3614   10.2364   31.7262 C   0  0  0  0  0  0  0  0  0  0  0  0
   22.0845   11.3541   31.4152 O   0  0  0  0  0  0  0  0  0  0  0  0
   23.2102   11.1819   30.5408 C   0  0  0  0  0  0  0  0  0  0  0  0
   23.8012   10.3149   30.8568 H   0  0  0  0  0  0  0  0  0  0  0  0
   23.8437   12.0712   30.6187 H   0  0  0  0  0  0  0  0  0  0  0  0
   22.7808   10.9908   29.0814 C   0  0  0  0  0  0  0  0  0  0  0  0
   22.2511   10.0366   28.9914 H   0  0  0  0  0  0  0  0  0  0  0  0
   21.8485   12.1269   28.6365 C   0  0  0  0  0  0  0  0  0  0  0  0
   21.0165   12.2298   29.3380 H   0  0  0  0  0  0  0  0  0  0  0  0
   22.3862   13.0782   28.5968 H   0  0  0  0  0  0  0  0  0  0  0  0
   21.4297   11.9245   27.6490 H   0  0  0  0  0  0  0  0  0  0  0  0
   24.0406   10.9595   28.2070 C   0  0  0  0  0  0  0  0  0  0  0  0
   23.8065   10.6117   27.1994 H   0  0  0  0  0  0  0  0  0  0  0  0
   24.4849   11.9577   28.1389 H   0  0  0  0  0  0  0  0  0  0  0  0
   24.7838   10.2788   28.6308 H   0  0  0  0  0  0  0  0  0  0  0  0
   20.2359   10.3874   32.5066 C   0  0  0  0  0  0  0  0  0  0  0  0
   19.8243   11.6752   32.9520 C   0  0  0  0  0  0  0  0  0  0  0  0
   19.5323   12.7368   33.3316 N   0  0  0  0  0  0  0  0  0  0  0  0
   19.5916    9.2499   32.8912 C   0  0  0  0  0  0  0  0  0  0  0  0
   18.5079    9.2778   33.6821 N   0  0  0  0  0  0  0  0  0  0  0  0
   18.1804    8.3735   34.0083 H   0  0  0  0  0  0  0  0  0  0  0  0
   17.8260   10.0035   33.4830 H   0  0  0  0  0  0  0  0  0  0  0  0
   20.0348    8.0285   32.5156 C   0  0  0  0  0  0  0  0  0  0  0  0
   19.5479    7.1425   32.8755 H   0  0  0  0  0  0  0  0  0  0  0  0
   24.0458    5.1047   30.5762 C   0  0  0  0  0  0  0  0  0  0  0  0
   23.8162    6.2161   29.7940 O   0  0  0  0  0  0  0  0  0  0  0  0
   24.9349    7.1000   29.6125 C   0  0  0  0  0  0  0  0  0  0  0  0
   25.7607    6.5769   29.1166 H   0  0  0  0  0  0  0  0  0  0  0  0
   24.6399    7.9537   28.9939 H   0  0  0  0  0  0  0  0  0  0  0  0
   25.2919    7.4767   30.5783 H   0  0  0  0  0  0  0  0  0  0  0  0
  1  2  1  0
  2  3  2  0
  3  4  1  0
  3  5  1  0
  5  6  1  0
  6  7  1  0
  7  8  1  0
  7  9  1  0
  7 10  1  0
  5 11  2  0
 11 12  1  0
 11 13  1  0
 13 14  1  0
 14 15  1  0
 14 16  1  0
 14 17  1  0
 17 18  2  0
 17 19  1  0
 19 20  1  0
 19 21  1  0
 21 22  2  0
 22 23  1  0
 23 24  1  0
 24 25  1  0
 25 26  1  0
 25 27  1  0
 25 28  1  0
 28 29  1  0
 28 30  1  0
 30 31  1  0
 30 32  1  0
 30 33  1  0
 28 34  1  0
 34 35  1  0
 34 36  1  0
 34 37  1  0
 23 38  2  0
 38 39  1  0
 39 40  3  0
 38 41  1  0
 41 42  1  0
 42 43  1  0
 42 44  1  0
 41 45  2  0
 45 46  1  0
 13 47  2  0
 47 48  1  0
 48 49  1  0
 49 50  1  0
 49 51  1  0
 49 52  1  0
 47  2  1  0
 45 21  1  0
M  END
>  <score>  (86) 
7.32722

$$$$

     RDKit          3D

 48 49  0  0  0  0  0  0  0  0999 V2000
   26.1369    5.4494   30.8465 H   0  0  0  0  0  0  0  0  0  0  0  0
   25.2966    4.8116   31.0991 C   0  0  0  0  0  0  0  0  0  0  0  0
   25.5007    3.7164   31.9425 C   0  0  0  0  0  0  0  0  0  0  0  0
   27.2585    3.3887   32.6325 Br  0  0  0  0  0  0  0  0  0  0  0  0
   24.4298    2.8655   32.2628 C   0  0  0  0  0  0  0  0  0  0  0  0
   24.6642    1.7924   33.0935 O   0  0  0  0  0  0  0  0  0  0  0  0
   23.6668    0.7619   33.1156 C   0  0  0  0  0  0  0  0  0  0  0  0
   23.4673    0.3996   32.1024 H   0  0  0  0  0  0  0  0  0  0  0  0
   22.7335    1.1349   33.5480 H   0  0  0  0  0  0  0  0  0  0  0  0
   24.0203   -0.0800   33.7203 H   0  0  0  0  0  0  0  0  0  0  0  0
   23.1594    3.1436   31.7249 C   0  0  0  0  0  0  0  0  0  0  0  0
   22.3312    2.4858   31.9713 H   0  0  0  0  0  0  0  0  0  0  0  0
   22.9519    4.2436   30.8780 C   0  0  0  0  0  0  0  0  0  0  0  0
   21.5697    4.5109   30.3257 C   0  0  0  0  0  0  0  0  0  0  0  0
   21.6550    4.8113   29.2764 H   0  0  0  0  0  0  0  0  0  0  0  0
   20.9515    3.6138   30.3757 H   0  0  0  0  0  0  0  0  0  0  0  0
   20.8848    5.6218   31.1033 C   0  0  0  0  0  0  0  0  0  0  0  0
   19.8320    5.4422   31.6911 O   0  0  0  0  0  0  0  0  0  0  0  0
   21.4322    6.8633   31.0321 N   0  0  0  0  0  0  0  0  0  0  0  0
   22.3059    6.9809   30.5409 H   0  0  0  0  0  0  0  0  0  0  0  0
   20.9320    7.9863   31.5699 C   0  0  0  0  0  0  0  0  0  0  0  0
   21.6821    8.9953   31.1978 N   0  0  0  0  0  0  0  0  0  0  0  0
   21.4092   10.2465   31.6169 C   0  0  0  0  0  0  0  0  0  0  0  0
   22.3037   11.3640   31.1110 C   0  0  0  0  0  0  0  0  0  0  0  0
   22.3314   12.4345   31.7271 O   0  0  0  0  0  0  0  0  0  0  0  0
   23.0209   11.1138   29.9655 O   0  0  0  0  0  0  0  0  0  0  0  0
   24.0247   12.0771   29.6298 C   0  0  0  0  0  0  0  0  0  0  0  0
   24.3716   11.8783   28.6094 H   0  0  0  0  0  0  0  0  0  0  0  0
   23.6310   13.0978   29.6786 H   0  0  0  0  0  0  0  0  0  0  0  0
   25.1810   11.9427   30.6066 C   0  0  0  0  0  0  0  0  0  0  0  0
   25.4693   10.8888   30.6748 H   0  0  0  0  0  0  0  0  0  0  0  0
   26.0431   12.5301   30.2765 H   0  0  0  0  0  0  0  0  0  0  0  0
   24.8894   12.2978   31.5998 H   0  0  0  0  0  0  0  0  0  0  0  0
   20.3193   10.4490   32.4861 C   0  0  0  0  0  0  0  0  0  0  0  0
   19.9621   11.7526   32.9445 C   0  0  0  0  0  0  0  0  0  0  0  0
   19.6598   12.8224   33.2854 N   0  0  0  0  0  0  0  0  0  0  0  0
   19.5676    9.3576   32.8725 C   0  0  0  0  0  0  0  0  0  0  0  0
   18.5313    9.4834   33.7411 N   0  0  0  0  0  0  0  0  0  0  0  0
   18.1562   10.4153   33.9149 H   0  0  0  0  0  0  0  0  0  0  0  0
   17.9352    8.6712   33.8721 H   0  0  0  0  0  0  0  0  0  0  0  0
   19.8489    8.1116   32.3943 C   0  0  0  0  0  0  0  0  0  0  0  0
   19.2475    7.2663   32.6788 H   0  0  0  0  0  0  0  0  0  0  0  0
   24.0308    5.0989   30.5668 C   0  0  0  0  0  0  0  0  0  0  0  0
   23.8214    6.1920   29.7534 O   0  0  0  0  0  0  0  0  0  0  0  0
   24.9252    7.0974   29.5993 C   0  0  0  0  0  0  0  0  0  0  0  0
   25.2614    7.4552   30.5771 H   0  0  0  0  0  0  0  0  0  0  0  0
   24.6199    7.9592   28.9974 H   0  0  0  0  0  0  0  0  0  0  0  0
   25.7660    6.6033   29.1022 H   0  0  0  0  0  0  0  0  0  0  0  0
  1  2  1  0
  2  3  2  0
  3  4  1  0
  3  5  1  0
  5  6  1  0
  6  7  1  0
  7  8  1  0
  7  9  1  0
  7 10  1  0
  5 11  2  0
 11 12  1  0
 11 13  1  0
 13 14  1  0
 14 15  1  0
 14 16  1  0
 14 17  1  0
 17 18  2  0
 17 19  1  0
 19 20  1  0
 19 21  1  0
 21 22  2  0
 22 23  1  0
 23 24  1  0
 24 25  2  0
 24 26  1  0
 26 27  1  0
 27 28  1  0
 27 29  1  0
 27 30  1  0
 30 31  1  0
 30 32  1  0
 30 33  1  0
 23 34  2  0
 34 35  1  0
 35 36  3  0
 34 37  1  0
 37 38  1  0
 38 39  1  0
 38 40  1  0
 37 41  2  0
 41 42  1  0
 13 43  2  0
 43 44  1  0
 44 45  1  0
 45 46  1  0
 45 47  1  0
 45 48  1  0
 43  2  1  0
 41 21  1  0
M  END
>  <score>  (87) 
7.32777

$$$$

     RDKit          3D

 42 43  0  0  0  0  0  0  0  0999 V2000
   26.1189    5.4893   30.8882 H   0  0  0  0  0  0  0  0  0  0  0  0
   25.2976    4.8206   31.1181 C   0  0  0  0  0  0  0  0  0  0  0  0
   25.5079    3.7182   31.9524 C   0  0  0  0  0  0  0  0  0  0  0  0
   27.2597    3.4222   32.6693 Br  0  0  0  0  0  0  0  0  0  0  0  0
   24.4441    2.8523   32.2509 C   0  0  0  0  0  0  0  0  0  0  0  0
   24.6715    1.7738   33.0716 O   0  0  0  0  0  0  0  0  0  0  0  0
   23.6420    0.7748   33.0973 C   0  0  0  0  0  0  0  0  0  0  0  0
   23.9635   -0.0750   33.7077 H   0  0  0  0  0  0  0  0  0  0  0  0
   22.7200    1.1841   33.5228 H   0  0  0  0  0  0  0  0  0  0  0  0
   23.4311    0.4154   32.0843 H   0  0  0  0  0  0  0  0  0  0  0  0
   23.1790    3.1212   31.7074 C   0  0  0  0  0  0  0  0  0  0  0  0
   22.3516    2.4641   31.9604 H   0  0  0  0  0  0  0  0  0  0  0  0
   22.9729    4.2205   30.8684 C   0  0  0  0  0  0  0  0  0  0  0  0
   21.5829    4.4766   30.3505 C   0  0  0  0  0  0  0  0  0  0  0  0
   21.6126    4.7473   29.2945 H   0  0  0  0  0  0  0  0  0  0  0  0
   20.9572    3.5865   30.4545 H   0  0  0  0  0  0  0  0  0  0  0  0
   20.9590    5.6165   31.1234 C   0  0  0  0  0  0  0  0  0  0  0  0
   19.8036    5.5311   31.4967 O   0  0  0  0  0  0  0  0  0  0  0  0
   21.6592    6.7702   31.3094 N   0  0  0  0  0  0  0  0  0  0  0  0
   22.5414    6.8859   30.8344 H   0  0  0  0  0  0  0  0  0  0  0  0
   21.0946    7.9146   31.7227 C   0  0  0  0  0  0  0  0  0  0  0  0
   21.8290    8.9605   31.4100 N   0  0  0  0  0  0  0  0  0  0  0  0
   21.3815   10.1720   31.7515 C   0  0  0  0  0  0  0  0  0  0  0  0
   22.1880   11.3589   31.3032 C   0  0  0  0  0  0  0  0  0  0  0  0
   23.1897   11.0263   31.0193 H   0  0  0  0  0  0  0  0  0  0  0  0
   22.2864   12.0645   32.1284 H   0  0  0  0  0  0  0  0  0  0  0  0
   21.4001   12.1953   29.9129 Cl  0  0  0  0  0  0  0  0  0  0  0  0
   20.2110   10.3404   32.4730 C   0  0  0  0  0  0  0  0  0  0  0  0
   19.7712   11.6314   32.8969 C   0  0  0  0  0  0  0  0  0  0  0  0
   19.4416   12.6819   33.2630 N   0  0  0  0  0  0  0  0  0  0  0  0
   19.4727    9.2271   32.7496 C   0  0  0  0  0  0  0  0  0  0  0  0
   18.3346    9.3380   33.4662 N   0  0  0  0  0  0  0  0  0  0  0  0
   18.3787    9.9873   34.2482 H   0  0  0  0  0  0  0  0  0  0  0  0
   17.7992    8.4862   33.5828 H   0  0  0  0  0  0  0  0  0  0  0  0
   19.8860    7.9960   32.3558 C   0  0  0  0  0  0  0  0  0  0  0  0
   19.3004    7.1269   32.5860 H   0  0  0  0  0  0  0  0  0  0  0  0
   24.0354    5.0978   30.5740 C   0  0  0  0  0  0  0  0  0  0  0  0
   23.8042    6.2157   29.7996 O   0  0  0  0  0  0  0  0  0  0  0  0
   24.9297    7.0903   29.6134 C   0  0  0  0  0  0  0  0  0  0  0  0
   24.6425    7.9487   28.9989 H   0  0  0  0  0  0  0  0  0  0  0  0
   25.7470    6.5599   29.1115 H   0  0  0  0  0  0  0  0  0  0  0  0
   25.2953    7.4608   30.5784 H   0  0  0  0  0  0  0  0  0  0  0  0
  1  2  1  0
  2  3  2  0
  3  4  1  0
  3  5  1  0
  5  6  1  0
  6  7  1  0
  7  8  1  0
  7  9  1  0
  7 10  1  0
  5 11  2  0
 11 12  1  0
 11 13  1  0
 13 14  1  0
 14 15  1  0
 14 16  1  0
 14 17  1  0
 17 18  2  0
 17 19  1  0
 19 20  1  0
 19 21  1  0
 21 22  2  0
 22 23  1  0
 23 24  1  0
 24 25  1  0
 24 26  1  0
 24 27  1  0
 23 28  2  0
 28 29  1  0
 29 30  3  0
 28 31  1  0
 31 32  1  0
 32 33  1  0
 32 34  1  0
 31 35  2  0
 35 36  1  0
 13 37  2  0
 37 38  1  0
 38 39  1  0
 39 40  1  0
 39 41  1  0
 39 42  1  0
 37  2  1  0
 35 21  1  0
M  END
>  <score>  (88) 
7.32937

$$$$

     RDKit          3D

 49 50  0  0  0  0  0  0  0  0999 V2000
   23.1283   13.1402   31.7180 H   0  0  0  0  0  0  0  0  0  0  0  0
   22.5055   12.4858   32.0839 O   0  0  0  0  0  0  0  0  0  0  0  0
   22.2630   11.4225   31.1475 C   0  0  0  0  0  0  0  0  0  0  0  0
   21.3865   10.2330   31.6676 C   0  0  0  0  0  0  0  0  0  0  0  0
   21.7132    8.9656   31.3303 N   0  0  0  0  0  0  0  0  0  0  0  0
   20.9764    7.9544   31.7343 C   0  0  0  0  0  0  0  0  0  0  0  0
   21.5643    6.7943   31.3837 N   0  0  0  0  0  0  0  0  0  0  0  0
   22.4483    6.9271   30.9155 H   0  0  0  0  0  0  0  0  0  0  0  0
   20.9044    5.6308   31.1311 C   0  0  0  0  0  0  0  0  0  0  0  0
   19.7130    5.5357   31.3863 O   0  0  0  0  0  0  0  0  0  0  0  0
   21.6108    4.5381   30.3346 C   0  0  0  0  0  0  0  0  0  0  0  0
   21.7083    4.8824   29.3032 H   0  0  0  0  0  0  0  0  0  0  0  0
   21.0076    3.6256   30.3218 H   0  0  0  0  0  0  0  0  0  0  0  0
   22.9915    4.2471   30.8838 C   0  0  0  0  0  0  0  0  0  0  0  0
   23.1782    3.1419   31.7304 C   0  0  0  0  0  0  0  0  0  0  0  0
   22.3431    2.4954   31.9815 H   0  0  0  0  0  0  0  0  0  0  0  0
   24.4401    2.8445   32.2730 C   0  0  0  0  0  0  0  0  0  0  0  0
   24.6668    1.7843   33.1215 O   0  0  0  0  0  0  0  0  0  0  0  0
   23.6894    0.7348   33.1406 C   0  0  0  0  0  0  0  0  0  0  0  0
   23.4953    0.3635   32.1298 H   0  0  0  0  0  0  0  0  0  0  0  0
   22.7496    1.0779   33.5820 H   0  0  0  0  0  0  0  0  0  0  0  0
   24.0657   -0.0971   33.7422 H   0  0  0  0  0  0  0  0  0  0  0  0
   25.5242    3.6764   31.9455 C   0  0  0  0  0  0  0  0  0  0  0  0
   27.2738    3.3090   32.6363 Br  0  0  0  0  0  0  0  0  0  0  0  0
   25.3419    4.7817   31.1020 C   0  0  0  0  0  0  0  0  0  0  0  0
   26.1865    5.4144   30.8466 H   0  0  0  0  0  0  0  0  0  0  0  0
   24.0803    5.0875   30.5678 C   0  0  0  0  0  0  0  0  0  0  0  0
   23.8565    6.1775   29.7534 O   0  0  0  0  0  0  0  0  0  0  0  0
   24.9305    7.1163   29.5882 C   0  0  0  0  0  0  0  0  0  0  0  0
   25.2585    7.5086   30.5556 H   0  0  0  0  0  0  0  0  0  0  0  0
   24.5878    7.9569   28.9789 H   0  0  0  0  0  0  0  0  0  0  0  0
   25.7844    6.6557   29.0823 H   0  0  0  0  0  0  0  0  0  0  0  0
   19.8330    8.0976   32.4670 C   0  0  0  0  0  0  0  0  0  0  0  0
   19.2381    7.2580   32.7830 H   0  0  0  0  0  0  0  0  0  0  0  0
   19.5107    9.3618   32.8457 C   0  0  0  0  0  0  0  0  0  0  0  0
   18.4435    9.4880   33.6622 N   0  0  0  0  0  0  0  0  0  0  0  0
   18.1496   10.4161   33.9443 H   0  0  0  0  0  0  0  0  0  0  0  0
   17.9038    8.6627   33.9102 H   0  0  0  0  0  0  0  0  0  0  0  0
   20.2609   10.4502   32.4614 C   0  0  0  0  0  0  0  0  0  0  0  0
   19.9259   11.7741   32.8769 C   0  0  0  0  0  0  0  0  0  0  0  0
   19.6905   12.8667   33.1945 N   0  0  0  0  0  0  0  0  0  0  0  0
   21.5796   12.1562   29.9980 C   0  0  0  0  0  0  0  0  0  0  0  0
   20.6495   12.6224   30.3378 H   0  0  0  0  0  0  0  0  0  0  0  0
   21.3517   11.4683   29.1850 H   0  0  0  0  0  0  0  0  0  0  0  0
   22.2363   12.9411   29.6101 H   0  0  0  0  0  0  0  0  0  0  0  0
   23.6402   10.9379   30.6907 C   0  0  0  0  0  0  0  0  0  0  0  0
   23.5211   10.2675   29.8366 H   0  0  0  0  0  0  0  0  0  0  0  0
   24.2734   11.7780   30.3894 H   0  0  0  0  0  0  0  0  0  0  0  0
   24.1407   10.3912   31.4955 H   0  0  0  0  0  0  0  0  0  0  0  0
  1  2  1  0
  2  3  1  0
  3  4  1  0
  4  5  2  0
  5  6  1  0
  6  7  1  0
  7  8  1  0
  7  9  1  0
  9 10  2  0
  9 11  1  0
 11 12  1  0
 11 13  1  0
 11 14  1  0
 14 15  2  0
 15 16  1  0
 15 17  1  0
 17 18  1  0
 18 19  1  0
 19 20  1  0
 19 21  1  0
 19 22  1  0
 17 23  2  0
 23 24  1  0
 23 25  1  0
 25 26  1  0
 25 27  2  0
 27 28  1  0
 28 29  1  0
 29 30  1  0
 29 31  1  0
 29 32  1  0
  6 33  2  0
 33 34  1  0
 33 35  1  0
 35 36  1  0
 36 37  1  0
 36 38  1  0
 35 39  2  0
 39 40  1  0
 40 41  3  0
  3 42  1  0
 42 43  1  0
 42 44  1  0
 42 45  1  0
  3 46  1  0
 46 47  1  0
 46 48  1  0
 46 49  1  0
 39  4  1  0
 27 14  1  0
M  END
>  <score>  (89) 
7.33145

$$$$

     RDKit          3D

 54 56  0  0  0  0  0  0  0  0999 V2000
   23.3422    9.3778   25.1805 H   0  0  0  0  0  0  0  0  0  0  0  0
   23.4012    9.6780   26.2215 C   0  0  0  0  0  0  0  0  0  0  0  0
   24.6202   10.0411   26.7983 C   0  0  0  0  0  0  0  0  0  0  0  0
   25.5281   10.0254   26.2065 H   0  0  0  0  0  0  0  0  0  0  0  0
   24.6767   10.4513   28.1318 C   0  0  0  0  0  0  0  0  0  0  0  0
   25.6483   10.7301   28.5359 H   0  0  0  0  0  0  0  0  0  0  0  0
   23.5031   10.4893   28.9131 C   0  0  0  0  0  0  0  0  0  0  0  0
   23.5664   10.9830   30.6674 S   0  0  0  0  0  0  0  0  0  0  0  0
   24.0056    9.9086   31.5725 O   0  0  0  0  0  0  0  0  0  0  0  0
   24.3100   12.2253   30.9024 O   0  0  0  0  0  0  0  0  0  0  0  0
   22.0056   11.3950   31.0460 N   0  0  0  0  0  0  0  0  0  0  0  0
   22.0194   12.1361   31.7174 H   0  0  0  0  0  0  0  0  0  0  0  0
   21.3493   10.3208   31.4895 C   0  0  0  0  0  0  0  0  0  0  0  0
   21.7326    9.1515   31.0288 N   0  0  0  0  0  0  0  0  0  0  0  0
   21.0800    8.1070   31.4790 C   0  0  0  0  0  0  0  0  0  0  0  0
   21.5946    6.9537   31.0051 N   0  0  0  0  0  0  0  0  0  0  0  0
   22.4114    7.0563   30.4240 H   0  0  0  0  0  0  0  0  0  0  0  0
   20.9829    5.7330   31.0834 C   0  0  0  0  0  0  0  0  0  0  0  0
   19.9161    5.6159   31.6596 O   0  0  0  0  0  0  0  0  0  0  0  0
   21.5820    4.5446   30.3422 C   0  0  0  0  0  0  0  0  0  0  0  0
   21.6298    4.7863   29.2774 H   0  0  0  0  0  0  0  0  0  0  0  0
   20.9454    3.6612   30.4584 H   0  0  0  0  0  0  0  0  0  0  0  0
   22.9662    4.2585   30.8683 C   0  0  0  0  0  0  0  0  0  0  0  0
   23.1624    3.1597   31.7143 C   0  0  0  0  0  0  0  0  0  0  0  0
   22.3201    2.5221   31.9646 H   0  0  0  0  0  0  0  0  0  0  0  0
   24.4294    2.8749   32.2543 C   0  0  0  0  0  0  0  0  0  0  0  0
   24.6555    1.7981   33.0813 O   0  0  0  0  0  0  0  0  0  0  0  0
   23.6480    0.7754   33.1003 C   0  0  0  0  0  0  0  0  0  0  0  0
   23.4463    0.4096   32.0860 H   0  0  0  0  0  0  0  0  0  0  0  0
   22.7174    1.1586   33.5339 H   0  0  0  0  0  0  0  0  0  0  0  0
   23.9972   -0.0666   33.7090 H   0  0  0  0  0  0  0  0  0  0  0  0
   25.5041    3.7229   31.9389 C   0  0  0  0  0  0  0  0  0  0  0  0
   27.2534    3.3994   32.6442 Br  0  0  0  0  0  0  0  0  0  0  0  0
   25.3077    4.8220   31.0994 C   0  0  0  0  0  0  0  0  0  0  0  0
   26.1477    5.4666   30.8653 H   0  0  0  0  0  0  0  0  0  0  0  0
   24.0453    5.1101   30.5605 C   0  0  0  0  0  0  0  0  0  0  0  0
   23.8255    6.2125   29.7631 O   0  0  0  0  0  0  0  0  0  0  0  0
   24.9289    7.1191   29.6062 C   0  0  0  0  0  0  0  0  0  0  0  0
   25.7642    6.6152   29.1075 H   0  0  0  0  0  0  0  0  0  0  0  0
   24.6258    7.9777   28.9973 H   0  0  0  0  0  0  0  0  0  0  0  0
   25.2680    7.4887   30.5813 H   0  0  0  0  0  0  0  0  0  0  0  0
   20.0190    8.1750   32.3369 C   0  0  0  0  0  0  0  0  0  0  0  0
   19.4704    7.2991   32.6383 H   0  0  0  0  0  0  0  0  0  0  0  0
   19.6862    9.3973   32.8144 C   0  0  0  0  0  0  0  0  0  0  0  0
   18.6826    9.4763   33.7057 N   0  0  0  0  0  0  0  0  0  0  0  0
   18.0776    8.6608   33.7562 H   0  0  0  0  0  0  0  0  0  0  0  0
   18.2736   10.3996   33.8207 H   0  0  0  0  0  0  0  0  0  0  0  0
   20.3522   10.5059   32.3995 C   0  0  0  0  0  0  0  0  0  0  0  0
   20.0252   11.8143   32.8617 C   0  0  0  0  0  0  0  0  0  0  0  0
   19.8060   12.9012   33.2047 N   0  0  0  0  0  0  0  0  0  0  0  0
   22.2788   10.1261   28.3212 C   0  0  0  0  0  0  0  0  0  0  0  0
   21.3451   10.1620   28.8798 H   0  0  0  0  0  0  0  0  0  0  0  0
   22.2345    9.7272   26.9861 C   0  0  0  0  0  0  0  0  0  0  0  0
   21.2806    9.4647   26.5441 H   0  0  0  0  0  0  0  0  0  0  0  0
  1  2  1  0
  2  3  2  0
  3  4  1  0
  3  5  1  0
  5  6  1  0
  5  7  2  0
  7  8  1  0
  8  9  2  0
  8 10  2  0
  8 11  1  0
 11 12  1  0
 11 13  1  0
 13 14  2  0
 14 15  1  0
 15 16  1  0
 16 17  1  0
 16 18  1  0
 18 19  2  0
 18 20  1  0
 20 21  1  0
 20 22  1  0
 20 23  1  0
 23 24  2  0
 24 25  1  0
 24 26  1  0
 26 27  1  0
 27 28  1  0
 28 29  1  0
 28 30  1  0
 28 31  1  0
 26 32  2  0
 32 33  1  0
 32 34  1  0
 34 35  1  0
 34 36  2  0
 36 37  1  0
 37 38  1  0
 38 39  1  0
 38 40  1  0
 38 41  1  0
 15 42  2  0
 42 43  1  0
 42 44  1  0
 44 45  1  0
 45 46  1  0
 45 47  1  0
 44 48  2  0
 48 49  1  0
 49 50  3  0
  7 51  1  0
 51 52  1  0
 51 53  2  0
 53 54  1  0
 53  2  1  0
 48 13  1  0
 36 23  1  0
M  END
>  <score>  (90) 
7.33258

$$$$

     RDKit          3D

 44 45  0  0  0  0  0  0  0  0999 V2000
   26.1938    5.4088   30.8451 H   0  0  0  0  0  0  0  0  0  0  0  0
   25.3469    4.7793   31.1006 C   0  0  0  0  0  0  0  0  0  0  0  0
   25.5234    3.6722   31.9451 C   0  0  0  0  0  0  0  0  0  0  0  0
   27.2722    3.2984   32.6351 Br  0  0  0  0  0  0  0  0  0  0  0  0
   24.4369    2.8434   32.2720 C   0  0  0  0  0  0  0  0  0  0  0  0
   24.6619    1.7827   33.1225 O   0  0  0  0  0  0  0  0  0  0  0  0
   23.6908    0.7309   33.1430 C   0  0  0  0  0  0  0  0  0  0  0  0
   24.0737   -0.0967   33.7450 H   0  0  0  0  0  0  0  0  0  0  0  0
   22.7518    1.0701   33.5870 H   0  0  0  0  0  0  0  0  0  0  0  0
   23.4989    0.3581   32.1332 H   0  0  0  0  0  0  0  0  0  0  0  0
   23.1755    3.1492   31.7324 C   0  0  0  0  0  0  0  0  0  0  0  0
   22.3402    2.5031   31.9799 H   0  0  0  0  0  0  0  0  0  0  0  0
   22.9932    4.2589   30.8877 C   0  0  0  0  0  0  0  0  0  0  0  0
   21.6161    4.5630   30.3370 C   0  0  0  0  0  0  0  0  0  0  0  0
   21.0013    3.6564   30.3322 H   0  0  0  0  0  0  0  0  0  0  0  0
   21.7217    4.8936   29.3007 H   0  0  0  0  0  0  0  0  0  0  0  0
   20.9174    5.6749   31.1207 C   0  0  0  0  0  0  0  0  0  0  0  0
   19.7334    5.5910   31.3975 O   0  0  0  0  0  0  0  0  0  0  0  0
   21.5806    6.8426   31.3529 N   0  0  0  0  0  0  0  0  0  0  0  0
   22.4915    6.9686   30.9401 H   0  0  0  0  0  0  0  0  0  0  0  0
   21.0064    8.0021   31.7092 C   0  0  0  0  0  0  0  0  0  0  0  0
   21.7652    8.9970   31.3344 N   0  0  0  0  0  0  0  0  0  0  0  0
   21.3890   10.2020   31.7074 C   0  0  0  0  0  0  0  0  0  0  0  0
   22.1887   11.2316   31.3276 N   0  0  0  0  0  0  0  0  0  0  0  0
   21.8773   12.1418   31.6337 H   0  0  0  0  0  0  0  0  0  0  0  0
   23.3790   11.0937   30.4761 C   0  0  0  0  0  0  0  0  0  0  0  0
   23.8353   12.0719   30.3068 H   0  0  0  0  0  0  0  0  0  0  0  0
   24.1235   10.4472   30.9460 H   0  0  0  0  0  0  0  0  0  0  0  0
   23.1220   10.6656   29.5045 H   0  0  0  0  0  0  0  0  0  0  0  0
   20.2877   10.4804   32.4674 C   0  0  0  0  0  0  0  0  0  0  0  0
   19.9738   11.8105   32.8729 C   0  0  0  0  0  0  0  0  0  0  0  0
   19.7395   12.9112   33.1767 N   0  0  0  0  0  0  0  0  0  0  0  0
   19.5434    9.3975   32.8270 C   0  0  0  0  0  0  0  0  0  0  0  0
   18.4835    9.5109   33.6407 N   0  0  0  0  0  0  0  0  0  0  0  0
   17.9542    8.6771   33.8729 H   0  0  0  0  0  0  0  0  0  0  0  0
   18.1660   10.4267   33.9364 H   0  0  0  0  0  0  0  0  0  0  0  0
   19.8648    8.1358   32.4401 C   0  0  0  0  0  0  0  0  0  0  0  0
   19.2670    7.2913   32.7468 H   0  0  0  0  0  0  0  0  0  0  0  0
   24.0862    5.0913   30.5705 C   0  0  0  0  0  0  0  0  0  0  0  0
   23.8660    6.1794   29.7525 O   0  0  0  0  0  0  0  0  0  0  0  0
   24.9320    7.1215   29.5856 C   0  0  0  0  0  0  0  0  0  0  0  0
   25.2633    7.5070   30.5529 H   0  0  0  0  0  0  0  0  0  0  0  0
   25.7809    6.6661   29.0696 H   0  0  0  0  0  0  0  0  0  0  0  0
   24.5787    7.9635   28.9852 H   0  0  0  0  0  0  0  0  0  0  0  0
  1  2  1  0
  2  3  2  0
  3  4  1  0
  3  5  1  0
  5  6  1  0
  6  7  1  0
  7  8  1  0
  7  9  1  0
  7 10  1  0
  5 11  2  0
 11 12  1  0
 11 13  1  0
 13 14  1  0
 14 15  1  0
 14 16  1  0
 14 17  1  0
 17 18  2  0
 17 19  1  0
 19 20  1  0
 19 21  1  0
 21 22  2  0
 22 23  1  0
 23 24  1  0
 24 25  1  0
 24 26  1  0
 26 27  1  0
 26 28  1  0
 26 29  1  0
 23 30  2  0
 30 31  1  0
 31 32  3  0
 30 33  1  0
 33 34  1  0
 34 35  1  0
 34 36  1  0
 33 37  2  0
 37 38  1  0
 13 39  2  0
 39 40  1  0
 40 41  1  0
 41 42  1  0
 41 43  1  0
 41 44  1  0
 39  2  1  0
 37 21  1  0
M  END
>  <score>  (91) 
7.33865

$$$$

     RDKit          3D

 48 49  0  0  0  0  0  0  0  0999 V2000
   23.5790   11.5196   27.6373 H   0  0  0  0  0  0  0  0  0  0  0  0
   23.4734   11.7967   28.5657 O   0  0  0  0  0  0  0  0  0  0  0  0
   22.1033   11.6424   28.9720 C   0  0  0  0  0  0  0  0  0  0  0  0
   21.4872   12.2451   28.3009 H   0  0  0  0  0  0  0  0  0  0  0  0
   21.8049   10.5943   28.8605 H   0  0  0  0  0  0  0  0  0  0  0  0
   21.8351   12.0967   30.4221 C   0  0  0  0  0  0  0  0  0  0  0  0
   20.7664   12.3184   30.5230 H   0  0  0  0  0  0  0  0  0  0  0  0
   22.3739   13.0301   30.6098 H   0  0  0  0  0  0  0  0  0  0  0  0
   22.2550   11.0799   31.4127 N   0  0  0  0  0  0  0  0  0  0  0  0
   23.0609   10.5309   31.1241 H   0  0  0  0  0  0  0  0  0  0  0  0
   21.3793   10.1603   31.8479 C   0  0  0  0  0  0  0  0  0  0  0  0
   21.8407    8.9965   31.4618 N   0  0  0  0  0  0  0  0  0  0  0  0
   21.0639    7.9746   31.6956 C   0  0  0  0  0  0  0  0  0  0  0  0
   21.5888    6.8265   31.2290 N   0  0  0  0  0  0  0  0  0  0  0  0
   22.5035    6.9004   30.8089 H   0  0  0  0  0  0  0  0  0  0  0  0
   20.9104    5.6487   31.1106 C   0  0  0  0  0  0  0  0  0  0  0  0
   19.7533    5.5556   31.4877 O   0  0  0  0  0  0  0  0  0  0  0  0
   21.5766    4.4989   30.3698 C   0  0  0  0  0  0  0  0  0  0  0  0
   20.9780    3.5920   30.4887 H   0  0  0  0  0  0  0  0  0  0  0  0
   21.6170    4.7310   29.3046 H   0  0  0  0  0  0  0  0  0  0  0  0
   22.9745    4.2659   30.8880 C   0  0  0  0  0  0  0  0  0  0  0  0
   23.1884    3.1517   31.7028 C   0  0  0  0  0  0  0  0  0  0  0  0
   22.3646    2.4855   31.9344 H   0  0  0  0  0  0  0  0  0  0  0  0
   24.4478    2.8705   32.2494 C   0  0  0  0  0  0  0  0  0  0  0  0
   24.6663    1.7717   33.0477 O   0  0  0  0  0  0  0  0  0  0  0  0
   23.6103    0.7985   33.0731 C   0  0  0  0  0  0  0  0  0  0  0  0
   23.9071   -0.0562   33.6874 H   0  0  0  0  0  0  0  0  0  0  0  0
   23.3920    0.4402   32.0605 H   0  0  0  0  0  0  0  0  0  0  0  0
   22.6965    1.2297   33.4960 H   0  0  0  0  0  0  0  0  0  0  0  0
   25.5108    3.7439   31.9706 C   0  0  0  0  0  0  0  0  0  0  0  0
   27.2606    3.4291   32.6850 Br  0  0  0  0  0  0  0  0  0  0  0  0
   25.3058    4.8594   31.1493 C   0  0  0  0  0  0  0  0  0  0  0  0
   26.1348    5.5233   30.9227 H   0  0  0  0  0  0  0  0  0  0  0  0
   24.0428    5.1439   30.6034 C   0  0  0  0  0  0  0  0  0  0  0  0
   23.8220    6.2642   29.8299 O   0  0  0  0  0  0  0  0  0  0  0  0
   24.9611    7.1165   29.6177 C   0  0  0  0  0  0  0  0  0  0  0  0
   24.6832    7.9747   28.9974 H   0  0  0  0  0  0  0  0  0  0  0  0
   25.7634    6.5689   29.1096 H   0  0  0  0  0  0  0  0  0  0  0  0
   25.3437    7.4881   30.5754 H   0  0  0  0  0  0  0  0  0  0  0  0
   19.8631    8.0626   32.3391 C   0  0  0  0  0  0  0  0  0  0  0  0
   19.2594    7.1935   32.5314 H   0  0  0  0  0  0  0  0  0  0  0  0
   19.4544    9.2901   32.7376 C   0  0  0  0  0  0  0  0  0  0  0  0
   18.3066    9.3269   33.4199 N   0  0  0  0  0  0  0  0  0  0  0  0
   18.1920   10.1270   34.0192 H   0  0  0  0  0  0  0  0  0  0  0  0
   18.0061    8.4193   33.7589 H   0  0  0  0  0  0  0  0  0  0  0  0
   20.1970   10.3981   32.4827 C   0  0  0  0  0  0  0  0  0  0  0  0
   19.7897   11.7116   32.8433 C   0  0  0  0  0  0  0  0  0  0  0  0
   19.4541   12.7904   33.1176 N   0  0  0  0  0  0  0  0  0  0  0  0
  1  2  1  0
  2  3  1  0
  3  4  1  0
  3  5  1  0
  3  6  1  0
  6  7  1  0
  6  8  1  0
  6  9  1  0
  9 10  1  0
  9 11  1  0
 11 12  2  0
 12 13  1  0
 13 14  1  0
 14 15  1  0
 14 16  1  0
 16 17  2  0
 16 18  1  0
 18 19  1  0
 18 20  1  0
 18 21  1  0
 21 22  2  0
 22 23  1  0
 22 24  1  0
 24 25  1  0
 25 26  1  0
 26 27  1  0
 26 28  1  0
 26 29  1  0
 24 30  2  0
 30 31  1  0
 30 32  1  0
 32 33  1  0
 32 34  2  0
 34 35  1  0
 35 36  1  0
 36 37  1  0
 36 38  1  0
 36 39  1  0
 13 40  2  0
 40 41  1  0
 40 42  1  0
 42 43  1  0
 43 44  1  0
 43 45  1  0
 42 46  2  0
 46 47  1  0
 47 48  3  0
 46 11  1  0
 34 21  1  0
M  END
>  <score>  (92) 
7.33895

$$$$

     RDKit          3D

 56 58  0  0  0  0  0  0  0  0999 V2000
   23.4649    9.1300   24.4658 H   0  0  0  0  0  0  0  0  0  0  0  0
   23.4453    9.5147   25.4817 C   0  0  0  0  0  0  0  0  0  0  0  0
   24.6201   10.0277   26.0490 C   0  0  0  0  0  0  0  0  0  0  0  0
   25.5500   10.0418   25.4858 H   0  0  0  0  0  0  0  0  0  0  0  0
   24.6080   10.5126   27.3454 C   0  0  0  0  0  0  0  0  0  0  0  0
   25.5290   10.9094   27.7701 H   0  0  0  0  0  0  0  0  0  0  0  0
   23.4139   10.5136   28.0815 C   0  0  0  0  0  0  0  0  0  0  0  0
   23.4409   11.0332   29.4379 C   0  0  0  0  0  0  0  0  0  0  0  0
   24.4606   10.9278   30.1125 O   0  0  0  0  0  0  0  0  0  0  0  0
   22.2930   11.5336   30.0270 N   0  0  0  0  0  0  0  0  0  0  0  0
   21.4550   11.5105   29.4507 H   0  0  0  0  0  0  0  0  0  0  0  0
   22.1539   11.4012   31.4797 C   0  0  0  0  0  0  0  0  0  0  0  0
   21.7112   12.3039   31.9089 H   0  0  0  0  0  0  0  0  0  0  0  0
   23.1531   11.3040   31.8980 H   0  0  0  0  0  0  0  0  0  0  0  0
   21.3426   10.1851   31.8941 C   0  0  0  0  0  0  0  0  0  0  0  0
   21.7717    8.9710   31.5298 N   0  0  0  0  0  0  0  0  0  0  0  0
   21.0525    7.9153   31.8265 C   0  0  0  0  0  0  0  0  0  0  0  0
   21.5927    6.7819   31.3219 N   0  0  0  0  0  0  0  0  0  0  0  0
   22.4931    6.8817   30.8695 H   0  0  0  0  0  0  0  0  0  0  0  0
   20.8985    5.6251   31.1359 C   0  0  0  0  0  0  0  0  0  0  0  0
   19.7349    5.5434   31.4996 O   0  0  0  0  0  0  0  0  0  0  0  0
   21.5576    4.4975   30.3605 C   0  0  0  0  0  0  0  0  0  0  0  0
   20.9431    3.5983   30.4401 H   0  0  0  0  0  0  0  0  0  0  0  0
   21.6008    4.7846   29.3089 H   0  0  0  0  0  0  0  0  0  0  0  0
   22.9564    4.2396   30.8802 C   0  0  0  0  0  0  0  0  0  0  0  0
   23.1752    3.1406   31.7177 C   0  0  0  0  0  0  0  0  0  0  0  0
   22.3487    2.4833   31.9660 H   0  0  0  0  0  0  0  0  0  0  0  0
   24.4459    2.8640   32.2534 C   0  0  0  0  0  0  0  0  0  0  0  0
   24.6767    1.7837   33.0725 O   0  0  0  0  0  0  0  0  0  0  0  0
   23.6476    0.7841   33.0936 C   0  0  0  0  0  0  0  0  0  0  0  0
   23.4404    0.4261   32.0794 H   0  0  0  0  0  0  0  0  0  0  0  0
   23.9661   -0.0675   33.7013 H   0  0  0  0  0  0  0  0  0  0  0  0
   22.7254    1.1898   33.5212 H   0  0  0  0  0  0  0  0  0  0  0  0
   25.5110    3.7249   31.9465 C   0  0  0  0  0  0  0  0  0  0  0  0
   27.2670    3.4408   32.6596 Br  0  0  0  0  0  0  0  0  0  0  0  0
   25.2970    4.8221   31.1105 C   0  0  0  0  0  0  0  0  0  0  0  0
   26.1295    5.4772   30.8762 H   0  0  0  0  0  0  0  0  0  0  0  0
   24.0289    5.1029   30.5745 C   0  0  0  0  0  0  0  0  0  0  0  0
   23.8061    6.2069   29.7812 O   0  0  0  0  0  0  0  0  0  0  0  0
   24.9230    7.0937   29.6145 C   0  0  0  0  0  0  0  0  0  0  0  0
   25.2616    7.4695   30.5859 H   0  0  0  0  0  0  0  0  0  0  0  0
   24.6372    7.9465   28.9937 H   0  0  0  0  0  0  0  0  0  0  0  0
   25.7553    6.5734   29.1291 H   0  0  0  0  0  0  0  0  0  0  0  0
   19.8906    7.9872   32.5471 C   0  0  0  0  0  0  0  0  0  0  0  0
   19.3564    7.0983   32.8206 H   0  0  0  0  0  0  0  0  0  0  0  0
   19.4549    9.2238   32.9195 C   0  0  0  0  0  0  0  0  0  0  0  0
   18.3358    9.3125   33.6694 N   0  0  0  0  0  0  0  0  0  0  0  0
   18.3786    8.7660   34.5241 H   0  0  0  0  0  0  0  0  0  0  0  0
   17.4725    9.2256   33.1428 H   0  0  0  0  0  0  0  0  0  0  0  0
   20.1658   10.3454   32.5909 C   0  0  0  0  0  0  0  0  0  0  0  0
   19.7601   11.6552   32.9808 C   0  0  0  0  0  0  0  0  0  0  0  0
   19.4952   12.7417   33.2943 N   0  0  0  0  0  0  0  0  0  0  0  0
   22.2353    9.9907   27.5080 C   0  0  0  0  0  0  0  0  0  0  0  0
   21.3089    9.9463   28.0741 H   0  0  0  0  0  0  0  0  0  0  0  0
   22.2558    9.4895   26.2062 C   0  0  0  0  0  0  0  0  0  0  0  0
   21.3489    9.1076   25.7463 H   0  0  0  0  0  0  0  0  0  0  0  0
  1  2  1  0
  2  3  2  0
  3  4  1  0
  3  5  1  0
  5  6  1  0
  5  7  2  0
  7  8  1  0
  8  9  2  0
  8 10  1  0
 10 11  1  0
 10 12  1  0
 12 13  1  0
 12 14  1  0
 12 15  1  0
 15 16  2  0
 16 17  1  0
 17 18  1  0
 18 19  1  0
 18 20  1  0
 20 21  2  0
 20 22  1  0
 22 23  1  0
 22 24  1  0
 22 25  1  0
 25 26  2  0
 26 27  1  0
 26 28  1  0
 28 29  1  0
 29 30  1  0
 30 31  1  0
 30 32  1  0
 30 33  1  0
 28 34  2  0
 34 35  1  0
 34 36  1  0
 36 37  1  0
 36 38  2  0
 38 39  1  0
 39 40  1  0
 40 41  1  0
 40 42  1  0
 40 43  1  0
 17 44  2  0
 44 45  1  0
 44 46  1  0
 46 47  1  0
 47 48  1  0
 47 49  1  0
 46 50  2  0
 50 51  1  0
 51 52  3  0
  7 53  1  0
 53 54  1  0
 53 55  2  0
 55 56  1  0
 55  2  1  0
 50 15  1  0
 38 25  1  0
M  END
>  <score>  (93) 
7.34021

$$$$

     RDKit          3D

 57 59  0  0  0  0  0  0  0  0999 V2000
   24.6630    9.9466   25.6428 H   0  0  0  0  0  0  0  0  0  0  0  0
   24.4448   10.1629   26.6780 C   0  0  0  0  0  0  0  0  0  0  0  0
   25.4722   10.5952   27.5181 C   0  0  0  0  0  0  0  0  0  0  0  0
   26.4815   10.7165   27.1388 H   0  0  0  0  0  0  0  0  0  0  0  0
   25.1918   10.8717   28.8580 C   0  0  0  0  0  0  0  0  0  0  0  0
   25.9758   11.1904   29.5374 H   0  0  0  0  0  0  0  0  0  0  0  0
   23.8843   10.7717   29.3459 C   0  0  0  0  0  0  0  0  0  0  0  0
   23.6310   11.0606   30.6896 N   0  0  0  0  0  0  0  0  0  0  0  0
   24.6548   10.6361   31.6546 C   0  0  0  0  0  0  0  0  0  0  0  0
   25.2743    9.8499   31.2077 H   0  0  0  0  0  0  0  0  0  0  0  0
   25.2836   11.4894   31.9296 H   0  0  0  0  0  0  0  0  0  0  0  0
   24.1927   10.2160   32.5505 H   0  0  0  0  0  0  0  0  0  0  0  0
   22.2549   11.3636   31.1736 C   0  0  0  0  0  0  0  0  0  0  0  0
   22.3464   12.0730   31.9997 H   0  0  0  0  0  0  0  0  0  0  0  0
   21.7062   11.8767   30.3804 H   0  0  0  0  0  0  0  0  0  0  0  0
   21.3923   10.1925   31.6585 C   0  0  0  0  0  0  0  0  0  0  0  0
   21.7233    8.9365   31.3361 N   0  0  0  0  0  0  0  0  0  0  0  0
   20.9802    7.9411   31.7534 C   0  0  0  0  0  0  0  0  0  0  0  0
   21.5720    6.7905   31.3846 N   0  0  0  0  0  0  0  0  0  0  0  0
   22.4250    6.9452   30.8735 H   0  0  0  0  0  0  0  0  0  0  0  0
   20.9025    5.6333   31.1405 C   0  0  0  0  0  0  0  0  0  0  0  0
   19.7088    5.5545   31.3852 O   0  0  0  0  0  0  0  0  0  0  0  0
   21.6046    4.5427   30.3452 C   0  0  0  0  0  0  0  0  0  0  0  0
   20.9903    3.6407   30.3512 H   0  0  0  0  0  0  0  0  0  0  0  0
   21.6896    4.8908   29.3129 H   0  0  0  0  0  0  0  0  0  0  0  0
   22.9872    4.2491   30.8895 C   0  0  0  0  0  0  0  0  0  0  0  0
   23.1795    3.1412   31.7316 C   0  0  0  0  0  0  0  0  0  0  0  0
   22.3470    2.4916   31.9819 H   0  0  0  0  0  0  0  0  0  0  0  0
   24.4433    2.8494   32.2705 C   0  0  0  0  0  0  0  0  0  0  0  0
   24.6688    1.7854   33.1150 O   0  0  0  0  0  0  0  0  0  0  0  0
   23.6837    0.7417   33.1340 C   0  0  0  0  0  0  0  0  0  0  0  0
   22.7456    1.0953   33.5741 H   0  0  0  0  0  0  0  0  0  0  0  0
   24.0513   -0.0953   33.7369 H   0  0  0  0  0  0  0  0  0  0  0  0
   23.4899    0.3742   32.1204 H   0  0  0  0  0  0  0  0  0  0  0  0
   25.5229    3.6856   31.9444 C   0  0  0  0  0  0  0  0  0  0  0  0
   27.2726    3.3310   32.6366 Br  0  0  0  0  0  0  0  0  0  0  0  0
   25.3342    4.7883   31.1012 C   0  0  0  0  0  0  0  0  0  0  0  0
   26.1748    5.4236   30.8465 H   0  0  0  0  0  0  0  0  0  0  0  0
   24.0718    5.0911   30.5712 C   0  0  0  0  0  0  0  0  0  0  0  0
   23.8483    6.1822   29.7570 O   0  0  0  0  0  0  0  0  0  0  0  0
   24.9290    7.1142   29.5904 C   0  0  0  0  0  0  0  0  0  0  0  0
   24.5935    7.9609   28.9833 H   0  0  0  0  0  0  0  0  0  0  0  0
   25.7781    6.6451   29.0810 H   0  0  0  0  0  0  0  0  0  0  0  0
   25.2613    7.4986   30.5611 H   0  0  0  0  0  0  0  0  0  0  0  0
   19.8333    8.0922   32.4785 C   0  0  0  0  0  0  0  0  0  0  0  0
   19.2321    7.2578   32.7904 H   0  0  0  0  0  0  0  0  0  0  0  0
   19.5084    9.3574   32.8501 C   0  0  0  0  0  0  0  0  0  0  0  0
   18.4418    9.4881   33.6725 N   0  0  0  0  0  0  0  0  0  0  0  0
   17.8920    8.6639   33.9097 H   0  0  0  0  0  0  0  0  0  0  0  0
   18.1345   10.4193   33.9362 H   0  0  0  0  0  0  0  0  0  0  0  0
   20.2691   10.4352   32.4494 C   0  0  0  0  0  0  0  0  0  0  0  0
   19.9429   11.7608   32.8660 C   0  0  0  0  0  0  0  0  0  0  0  0
   19.6960   12.8421   33.2136 N   0  0  0  0  0  0  0  0  0  0  0  0
   22.8612   10.3535   28.4961 C   0  0  0  0  0  0  0  0  0  0  0  0
   21.8585   10.2872   28.9017 H   0  0  0  0  0  0  0  0  0  0  0  0
   23.1422   10.0188   27.1685 C   0  0  0  0  0  0  0  0  0  0  0  0
   22.3394    9.6901   26.5180 H   0  0  0  0  0  0  0  0  0  0  0  0
  1  2  1  0
  2  3  2  0
  3  4  1  0
  3  5  1  0
  5  6  1  0
  5  7  2  0
  7  8  1  0
  8  9  1  0
  9 10  1  0
  9 11  1  0
  9 12  1  0
  8 13  1  0
 13 14  1  0
 13 15  1  0
 13 16  1  0
 16 17  2  0
 17 18  1  0
 18 19  1  0
 19 20  1  0
 19 21  1  0
 21 22  2  0
 21 23  1  0
 23 24  1  0
 23 25  1  0
 23 26  1  0
 26 27  2  0
 27 28  1  0
 27 29  1  0
 29 30  1  0
 30 31  1  0
 31 32  1  0
 31 33  1  0
 31 34  1  0
 29 35  2  0
 35 36  1  0
 35 37  1  0
 37 38  1  0
 37 39  2  0
 39 40  1  0
 40 41  1  0
 41 42  1  0
 41 43  1  0
 41 44  1  0
 18 45  2  0
 45 46  1  0
 45 47  1  0
 47 48  1  0
 48 49  1  0
 48 50  1  0
 47 51  2  0
 51 52  1  0
 52 53  3  0
  7 54  1  0
 54 55  1  0
 54 56  2  0
 56 57  1  0
 56  2  1  0
 51 16  1  0
 39 26  1  0
M  END
>  <score>  (94) 
7.34155

$$$$

     RDKit          3D

 42 43  0  0  0  0  0  0  0  0999 V2000
   26.1900    5.4108   30.8469 H   0  0  0  0  0  0  0  0  0  0  0  0
   25.3444    4.7801   31.1016 C   0  0  0  0  0  0  0  0  0  0  0  0
   25.5242    3.6743   31.9454 C   0  0  0  0  0  0  0  0  0  0  0  0
   27.2726    3.3049   32.6354 Br  0  0  0  0  0  0  0  0  0  0  0  0
   24.4397    2.8438   32.2732 C   0  0  0  0  0  0  0  0  0  0  0  0
   24.6643    1.7832   33.1225 O   0  0  0  0  0  0  0  0  0  0  0  0
   23.6897    0.7325   33.1417 C   0  0  0  0  0  0  0  0  0  0  0  0
   22.7506    1.0749   33.5850 H   0  0  0  0  0  0  0  0  0  0  0  0
   24.0697   -0.0973   33.7439 H   0  0  0  0  0  0  0  0  0  0  0  0
   23.4977    0.3610   32.1305 H   0  0  0  0  0  0  0  0  0  0  0  0
   23.1787    3.1426   31.7314 C   0  0  0  0  0  0  0  0  0  0  0  0
   22.3418    2.4986   31.9803 H   0  0  0  0  0  0  0  0  0  0  0  0
   22.9946    4.2462   30.8819 C   0  0  0  0  0  0  0  0  0  0  0  0
   21.6155    4.5361   30.3281 C   0  0  0  0  0  0  0  0  0  0  0  0
   21.7148    4.8807   29.2962 H   0  0  0  0  0  0  0  0  0  0  0  0
   21.0060    3.6268   30.3214 H   0  0  0  0  0  0  0  0  0  0  0  0
   20.9122    5.6338   31.1211 C   0  0  0  0  0  0  0  0  0  0  0  0
   19.7243    5.5368   31.3889 O   0  0  0  0  0  0  0  0  0  0  0  0
   21.5850    6.7966   31.3618 N   0  0  0  0  0  0  0  0  0  0  0  0
   22.4839    6.9224   30.9211 H   0  0  0  0  0  0  0  0  0  0  0  0
   21.0031    7.9494   31.7427 C   0  0  0  0  0  0  0  0  0  0  0  0
   21.7363    8.9769   31.3602 N   0  0  0  0  0  0  0  0  0  0  0  0
   21.3472   10.2143   31.7025 C   0  0  0  0  0  0  0  0  0  0  0  0
   22.2073   11.3773   31.2355 C   0  0  0  0  0  0  0  0  0  0  0  0
   23.1234   10.9599   30.8115 H   0  0  0  0  0  0  0  0  0  0  0  0
   22.4735   12.0109   32.0876 H   0  0  0  0  0  0  0  0  0  0  0  0
   21.5818   12.1562   30.3015 F   0  0  0  0  0  0  0  0  0  0  0  0
   20.2282   10.4181   32.4971 C   0  0  0  0  0  0  0  0  0  0  0  0
   19.8889   11.7428   32.9159 C   0  0  0  0  0  0  0  0  0  0  0  0
   19.6511   12.8392   33.2317 N   0  0  0  0  0  0  0  0  0  0  0  0
   19.4996    9.3093   32.8512 C   0  0  0  0  0  0  0  0  0  0  0  0
   18.4123    9.3803   33.6297 N   0  0  0  0  0  0  0  0  0  0  0  0
   18.5597    8.8917   34.5061 H   0  0  0  0  0  0  0  0  0  0  0  0
   17.5896    9.0444   33.1434 H   0  0  0  0  0  0  0  0  0  0  0  0
   19.8483    8.0585   32.4617 C   0  0  0  0  0  0  0  0  0  0  0  0
   19.2634    7.1967   32.7388 H   0  0  0  0  0  0  0  0  0  0  0  0
   24.0836    5.0874   30.5691 C   0  0  0  0  0  0  0  0  0  0  0  0
   23.8604    6.1786   29.7556 O   0  0  0  0  0  0  0  0  0  0  0  0
   24.9316    7.1181   29.5869 C   0  0  0  0  0  0  0  0  0  0  0  0
   24.5824    7.9616   28.9848 H   0  0  0  0  0  0  0  0  0  0  0  0
   25.7802    6.6592   29.0710 H   0  0  0  0  0  0  0  0  0  0  0  0
   25.2650    7.5044   30.5546 H   0  0  0  0  0  0  0  0  0  0  0  0
  1  2  1  0
  2  3  2  0
  3  4  1  0
  3  5  1  0
  5  6  1  0
  6  7  1  0
  7  8  1  0
  7  9  1  0
  7 10  1  0
  5 11  2  0
 11 12  1  0
 11 13  1  0
 13 14  1  0
 14 15  1  0
 14 16  1  0
 14 17  1  0
 17 18  2  0
 17 19  1  0
 19 20  1  0
 19 21  1  0
 21 22  2  0
 22 23  1  0
 23 24  1  0
 24 25  1  0
 24 26  1  0
 24 27  1  0
 23 28  2  0
 28 29  1  0
 29 30  3  0
 28 31  1  0
 31 32  1  0
 32 33  1  0
 32 34  1  0
 31 35  2  0
 35 36  1  0
 13 37  2  0
 37 38  1  0
 38 39  1  0
 39 40  1  0
 39 41  1  0
 39 42  1  0
 37  2  1  0
 35 21  1  0
M  END
>  <score>  (95) 
7.34405

$$$$

     RDKit          3D

 52 53  0  0  0  0  0  0  0  0999 V2000
   26.1549    5.4368   30.8420 H   0  0  0  0  0  0  0  0  0  0  0  0
   25.3118    4.8043   31.0982 C   0  0  0  0  0  0  0  0  0  0  0  0
   25.5086    3.7049   31.9393 C   0  0  0  0  0  0  0  0  0  0  0  0
   27.2606    3.3580   32.6316 Br  0  0  0  0  0  0  0  0  0  0  0  0
   24.4299    2.8649   32.2633 C   0  0  0  0  0  0  0  0  0  0  0  0
   24.6629    1.7943   33.0982 O   0  0  0  0  0  0  0  0  0  0  0  0
   23.6737    0.7533   33.1230 C   0  0  0  0  0  0  0  0  0  0  0  0
   24.0371   -0.0853   33.7275 H   0  0  0  0  0  0  0  0  0  0  0  0
   22.7375    1.1145   33.5600 H   0  0  0  0  0  0  0  0  0  0  0  0
   23.4763    0.3862   32.1107 H   0  0  0  0  0  0  0  0  0  0  0  0
   23.1602    3.1542   31.7272 C   0  0  0  0  0  0  0  0  0  0  0  0
   22.3309    2.4977   31.9748 H   0  0  0  0  0  0  0  0  0  0  0  0
   22.9610    4.2622   30.8851 C   0  0  0  0  0  0  0  0  0  0  0  0
   21.5890    4.5619   30.3218 C   0  0  0  0  0  0  0  0  0  0  0  0
   21.6871    4.8368   29.2659 H   0  0  0  0  0  0  0  0  0  0  0  0
   20.9415    3.6870   30.3880 H   0  0  0  0  0  0  0  0  0  0  0  0
   20.9356    5.7101   31.0707 C   0  0  0  0  0  0  0  0  0  0  0  0
   19.8874    5.5501   31.6718 O   0  0  0  0  0  0  0  0  0  0  0  0
   21.4929    6.9455   30.9850 N   0  0  0  0  0  0  0  0  0  0  0  0
   22.3714    7.0625   30.5011 H   0  0  0  0  0  0  0  0  0  0  0  0
   21.0129    8.0565   31.5648 C   0  0  0  0  0  0  0  0  0  0  0  0
   21.7646    9.0739   31.2351 N   0  0  0  0  0  0  0  0  0  0  0  0
   21.4133   10.2545   31.6992 C   0  0  0  0  0  0  0  0  0  0  0  0
   22.1740   11.3023   31.2796 N   0  0  0  0  0  0  0  0  0  0  0  0
   21.7328   12.2068   31.2051 H   0  0  0  0  0  0  0  0  0  0  0  0
   23.4651   11.1359   30.8588 C   0  0  0  0  0  0  0  0  0  0  0  0
   24.0487   10.0767   31.0464 O   0  0  0  0  0  0  0  0  0  0  0  0
   24.1391   12.2999   30.1206 C   0  0  0  0  0  0  0  0  0  0  0  0
   23.3412   12.9526   29.7516 H   0  0  0  0  0  0  0  0  0  0  0  0
   24.9714   11.8120   28.9259 C   0  0  0  0  0  0  0  0  0  0  0  0
   24.3406   11.2952   28.1919 H   0  0  0  0  0  0  0  0  0  0  0  0
   25.7609   11.1245   29.2584 H   0  0  0  0  0  0  0  0  0  0  0  0
   25.4396   12.6735   28.4385 H   0  0  0  0  0  0  0  0  0  0  0  0
   25.0671   13.1086   31.0304 C   0  0  0  0  0  0  0  0  0  0  0  0
   25.5568   13.8907   30.4327 H   0  0  0  0  0  0  0  0  0  0  0  0
   24.5095   13.5600   31.8608 H   0  0  0  0  0  0  0  0  0  0  0  0
   25.8346   12.4591   31.4504 H   0  0  0  0  0  0  0  0  0  0  0  0
   20.3142   10.4718   32.4904 C   0  0  0  0  0  0  0  0  0  0  0  0
   19.9723   11.7908   32.9082 C   0  0  0  0  0  0  0  0  0  0  0  0
   19.7193   12.8885   33.1927 N   0  0  0  0  0  0  0  0  0  0  0  0
   19.5801    9.3768   32.8440 C   0  0  0  0  0  0  0  0  0  0  0  0
   18.5170    9.4884   33.6633 N   0  0  0  0  0  0  0  0  0  0  0  0
   17.9676    8.6577   33.8701 H   0  0  0  0  0  0  0  0  0  0  0  0
   18.1903   10.4215   33.9100 H   0  0  0  0  0  0  0  0  0  0  0  0
   19.9104    8.1422   32.3790 C   0  0  0  0  0  0  0  0  0  0  0  0
   19.3144    7.2876   32.6444 H   0  0  0  0  0  0  0  0  0  0  0  0
   24.0475    5.1028   30.5692 C   0  0  0  0  0  0  0  0  0  0  0  0
   23.8368    6.1872   29.7453 O   0  0  0  0  0  0  0  0  0  0  0  0
   24.9286    7.1100   29.5986 C   0  0  0  0  0  0  0  0  0  0  0  0
   25.2609    7.4695   30.5777 H   0  0  0  0  0  0  0  0  0  0  0  0
   25.7747    6.6364   29.0897 H   0  0  0  0  0  0  0  0  0  0  0  0
   24.6063    7.9708   29.0054 H   0  0  0  0  0  0  0  0  0  0  0  0
  1  2  1  0
  2  3  2  0
  3  4  1  0
  3  5  1  0
  5  6  1  0
  6  7  1  0
  7  8  1  0
  7  9  1  0
  7 10  1  0
  5 11  2  0
 11 12  1  0
 11 13  1  0
 13 14  1  0
 14 15  1  0
 14 16  1  0
 14 17  1  0
 17 18  2  0
 17 19  1  0
 19 20  1  0
 19 21  1  0
 21 22  2  0
 22 23  1  0
 23 24  1  0
 24 25  1  0
 24 26  1  0
 26 27  2  0
 26 28  1  0
 28 29  1  0
 28 30  1  0
 30 31  1  0
 30 32  1  0
 30 33  1  0
 28 34  1  0
 34 35  1  0
 34 36  1  0
 34 37  1  0
 23 38  2  0
 38 39  1  0
 39 40  3  0
 38 41  1  0
 41 42  1  0
 42 43  1  0
 42 44  1  0
 41 45  2  0
 45 46  1  0
 13 47  2  0
 47 48  1  0
 48 49  1  0
 49 50  1  0
 49 51  1  0
 49 52  1  0
 47  2  1  0
 45 21  1  0
M  END
>  <score>  (96) 
7.34587

$$$$

     RDKit          3D

 56 58  0  0  0  0  0  0  0  0999 V2000
   26.1362    5.4477   30.8446 H   0  0  0  0  0  0  0  0  0  0  0  0
   25.2972    4.8097   31.0978 C   0  0  0  0  0  0  0  0  0  0  0  0
   25.5037    3.7145   31.9402 C   0  0  0  0  0  0  0  0  0  0  0  0
   27.2586    3.3828   32.6317 Br  0  0  0  0  0  0  0  0  0  0  0  0
   24.4319    2.8654   32.2630 C   0  0  0  0  0  0  0  0  0  0  0  0
   24.6645    1.7943   33.0953 O   0  0  0  0  0  0  0  0  0  0  0  0
   23.6682    0.7593   33.1178 C   0  0  0  0  0  0  0  0  0  0  0  0
   23.4713    0.3979   32.1042 H   0  0  0  0  0  0  0  0  0  0  0  0
   24.0243   -0.0823   33.7224 H   0  0  0  0  0  0  0  0  0  0  0  0
   22.7349    1.1304   33.5511 H   0  0  0  0  0  0  0  0  0  0  0  0
   23.1615    3.1425   31.7269 C   0  0  0  0  0  0  0  0  0  0  0  0
   22.3356    2.4814   31.9721 H   0  0  0  0  0  0  0  0  0  0  0  0
   22.9534    4.2438   30.8797 C   0  0  0  0  0  0  0  0  0  0  0  0
   21.5733    4.5084   30.3197 C   0  0  0  0  0  0  0  0  0  0  0  0
   21.6613    4.8134   29.2702 H   0  0  0  0  0  0  0  0  0  0  0  0
   20.9573    3.6114   30.3649 H   0  0  0  0  0  0  0  0  0  0  0  0
   20.8763    5.6136   31.0966 C   0  0  0  0  0  0  0  0  0  0  0  0
   19.8265    5.4213   31.6846 O   0  0  0  0  0  0  0  0  0  0  0  0
   21.4089    6.8583   31.0180 N   0  0  0  0  0  0  0  0  0  0  0  0
   22.2983    6.9826   30.5624 H   0  0  0  0  0  0  0  0  0  0  0  0
   20.9043    7.9830   31.5562 C   0  0  0  0  0  0  0  0  0  0  0  0
   21.6519    8.9929   31.1715 N   0  0  0  0  0  0  0  0  0  0  0  0
   21.3872   10.2473   31.6075 C   0  0  0  0  0  0  0  0  0  0  0  0
   22.2789   11.3990   31.1309 C   0  0  0  0  0  0  0  0  0  0  0  0
   22.3658   12.4465   31.7729 O   0  0  0  0  0  0  0  0  0  0  0  0
   23.0457   11.3205   29.9658 N   0  0  0  0  0  0  0  0  0  0  0  0
   23.0580   10.4247   29.4850 H   0  0  0  0  0  0  0  0  0  0  0  0
   24.1368   12.2185   29.6291 C   0  0  0  0  0  0  0  0  0  0  0  0
   23.8341   13.2745   29.6231 H   0  0  0  0  0  0  0  0  0  0  0  0
   25.3165   12.0043   30.5600 C   0  0  0  0  0  0  0  0  0  0  0  0
   25.3420   10.9513   30.8699 H   0  0  0  0  0  0  0  0  0  0  0  0
   25.2490   12.6308   31.4566 H   0  0  0  0  0  0  0  0  0  0  0  0
   26.5776   12.3163   29.7376 C   0  0  0  0  0  0  0  0  0  0  0  0
   27.0025   13.2833   30.0254 H   0  0  0  0  0  0  0  0  0  0  0  0
   27.3413   11.5430   29.8873 H   0  0  0  0  0  0  0  0  0  0  0  0
   26.1441   12.3487   28.2764 C   0  0  0  0  0  0  0  0  0  0  0  0
   26.7912   11.7260   27.6461 H   0  0  0  0  0  0  0  0  0  0  0  0
   26.1774   13.3786   27.9005 H   0  0  0  0  0  0  0  0  0  0  0  0
   24.7123   11.8290   28.2776 C   0  0  0  0  0  0  0  0  0  0  0  0
   24.7218   10.7365   28.1805 H   0  0  0  0  0  0  0  0  0  0  0  0
   24.1417   12.2524   27.4511 H   0  0  0  0  0  0  0  0  0  0  0  0
   20.2998   10.4357   32.4879 C   0  0  0  0  0  0  0  0  0  0  0  0
   19.9484   11.7379   32.9560 C   0  0  0  0  0  0  0  0  0  0  0  0
   19.6411   12.8091   33.2895 N   0  0  0  0  0  0  0  0  0  0  0  0
   19.5473    9.3452   32.8800 C   0  0  0  0  0  0  0  0  0  0  0  0
   18.5079    9.4676   33.7483 N   0  0  0  0  0  0  0  0  0  0  0  0
   17.9131    8.6560   33.8964 H   0  0  0  0  0  0  0  0  0  0  0  0
   18.1462   10.4023   33.9321 H   0  0  0  0  0  0  0  0  0  0  0  0
   19.8322    8.1025   32.3978 C   0  0  0  0  0  0  0  0  0  0  0  0
   19.2425    7.2559   32.6954 H   0  0  0  0  0  0  0  0  0  0  0  0
   24.0316    5.0993   30.5678 C   0  0  0  0  0  0  0  0  0  0  0  0
   23.8241    6.1898   29.7504 O   0  0  0  0  0  0  0  0  0  0  0  0
   24.9296    7.0978   29.5986 C   0  0  0  0  0  0  0  0  0  0  0  0
   24.6232    7.9587   28.9967 H   0  0  0  0  0  0  0  0  0  0  0  0
   25.2625    7.4562   30.5770 H   0  0  0  0  0  0  0  0  0  0  0  0
   25.7707    6.6055   29.1008 H   0  0  0  0  0  0  0  0  0  0  0  0
  1  2  1  0
  2  3  2  0
  3  4  1  0
  3  5  1  0
  5  6  1  0
  6  7  1  0
  7  8  1  0
  7  9  1  0
  7 10  1  0
  5 11  2  0
 11 12  1  0
 11 13  1  0
 13 14  1  0
 14 15  1  0
 14 16  1  0
 14 17  1  0
 17 18  2  0
 17 19  1  0
 19 20  1  0
 19 21  1  0
 21 22  2  0
 22 23  1  0
 23 24  1  0
 24 25  2  0
 24 26  1  0
 26 27  1  0
 26 28  1  0
 28 29  1  0
 28 30  1  0
 30 31  1  0
 30 32  1  0
 30 33  1  0
 33 34  1  0
 33 35  1  0
 33 36  1  0
 36 37  1  0
 36 38  1  0
 36 39  1  0
 39 40  1  0
 39 41  1  0
 23 42  2  0
 42 43  1  0
 43 44  3  0
 42 45  1  0
 45 46  1  0
 46 47  1  0
 46 48  1  0
 45 49  2  0
 49 50  1  0
 13 51  2  0
 51 52  1  0
 52 53  1  0
 53 54  1  0
 53 55  1  0
 53 56  1  0
 51  2  1  0
 49 21  1  0
 39 28  1  0
M  END
>  <score>  (97) 
7.35212

$$$$

     RDKit          3D

 46 47  0  0  0  0  0  0  0  0999 V2000
   26.1800    5.4147   30.8410 H   0  0  0  0  0  0  0  0  0  0  0  0
   25.3342    4.7833   31.0984 C   0  0  0  0  0  0  0  0  0  0  0  0
   25.5134    3.6773   31.9429 C   0  0  0  0  0  0  0  0  0  0  0  0
   27.2635    3.3086   32.6318 Br  0  0  0  0  0  0  0  0  0  0  0  0
   24.4281    2.8486   32.2687 C   0  0  0  0  0  0  0  0  0  0  0  0
   24.6591    1.7873   33.1168 O   0  0  0  0  0  0  0  0  0  0  0  0
   23.6872    0.7365   33.1382 C   0  0  0  0  0  0  0  0  0  0  0  0
   24.0684   -0.0909   33.7406 H   0  0  0  0  0  0  0  0  0  0  0  0
   22.7493    1.0769   33.5829 H   0  0  0  0  0  0  0  0  0  0  0  0
   23.4954    0.3625   32.1290 H   0  0  0  0  0  0  0  0  0  0  0  0
   23.1654    3.1548   31.7282 C   0  0  0  0  0  0  0  0  0  0  0  0
   22.3359    2.5026   31.9768 H   0  0  0  0  0  0  0  0  0  0  0  0
   22.9781    4.2640   30.8809 C   0  0  0  0  0  0  0  0  0  0  0  0
   21.6030    4.5486   30.3071 C   0  0  0  0  0  0  0  0  0  0  0  0
   20.9893    3.6438   30.3227 H   0  0  0  0  0  0  0  0  0  0  0  0
   21.7162    4.8556   29.2658 H   0  0  0  0  0  0  0  0  0  0  0  0
   20.8881    5.6736   31.0455 C   0  0  0  0  0  0  0  0  0  0  0  0
   19.8325    5.4841   31.6259 O   0  0  0  0  0  0  0  0  0  0  0  0
   21.4163    6.9264   30.9876 N   0  0  0  0  0  0  0  0  0  0  0  0
   22.2595    7.0869   30.4597 H   0  0  0  0  0  0  0  0  0  0  0  0
   20.9381    8.0240   31.5832 C   0  0  0  0  0  0  0  0  0  0  0  0
   21.6924    9.0397   31.2258 N   0  0  0  0  0  0  0  0  0  0  0  0
   21.3738   10.2454   31.6911 C   0  0  0  0  0  0  0  0  0  0  0  0
   22.1288   11.3502   31.3629 O   0  0  0  0  0  0  0  0  0  0  0  0
   23.3077   11.2079   30.5365 C   0  0  0  0  0  0  0  0  0  0  0  0
   23.0352   10.7612   29.5748 H   0  0  0  0  0  0  0  0  0  0  0  0
   24.0296   10.5485   31.0296 H   0  0  0  0  0  0  0  0  0  0  0  0
   23.9999   12.5680   30.2649 C   0  0  0  0  0  0  0  0  0  0  0  0
   24.3974   13.1497   31.4324 F   0  0  0  0  0  0  0  0  0  0  0  0
   23.1570   13.4155   29.6105 F   0  0  0  0  0  0  0  0  0  0  0  0
   25.1008   12.3671   29.4909 F   0  0  0  0  0  0  0  0  0  0  0  0
   20.2829   10.4472   32.5006 C   0  0  0  0  0  0  0  0  0  0  0  0
   19.9457   11.7738   32.9061 C   0  0  0  0  0  0  0  0  0  0  0  0
   19.7016   12.8717   33.1982 N   0  0  0  0  0  0  0  0  0  0  0  0
   19.5506    9.3484   32.8624 C   0  0  0  0  0  0  0  0  0  0  0  0
   18.4835    9.4700   33.6712 N   0  0  0  0  0  0  0  0  0  0  0  0
   17.9231    8.6537   33.8987 H   0  0  0  0  0  0  0  0  0  0  0  0
   18.1695   10.3978   33.9297 H   0  0  0  0  0  0  0  0  0  0  0  0
   19.8608    8.1029   32.4233 C   0  0  0  0  0  0  0  0  0  0  0  0
   19.2717    7.2501   32.7343 H   0  0  0  0  0  0  0  0  0  0  0  0
   24.0731    5.0957   30.5654 C   0  0  0  0  0  0  0  0  0  0  0  0
   23.8590    6.1818   29.7426 O   0  0  0  0  0  0  0  0  0  0  0  0
   24.9312    7.1191   29.5843 C   0  0  0  0  0  0  0  0  0  0  0  0
   24.5878    7.9652   28.9852 H   0  0  0  0  0  0  0  0  0  0  0  0
   25.7801    6.6607   29.0713 H   0  0  0  0  0  0  0  0  0  0  0  0
   25.2585    7.4994   30.5550 H   0  0  0  0  0  0  0  0  0  0  0  0
  1  2  1  0
  2  3  2  0
  3  4  1  0
  3  5  1  0
  5  6  1  0
  6  7  1  0
  7  8  1  0
  7  9  1  0
  7 10  1  0
  5 11  2  0
 11 12  1  0
 11 13  1  0
 13 14  1  0
 14 15  1  0
 14 16  1  0
 14 17  1  0
 17 18  2  0
 17 19  1  0
 19 20  1  0
 19 21  1  0
 21 22  2  0
 22 23  1  0
 23 24  1  0
 24 25  1  0
 25 26  1  0
 25 27  1  0
 25 28  1  0
 28 29  1  0
 28 30  1  0
 28 31  1  0
 23 32  2  0
 32 33  1  0
 33 34  3  0
 32 35  1  0
 35 36  1  0
 36 37  1  0
 36 38  1  0
 35 39  2  0
 39 40  1  0
 13 41  2  0
 41 42  1  0
 42 43  1  0
 43 44  1  0
 43 45  1  0
 43 46  1  0
 41  2  1  0
 39 21  1  0
M  END
>  <score>  (98) 
7.35357

$$$$

     RDKit          3D

 54 56  0  0  0  0  0  0  0  0999 V2000
   26.1324    5.5372   30.9694 H   0  0  0  0  0  0  0  0  0  0  0  0
   25.3054    4.8646   31.1692 C   0  0  0  0  0  0  0  0  0  0  0  0
   25.5106    3.7434   31.9819 C   0  0  0  0  0  0  0  0  0  0  0  0
   27.2492    3.4445   32.7248 Br  0  0  0  0  0  0  0  0  0  0  0  0
   24.4487    2.8612   32.2441 C   0  0  0  0  0  0  0  0  0  0  0  0
   24.6582    1.7624   33.0478 O   0  0  0  0  0  0  0  0  0  0  0  0
   23.6010    0.7898   33.0808 C   0  0  0  0  0  0  0  0  0  0  0  0
   23.3824    0.4298   32.0697 H   0  0  0  0  0  0  0  0  0  0  0  0
   23.8999   -0.0645   33.6958 H   0  0  0  0  0  0  0  0  0  0  0  0
   22.6885    1.2215   33.5059 H   0  0  0  0  0  0  0  0  0  0  0  0
   23.1933    3.1359   31.6784 C   0  0  0  0  0  0  0  0  0  0  0  0
   22.3715    2.4544   31.8771 H   0  0  0  0  0  0  0  0  0  0  0  0
   22.9801    4.2593   30.8703 C   0  0  0  0  0  0  0  0  0  0  0  0
   21.5821    4.5072   30.3458 C   0  0  0  0  0  0  0  0  0  0  0  0
   20.9392    3.6543   30.5864 H   0  0  0  0  0  0  0  0  0  0  0  0
   21.6104    4.6235   29.2610 H   0  0  0  0  0  0  0  0  0  0  0  0
   20.9752    5.7610   30.9550 C   0  0  0  0  0  0  0  0  0  0  0  0
   19.8859    5.7088   31.5062 O   0  0  0  0  0  0  0  0  0  0  0  0
   21.6007    6.9605   30.7920 N   0  0  0  0  0  0  0  0  0  0  0  0
   22.3749    7.0352   30.1489 H   0  0  0  0  0  0  0  0  0  0  0  0
   21.0946    8.1179   31.2449 C   0  0  0  0  0  0  0  0  0  0  0  0
   21.6101    9.1594   30.6418 N   0  0  0  0  0  0  0  0  0  0  0  0
   21.2223   10.3514   31.0699 C   0  0  0  0  0  0  0  0  0  0  0  0
   21.8982   11.4405   30.5646 N   0  0  0  0  0  0  0  0  0  0  0  0
   22.8726   11.9479   31.5245 C   0  0  0  0  0  0  0  0  0  0  0  0
   22.3517   12.4298   32.3661 H   0  0  0  0  0  0  0  0  0  0  0  0
   23.4904   11.1145   31.8984 H   0  0  0  0  0  0  0  0  0  0  0  0
   23.7399   12.9416   30.8323 C   0  0  0  0  0  0  0  0  0  0  0  0
   23.1341   13.7330   30.3919 H   0  0  0  0  0  0  0  0  0  0  0  0
   24.4830   13.3667   31.5050 H   0  0  0  0  0  0  0  0  0  0  0  0
   24.5794   12.0210   29.5456 S   0  0  0  0  0  0  0  0  0  0  0  0
   25.5485   11.1060   30.1539 O   0  0  0  0  0  0  0  0  0  0  0  0
   25.2017   12.9612   28.6043 O   0  0  0  0  0  0  0  0  0  0  0  0
   23.3225   11.0465   28.7356 C   0  0  0  0  0  0  0  0  0  0  0  0
   23.3782   10.0260   29.1111 H   0  0  0  0  0  0  0  0  0  0  0  0
   23.4838   11.0475   27.6598 H   0  0  0  0  0  0  0  0  0  0  0  0
   22.0106   11.6377   29.1105 C   0  0  0  0  0  0  0  0  0  0  0  0
   21.9411   12.7032   28.8433 H   0  0  0  0  0  0  0  0  0  0  0  0
   21.2339   11.1098   28.5650 H   0  0  0  0  0  0  0  0  0  0  0  0
   20.2939   10.5336   32.0780 C   0  0  0  0  0  0  0  0  0  0  0  0
   19.9315   11.8510   32.4847 C   0  0  0  0  0  0  0  0  0  0  0  0
   19.6837   12.9588   32.7438 N   0  0  0  0  0  0  0  0  0  0  0  0
   19.7691    9.4090   32.6517 C   0  0  0  0  0  0  0  0  0  0  0  0
   18.8117    9.4672   33.6035 N   0  0  0  0  0  0  0  0  0  0  0  0
   18.2500    8.6270   33.7210 H   0  0  0  0  0  0  0  0  0  0  0  0
   18.3544   10.3640   33.7379 H   0  0  0  0  0  0  0  0  0  0  0  0
   20.1899    8.1782   32.2711 C   0  0  0  0  0  0  0  0  0  0  0  0
   19.8391    7.2946   32.7813 H   0  0  0  0  0  0  0  0  0  0  0  0
   24.0504    5.1386   30.5995 C   0  0  0  0  0  0  0  0  0  0  0  0
   23.8346    6.2409   29.7995 O   0  0  0  0  0  0  0  0  0  0  0  0
   24.9547    7.1179   29.6066 C   0  0  0  0  0  0  0  0  0  0  0  0
   24.6614    7.9706   28.9870 H   0  0  0  0  0  0  0  0  0  0  0  0
   25.7741    6.5909   29.1072 H   0  0  0  0  0  0  0  0  0  0  0  0
   25.3142    7.4954   30.5690 H   0  0  0  0  0  0  0  0  0  0  0  0
  1  2  1  0
  2  3  2  0
  3  4  1  0
  3  5  1  0
  5  6  1  0
  6  7  1  0
  7  8  1  0
  7  9  1  0
  7 10  1  0
  5 11  2  0
 11 12  1  0
 11 13  1  0
 13 14  1  0
 14 15  1  0
 14 16  1  0
 14 17  1  0
 17 18  2  0
 17 19  1  0
 19 20  1  0
 19 21  1  0
 21 22  2  0
 22 23  1  0
 23 24  1  0
 24 25  1  0
 25 26  1  0
 25 27  1  0
 25 28  1  0
 28 29  1  0
 28 30  1  0
 28 31  1  0
 31 32  2  0
 31 33  2  0
 31 34  1  0
 34 35  1  0
 34 36  1  0
 34 37  1  0
 37 38  1  0
 37 39  1  0
 23 40  2  0
 40 41  1  0
 41 42  3  0
 40 43  1  0
 43 44  1  0
 44 45  1  0
 44 46  1  0
 43 47  2  0
 47 48  1  0
 13 49  2  0
 49 50  1  0
 50 51  1  0
 51 52  1  0
 51 53  1  0
 51 54  1  0
 49  2  1  0
 47 21  1  0
 37 24  1  0
M  END
>  <score>  (99) 
7.35418

$$$$

     RDKit          3D

 40 41  0  0  0  0  0  0  0  0999 V2000
   26.1722    5.4224   30.8402 H   0  0  0  0  0  0  0  0  0  0  0  0
   25.3300    4.7866   31.0993 C   0  0  0  0  0  0  0  0  0  0  0  0
   25.5122    3.6796   31.9425 C   0  0  0  0  0  0  0  0  0  0  0  0
   27.2647    3.3200   32.6319 Br  0  0  0  0  0  0  0  0  0  0  0  0
   24.4293    2.8476   32.2689 C   0  0  0  0  0  0  0  0  0  0  0  0
   24.6624    1.7867   33.1166 O   0  0  0  0  0  0  0  0  0  0  0  0
   23.6861    0.7397   33.1363 C   0  0  0  0  0  0  0  0  0  0  0  0
   23.4939    0.3677   32.1270 H   0  0  0  0  0  0  0  0  0  0  0  0
   22.7491    1.0829   33.5794 H   0  0  0  0  0  0  0  0  0  0  0  0
   24.0608   -0.0897   33.7375 H   0  0  0  0  0  0  0  0  0  0  0  0
   23.1666    3.1510   31.7272 C   0  0  0  0  0  0  0  0  0  0  0  0
   22.3422    2.4927   31.9777 H   0  0  0  0  0  0  0  0  0  0  0  0
   22.9750    4.2599   30.8799 C   0  0  0  0  0  0  0  0  0  0  0  0
   21.5974    4.5383   30.3053 C   0  0  0  0  0  0  0  0  0  0  0  0
   20.9827    3.6358   30.3228 H   0  0  0  0  0  0  0  0  0  0  0  0
   21.7091    4.8457   29.2641 H   0  0  0  0  0  0  0  0  0  0  0  0
   20.8785    5.6565   31.0485 C   0  0  0  0  0  0  0  0  0  0  0  0
   19.8258    5.4659   31.6348 O   0  0  0  0  0  0  0  0  0  0  0  0
   21.4103    6.9077   30.9951 N   0  0  0  0  0  0  0  0  0  0  0  0
   22.2646    7.0638   30.4797 H   0  0  0  0  0  0  0  0  0  0  0  0
   20.9171    8.0050   31.5873 C   0  0  0  0  0  0  0  0  0  0  0  0
   21.6643    9.0216   31.2309 N   0  0  0  0  0  0  0  0  0  0  0  0
   21.3781   10.2457   31.6799 C   0  0  0  0  0  0  0  0  0  0  0  0
   22.2424   11.3180   31.2657 C   0  0  0  0  0  0  0  0  0  0  0  0
   22.9307   12.2096   30.9527 N   0  0  0  0  0  0  0  0  0  0  0  0
   20.2794   10.4613   32.5047 C   0  0  0  0  0  0  0  0  0  0  0  0
   19.9244   11.7811   32.9266 C   0  0  0  0  0  0  0  0  0  0  0  0
   19.6625   12.8718   33.2286 N   0  0  0  0  0  0  0  0  0  0  0  0
   19.5371    9.3568   32.8691 C   0  0  0  0  0  0  0  0  0  0  0  0
   18.4729    9.4714   33.6898 N   0  0  0  0  0  0  0  0  0  0  0  0
   18.1506   10.3992   33.9396 H   0  0  0  0  0  0  0  0  0  0  0  0
   17.9115    8.6516   33.9071 H   0  0  0  0  0  0  0  0  0  0  0  0
   19.8437    8.1067   32.4269 C   0  0  0  0  0  0  0  0  0  0  0  0
   19.2566    7.2592   32.7384 H   0  0  0  0  0  0  0  0  0  0  0  0
   24.0686    5.0949   30.5651 C   0  0  0  0  0  0  0  0  0  0  0  0
   23.8521    6.1805   29.7440 O   0  0  0  0  0  0  0  0  0  0  0  0
   24.9300    7.1130   29.5875 C   0  0  0  0  0  0  0  0  0  0  0  0
   25.2578    7.4932   30.5579 H   0  0  0  0  0  0  0  0  0  0  0  0
   25.7783    6.6524   29.0759 H   0  0  0  0  0  0  0  0  0  0  0  0
   24.5943    7.9605   28.9881 H   0  0  0  0  0  0  0  0  0  0  0  0
  1  2  1  0
  2  3  2  0
  3  4  1  0
  3  5  1  0
  5  6  1  0
  6  7  1  0
  7  8  1  0
  7  9  1  0
  7 10  1  0
  5 11  2  0
 11 12  1  0
 11 13  1  0
 13 14  1  0
 14 15  1  0
 14 16  1  0
 14 17  1  0
 17 18  2  0
 17 19  1  0
 19 20  1  0
 19 21  1  0
 21 22  2  0
 22 23  1  0
 23 24  1  0
 24 25  3  0
 23 26  2  0
 26 27  1  0
 27 28  3  0
 26 29  1  0
 29 30  1  0
 30 31  1  0
 30 32  1  0
 29 33  2  0
 33 34  1  0
 13 35  2  0
 35 36  1  0
 36 37  1  0
 37 38  1  0
 37 39  1  0
 37 40  1  0
 35  2  1  0
 33 21  1  0
M  END
>  <score>  (100) 
7.35576

$$$$

     RDKit          3D

 52 53  0  0  0  0  0  0  0  0999 V2000
   26.1578    5.4346   30.8440 H   0  0  0  0  0  0  0  0  0  0  0  0
   25.3130    4.8042   31.0987 C   0  0  0  0  0  0  0  0  0  0  0  0
   25.5080    3.7049   31.9399 C   0  0  0  0  0  0  0  0  0  0  0  0
   27.2610    3.3577   32.6315 Br  0  0  0  0  0  0  0  0  0  0  0  0
   24.4293    2.8650   32.2632 C   0  0  0  0  0  0  0  0  0  0  0  0
   24.6622    1.7942   33.0978 O   0  0  0  0  0  0  0  0  0  0  0  0
   23.6739    0.7532   33.1231 C   0  0  0  0  0  0  0  0  0  0  0  0
   22.7377    1.1140   33.5599 H   0  0  0  0  0  0  0  0  0  0  0  0
   23.4758    0.3853   32.1113 H   0  0  0  0  0  0  0  0  0  0  0  0
   24.0378   -0.0851   33.7277 H   0  0  0  0  0  0  0  0  0  0  0  0
   23.1596    3.1545   31.7269 C   0  0  0  0  0  0  0  0  0  0  0  0
   22.3281    2.5010   31.9739 H   0  0  0  0  0  0  0  0  0  0  0  0
   22.9621    4.2619   30.8834 C   0  0  0  0  0  0  0  0  0  0  0  0
   21.5899    4.5597   30.3203 C   0  0  0  0  0  0  0  0  0  0  0  0
   21.6869    4.8338   29.2646 H   0  0  0  0  0  0  0  0  0  0  0  0
   20.9435    3.6851   30.3875 H   0  0  0  0  0  0  0  0  0  0  0  0
   20.9370    5.7088   31.0717 C   0  0  0  0  0  0  0  0  0  0  0  0
   19.8826    5.5481   31.6664 O   0  0  0  0  0  0  0  0  0  0  0  0
   21.5014    6.9410   30.9910 N   0  0  0  0  0  0  0  0  0  0  0  0
   22.3697    7.0574   30.4903 H   0  0  0  0  0  0  0  0  0  0  0  0
   21.0203    8.0596   31.5664 C   0  0  0  0  0  0  0  0  0  0  0  0
   21.7703    9.0782   31.2381 N   0  0  0  0  0  0  0  0  0  0  0  0
   21.4209   10.2623   31.6977 C   0  0  0  0  0  0  0  0  0  0  0  0
   22.1870   11.3064   31.2771 N   0  0  0  0  0  0  0  0  0  0  0  0
   21.7666   12.2209   31.2203 H   0  0  0  0  0  0  0  0  0  0  0  0
   23.4724   11.1226   30.8437 C   0  0  0  0  0  0  0  0  0  0  0  0
   24.0554   10.0705   31.0510 O   0  0  0  0  0  0  0  0  0  0  0  0
   24.2046   12.2807   30.1809 C   0  0  0  0  0  0  0  0  0  0  0  0
   25.2754   12.1654   30.3778 H   0  0  0  0  0  0  0  0  0  0  0  0
   23.8644   13.2120   30.6457 H   0  0  0  0  0  0  0  0  0  0  0  0
   23.9462   12.3119   28.6604 C   0  0  0  0  0  0  0  0  0  0  0  0
   24.2678   11.3646   28.2093 H   0  0  0  0  0  0  0  0  0  0  0  0
   22.8725   12.4224   28.4716 H   0  0  0  0  0  0  0  0  0  0  0  0
   24.6896   13.4633   27.9809 C   0  0  0  0  0  0  0  0  0  0  0  0
   24.3748   14.4284   28.3933 H   0  0  0  0  0  0  0  0  0  0  0  0
   25.7709   13.3556   28.1176 H   0  0  0  0  0  0  0  0  0  0  0  0
   24.4705   13.4564   26.9077 H   0  0  0  0  0  0  0  0  0  0  0  0
   20.3184   10.4789   32.4880 C   0  0  0  0  0  0  0  0  0  0  0  0
   19.9733   11.7945   32.9082 C   0  0  0  0  0  0  0  0  0  0  0  0
   19.7204   12.8927   33.1939 N   0  0  0  0  0  0  0  0  0  0  0  0
   19.5827    9.3832   32.8418 C   0  0  0  0  0  0  0  0  0  0  0  0
   18.5157    9.4916   33.6605 N   0  0  0  0  0  0  0  0  0  0  0  0
   18.1873   10.4211   33.9126 H   0  0  0  0  0  0  0  0  0  0  0  0
   17.9691    8.6585   33.8681 H   0  0  0  0  0  0  0  0  0  0  0  0
   19.9144    8.1479   32.3765 C   0  0  0  0  0  0  0  0  0  0  0  0
   19.3210    7.2904   32.6381 H   0  0  0  0  0  0  0  0  0  0  0  0
   24.0487    5.1031   30.5691 C   0  0  0  0  0  0  0  0  0  0  0  0
   23.8369    6.1886   29.7466 O   0  0  0  0  0  0  0  0  0  0  0  0
   24.9279    7.1106   29.5984 C   0  0  0  0  0  0  0  0  0  0  0  0
   24.6048    7.9708   29.0047 H   0  0  0  0  0  0  0  0  0  0  0  0
   25.2618    7.4710   30.5766 H   0  0  0  0  0  0  0  0  0  0  0  0
   25.7739    6.6366   29.0897 H   0  0  0  0  0  0  0  0  0  0  0  0
  1  2  1  0
  2  3  2  0
  3  4  1  0
  3  5  1  0
  5  6  1  0
  6  7  1  0
  7  8  1  0
  7  9  1  0
  7 10  1  0
  5 11  2  0
 11 12  1  0
 11 13  1  0
 13 14  1  0
 14 15  1  0
 14 16  1  0
 14 17  1  0
 17 18  2  0
 17 19  1  0
 19 20  1  0
 19 21  1  0
 21 22  2  0
 22 23  1  0
 23 24  1  0
 24 25  1  0
 24 26  1  0
 26 27  2  0
 26 28  1  0
 28 29  1  0
 28 30  1  0
 28 31  1  0
 31 32  1  0
 31 33  1  0
 31 34  1  0
 34 35  1  0
 34 36  1  0
 34 37  1  0
 23 38  2  0
 38 39  1  0
 39 40  3  0
 38 41  1  0
 41 42  1  0
 42 43  1  0
 42 44  1  0
 41 45  2  0
 45 46  1  0
 13 47  2  0
 47 48  1  0
 48 49  1  0
 49 50  1  0
 49 51  1  0
 49 52  1  0
 47  2  1  0
 45 21  1  0
M  END
>  <score>  (101) 
7.35912

$$$$

     RDKit          3D

 52 54  0  0  0  0  0  0  0  0999 V2000
   21.9628    9.1824   25.6576 H   0  0  0  0  0  0  0  0  0  0  0  0
   22.2616    9.5899   26.6168 C   0  0  0  0  0  0  0  0  0  0  0  0
   21.4108   10.3924   27.2715 N   0  0  0  0  0  0  0  0  0  0  0  0
   21.7946   10.9050   28.4551 C   0  0  0  0  0  0  0  0  0  0  0  0
   21.1202   11.5646   28.9986 H   0  0  0  0  0  0  0  0  0  0  0  0
   23.0362   10.6334   29.0306 C   0  0  0  0  0  0  0  0  0  0  0  0
   23.3455   11.1330   30.4146 C   0  0  0  0  0  0  0  0  0  0  0  0
   23.9520   12.0452   30.3533 H   0  0  0  0  0  0  0  0  0  0  0  0
   23.9465   10.3716   30.9275 H   0  0  0  0  0  0  0  0  0  0  0  0
   22.1383   11.4050   31.1625 O   0  0  0  0  0  0  0  0  0  0  0  0
   21.4196   10.3134   31.5822 C   0  0  0  0  0  0  0  0  0  0  0  0
   21.8180    9.0988   31.2048 N   0  0  0  0  0  0  0  0  0  0  0  0
   21.1326    8.0659   31.6262 C   0  0  0  0  0  0  0  0  0  0  0  0
   21.6582    6.9101   31.1937 N   0  0  0  0  0  0  0  0  0  0  0  0
   22.5259    7.0025   30.6881 H   0  0  0  0  0  0  0  0  0  0  0  0
   20.9503    5.7436   31.1028 C   0  0  0  0  0  0  0  0  0  0  0  0
   19.8025    5.6895   31.5153 O   0  0  0  0  0  0  0  0  0  0  0  0
   21.5588    4.5475   30.3822 C   0  0  0  0  0  0  0  0  0  0  0  0
   20.9197    3.6724   30.5308 H   0  0  0  0  0  0  0  0  0  0  0  0
   21.5976    4.7539   29.3096 H   0  0  0  0  0  0  0  0  0  0  0  0
   22.9524    4.2696   30.8989 C   0  0  0  0  0  0  0  0  0  0  0  0
   23.1636    3.1616   31.7283 C   0  0  0  0  0  0  0  0  0  0  0  0
   22.3345    2.5071   31.9775 H   0  0  0  0  0  0  0  0  0  0  0  0
   24.4354    2.8714   32.2548 C   0  0  0  0  0  0  0  0  0  0  0  0
   24.6692    1.7811   33.0597 O   0  0  0  0  0  0  0  0  0  0  0  0
   23.6348    0.7883   33.0858 C   0  0  0  0  0  0  0  0  0  0  0  0
   22.7159    1.2000   33.5137 H   0  0  0  0  0  0  0  0  0  0  0  0
   23.4216    0.4265   32.0745 H   0  0  0  0  0  0  0  0  0  0  0  0
   23.9538   -0.0605   33.6962 H   0  0  0  0  0  0  0  0  0  0  0  0
   25.5040    3.7295   31.9514 C   0  0  0  0  0  0  0  0  0  0  0  0
   27.2568    3.4238   32.6614 Br  0  0  0  0  0  0  0  0  0  0  0  0
   25.2982    4.8321   31.1197 C   0  0  0  0  0  0  0  0  0  0  0  0
   26.1336    5.4809   30.8765 H   0  0  0  0  0  0  0  0  0  0  0  0
   24.0310    5.1223   30.5905 C   0  0  0  0  0  0  0  0  0  0  0  0
   23.8134    6.2268   29.7998 O   0  0  0  0  0  0  0  0  0  0  0  0
   24.9426    7.0900   29.6159 C   0  0  0  0  0  0  0  0  0  0  0  0
   25.2920    7.4762   30.5789 H   0  0  0  0  0  0  0  0  0  0  0  0
   25.7653    6.5563   29.1301 H   0  0  0  0  0  0  0  0  0  0  0  0
   24.6591    7.9289   28.9843 H   0  0  0  0  0  0  0  0  0  0  0  0
   20.0395    8.1543   32.4305 C   0  0  0  0  0  0  0  0  0  0  0  0
   19.5201    7.2804   32.7846 H   0  0  0  0  0  0  0  0  0  0  0  0
   19.6478    9.3885   32.8132 C   0  0  0  0  0  0  0  0  0  0  0  0
   18.5834    9.4578   33.6338 N   0  0  0  0  0  0  0  0  0  0  0  0
   18.0281    8.6106   33.7364 H   0  0  0  0  0  0  0  0  0  0  0  0
   18.1386   10.3609   33.7565 H   0  0  0  0  0  0  0  0  0  0  0  0
   20.3235   10.5041   32.4035 C   0  0  0  0  0  0  0  0  0  0  0  0
   19.9422   11.8051   32.8364 C   0  0  0  0  0  0  0  0  0  0  0  0
   19.6336   12.8651   33.2027 N   0  0  0  0  0  0  0  0  0  0  0  0
   23.9507    9.8507   28.3238 C   0  0  0  0  0  0  0  0  0  0  0  0
   24.9351    9.6370   28.7385 H   0  0  0  0  0  0  0  0  0  0  0  0
   23.5307    9.2967   27.1204 C   0  0  0  0  0  0  0  0  0  0  0  0
   24.1808    8.6212   26.5926 H   0  0  0  0  0  0  0  0  0  0  0  0
  1  2  1  0
  2  3  2  0
  3  4  1  0
  4  5  1  0
  4  6  2  0
  6  7  1  0
  7  8  1  0
  7  9  1  0
  7 10  1  0
 10 11  1  0
 11 12  2  0
 12 13  1  0
 13 14  1  0
 14 15  1  0
 14 16  1  0
 16 17  2  0
 16 18  1  0
 18 19  1  0
 18 20  1  0
 18 21  1  0
 21 22  2  0
 22 23  1  0
 22 24  1  0
 24 25  1  0
 25 26  1  0
 26 27  1  0
 26 28  1  0
 26 29  1  0
 24 30  2  0
 30 31  1  0
 30 32  1  0
 32 33  1  0
 32 34  2  0
 34 35  1  0
 35 36  1  0
 36 37  1  0
 36 38  1  0
 36 39  1  0
 13 40  2  0
 40 41  1  0
 40 42  1  0
 42 43  1  0
 43 44  1  0
 43 45  1  0
 42 46  2  0
 46 47  1  0
 47 48  3  0
  6 49  1  0
 49 50  1  0
 49 51  2  0
 51 52  1  0
 51  2  1  0
 46 11  1  0
 34 21  1  0
M  END
>  <score>  (102) 
7.3597

$$$$

     RDKit          3D

 45 46  0  0  0  0  0  0  0  0999 V2000
   26.1055    5.4767   30.8539 H   0  0  0  0  0  0  0  0  0  0  0  0
   25.2770    4.8206   31.1033 C   0  0  0  0  0  0  0  0  0  0  0  0
   25.4856    3.7286   31.9492 C   0  0  0  0  0  0  0  0  0  0  0  0
   27.2476    3.4356   32.6392 Br  0  0  0  0  0  0  0  0  0  0  0  0
   24.4223    2.8667   32.2596 C   0  0  0  0  0  0  0  0  0  0  0  0
   24.6623    1.7920   33.0825 O   0  0  0  0  0  0  0  0  0  0  0  0
   23.6497    0.7783   33.0994 C   0  0  0  0  0  0  0  0  0  0  0  0
   23.4482    0.4182   32.0848 H   0  0  0  0  0  0  0  0  0  0  0  0
   22.7223    1.1679   33.5297 H   0  0  0  0  0  0  0  0  0  0  0  0
   23.9867   -0.0660   33.7059 H   0  0  0  0  0  0  0  0  0  0  0  0
   23.1550    3.1378   31.7157 C   0  0  0  0  0  0  0  0  0  0  0  0
   22.3296    2.4791   31.9655 H   0  0  0  0  0  0  0  0  0  0  0  0
   22.9413    4.2341   30.8719 C   0  0  0  0  0  0  0  0  0  0  0  0
   21.5461    4.4829   30.3505 C   0  0  0  0  0  0  0  0  0  0  0  0
   20.9415    3.5736   30.4024 H   0  0  0  0  0  0  0  0  0  0  0  0
   21.6033    4.7779   29.3025 H   0  0  0  0  0  0  0  0  0  0  0  0
   20.8832    5.6096   31.1315 C   0  0  0  0  0  0  0  0  0  0  0  0
   19.8234    5.4513   31.7173 O   0  0  0  0  0  0  0  0  0  0  0  0
   21.4617    6.8424   31.0559 N   0  0  0  0  0  0  0  0  0  0  0  0
   22.3437    6.9210   30.5631 H   0  0  0  0  0  0  0  0  0  0  0  0
   20.9661    8.0000   31.5577 C   0  0  0  0  0  0  0  0  0  0  0  0
   21.6921    9.0529   31.1923 N   0  0  0  0  0  0  0  0  0  0  0  0
   21.4066   10.3222   31.6096 C   0  0  0  0  0  0  0  0  0  0  0  0
   22.4421   11.8162   31.0638 S   0  0  0  0  0  0  0  0  0  0  0  0
   23.7959   11.4799   30.5734 O   0  0  0  0  0  0  0  0  0  0  0  0
   22.5313   12.8732   32.0950 O   0  0  0  0  0  0  0  0  0  0  0  0
   21.5423   12.5799   29.6942 C   0  0  0  0  0  0  0  0  0  0  0  0
   22.1652   13.3797   29.2862 H   0  0  0  0  0  0  0  0  0  0  0  0
   21.3371   11.8402   28.9180 H   0  0  0  0  0  0  0  0  0  0  0  0
   20.6071   13.0039   30.0672 H   0  0  0  0  0  0  0  0  0  0  0  0
   20.3042   10.4844   32.4763 C   0  0  0  0  0  0  0  0  0  0  0  0
   19.9076   11.7697   32.9639 C   0  0  0  0  0  0  0  0  0  0  0  0
   19.5766   12.8137   33.3609 N   0  0  0  0  0  0  0  0  0  0  0  0
   19.5701    9.3603   32.8521 C   0  0  0  0  0  0  0  0  0  0  0  0
   18.5327    9.4421   33.7311 N   0  0  0  0  0  0  0  0  0  0  0  0
   17.9583    8.6123   33.8597 H   0  0  0  0  0  0  0  0  0  0  0  0
   18.1319   10.3585   33.9248 H   0  0  0  0  0  0  0  0  0  0  0  0
   19.8677    8.1124   32.3704 C   0  0  0  0  0  0  0  0  0  0  0  0
   19.2736    7.2526   32.6445 H   0  0  0  0  0  0  0  0  0  0  0  0
   24.0135    5.0974   30.5592 C   0  0  0  0  0  0  0  0  0  0  0  0
   23.7966    6.1983   29.7581 O   0  0  0  0  0  0  0  0  0  0  0  0
   24.9160    7.0861   29.6066 C   0  0  0  0  0  0  0  0  0  0  0  0
   24.6342    7.9531   29.0030 H   0  0  0  0  0  0  0  0  0  0  0  0
   25.2542    7.4391   30.5865 H   0  0  0  0  0  0  0  0  0  0  0  0
   25.7485    6.5729   29.1134 H   0  0  0  0  0  0  0  0  0  0  0  0
  1  2  1  0
  2  3  2  0
  3  4  1  0
  3  5  1  0
  5  6  1  0
  6  7  1  0
  7  8  1  0
  7  9  1  0
  7 10  1  0
  5 11  2  0
 11 12  1  0
 11 13  1  0
 13 14  1  0
 14 15  1  0
 14 16  1  0
 14 17  1  0
 17 18  2  0
 17 19  1  0
 19 20  1  0
 19 21  1  0
 21 22  2  0
 22 23  1  0
 23 24  1  0
 24 25  2  0
 24 26  2  0
 24 27  1  0
 27 28  1  0
 27 29  1  0
 27 30  1  0
 23 31  2  0
 31 32  1  0
 32 33  3  0
 31 34  1  0
 34 35  1  0
 35 36  1  0
 35 37  1  0
 34 38  2  0
 38 39  1  0
 13 40  2  0
 40 41  1  0
 41 42  1  0
 42 43  1  0
 42 44  1  0
 42 45  1  0
 40  2  1  0
 38 21  1  0
M  END
>  <score>  (103) 
7.36066

$$$$

     RDKit          3D

 46 47  0  0  0  0  0  0  0  0999 V2000
   22.7804   15.0634   29.1211 H   0  0  0  0  0  0  0  0  0  0  0  0
   22.0605   14.4870   29.4131 O   0  0  0  0  0  0  0  0  0  0  0  0
   22.6565   13.5404   30.1699 C   0  0  0  0  0  0  0  0  0  0  0  0
   23.8524   13.5339   30.4110 O   0  0  0  0  0  0  0  0  0  0  0  0
   21.7788   12.5190   30.7551 C   0  0  0  0  0  0  0  0  0  0  0  0
   20.7368   12.8148   30.8315 H   0  0  0  0  0  0  0  0  0  0  0  0
   22.1994   11.2323   31.1124 C   0  0  0  0  0  0  0  0  0  0  0  0
   23.2363   10.9378   30.9827 H   0  0  0  0  0  0  0  0  0  0  0  0
   21.3756   10.1510   31.6645 C   0  0  0  0  0  0  0  0  0  0  0  0
   21.8155    8.9265   31.3737 N   0  0  0  0  0  0  0  0  0  0  0  0
   21.1473    7.8907   31.8195 C   0  0  0  0  0  0  0  0  0  0  0  0
   21.6579    6.7449   31.3391 N   0  0  0  0  0  0  0  0  0  0  0  0
   22.4952    6.8642   30.7910 H   0  0  0  0  0  0  0  0  0  0  0  0
   20.9279    5.6051   31.1553 C   0  0  0  0  0  0  0  0  0  0  0  0
   19.7862    5.5197   31.5738 O   0  0  0  0  0  0  0  0  0  0  0  0
   21.5495    4.4576   30.3743 C   0  0  0  0  0  0  0  0  0  0  0  0
   20.9505    3.5536   30.5143 H   0  0  0  0  0  0  0  0  0  0  0  0
   21.5621    4.6980   29.3109 H   0  0  0  0  0  0  0  0  0  0  0  0
   22.9523    4.2190   30.8654 C   0  0  0  0  0  0  0  0  0  0  0  0
   23.1739    3.1134   31.6890 C   0  0  0  0  0  0  0  0  0  0  0  0
   22.3553    2.4406   31.9206 H   0  0  0  0  0  0  0  0  0  0  0  0
   24.4358    2.8481   32.2434 C   0  0  0  0  0  0  0  0  0  0  0  0
   24.6639    1.7602   33.0538 O   0  0  0  0  0  0  0  0  0  0  0  0
   23.6129    0.7841   33.0838 C   0  0  0  0  0  0  0  0  0  0  0  0
   23.9133   -0.0683   33.6976 H   0  0  0  0  0  0  0  0  0  0  0  0
   22.7000    1.2143   33.5075 H   0  0  0  0  0  0  0  0  0  0  0  0
   23.3936    0.4236   32.0730 H   0  0  0  0  0  0  0  0  0  0  0  0
   25.4904    3.7307   31.9649 C   0  0  0  0  0  0  0  0  0  0  0  0
   27.2377    3.4512   32.6992 Br  0  0  0  0  0  0  0  0  0  0  0  0
   25.2746    4.8395   31.1394 C   0  0  0  0  0  0  0  0  0  0  0  0
   26.0942    5.5189   30.9237 H   0  0  0  0  0  0  0  0  0  0  0  0
   24.0130    5.1052   30.5816 C   0  0  0  0  0  0  0  0  0  0  0  0
   23.7894    6.2230   29.8055 O   0  0  0  0  0  0  0  0  0  0  0  0
   24.9205    7.0889   29.6106 C   0  0  0  0  0  0  0  0  0  0  0  0
   25.2895    7.4614   30.5723 H   0  0  0  0  0  0  0  0  0  0  0  0
   24.6420    7.9469   28.9927 H   0  0  0  0  0  0  0  0  0  0  0  0
   25.7313    6.5505   29.1087 H   0  0  0  0  0  0  0  0  0  0  0  0
   20.0419    7.9828   32.6122 C   0  0  0  0  0  0  0  0  0  0  0  0
   19.5197    7.1126   32.9702 H   0  0  0  0  0  0  0  0  0  0  0  0
   19.6019    9.2298   32.9089 C   0  0  0  0  0  0  0  0  0  0  0  0
   18.4814    9.2882   33.6482 N   0  0  0  0  0  0  0  0  0  0  0  0
   17.8858   10.0793   33.4516 H   0  0  0  0  0  0  0  0  0  0  0  0
   18.0409    8.3854   33.8094 H   0  0  0  0  0  0  0  0  0  0  0  0
   20.2454   10.3543   32.4480 C   0  0  0  0  0  0  0  0  0  0  0  0
   19.8075   11.6665   32.7925 C   0  0  0  0  0  0  0  0  0  0  0  0
   19.4566   12.7446   33.0594 N   0  0  0  0  0  0  0  0  0  0  0  0
  1  2  1  0
  2  3  1  0
  3  4  2  0
  3  5  1  0
  5  6  1  0
  5  7  2  3
  7  8  1  0
  7  9  1  0
  9 10  2  0
 10 11  1  0
 11 12  1  0
 12 13  1  0
 12 14  1  0
 14 15  2  0
 14 16  1  0
 16 17  1  0
 16 18  1  0
 16 19  1  0
 19 20  2  0
 20 21  1  0
 20 22  1  0
 22 23  1  0
 23 24  1  0
 24 25  1  0
 24 26  1  0
 24 27  1  0
 22 28  2  0
 28 29  1  0
 28 30  1  0
 30 31  1  0
 30 32  2  0
 32 33  1  0
 33 34  1  0
 34 35  1  0
 34 36  1  0
 34 37  1  0
 11 38  2  0
 38 39  1  0
 38 40  1  0
 40 41  1  0
 41 42  1  0
 41 43  1  0
 40 44  2  0
 44 45  1  0
 45 46  3  0
 44  9  1  0
 32 19  1  0
M  END
>  <score>  (104) 
7.36187

$$$$

     RDKit          3D

 45 46  0  0  0  0  0  0  0  0999 V2000
   26.1922    5.4099   30.8450 H   0  0  0  0  0  0  0  0  0  0  0  0
   25.3456    4.7797   31.1003 C   0  0  0  0  0  0  0  0  0  0  0  0
   25.5236    3.6729   31.9461 C   0  0  0  0  0  0  0  0  0  0  0  0
   27.2723    3.2968   32.6352 Br  0  0  0  0  0  0  0  0  0  0  0  0
   24.4379    2.8434   32.2730 C   0  0  0  0  0  0  0  0  0  0  0  0
   24.6619    1.7824   33.1241 O   0  0  0  0  0  0  0  0  0  0  0  0
   23.6910    0.7302   33.1435 C   0  0  0  0  0  0  0  0  0  0  0  0
   23.4990    0.3578   32.1340 H   0  0  0  0  0  0  0  0  0  0  0  0
   24.0747   -0.0969   33.7451 H   0  0  0  0  0  0  0  0  0  0  0  0
   22.7519    1.0690   33.5868 H   0  0  0  0  0  0  0  0  0  0  0  0
   23.1764    3.1452   31.7319 C   0  0  0  0  0  0  0  0  0  0  0  0
   22.3406    2.5004   31.9803 H   0  0  0  0  0  0  0  0  0  0  0  0
   22.9922    4.2514   30.8832 C   0  0  0  0  0  0  0  0  0  0  0  0
   21.6149    4.5440   30.3300 C   0  0  0  0  0  0  0  0  0  0  0  0
   21.0137    3.6304   30.3130 H   0  0  0  0  0  0  0  0  0  0  0  0
   21.7235    4.8830   29.2976 H   0  0  0  0  0  0  0  0  0  0  0  0
   20.9065    5.6426   31.1262 C   0  0  0  0  0  0  0  0  0  0  0  0
   19.7193    5.5472   31.3914 O   0  0  0  0  0  0  0  0  0  0  0  0
   21.5704    6.8082   31.3698 N   0  0  0  0  0  0  0  0  0  0  0  0
   22.4814    6.9208   30.9468 H   0  0  0  0  0  0  0  0  0  0  0  0
   20.9997    7.9791   31.7277 C   0  0  0  0  0  0  0  0  0  0  0  0
   21.7494    8.9938   31.3434 N   0  0  0  0  0  0  0  0  0  0  0  0
   21.3851   10.2330   31.6894 C   0  0  0  0  0  0  0  0  0  0  0  0
   22.2622   11.3675   31.2186 C   0  0  0  0  0  0  0  0  0  0  0  0
   23.2654   10.9756   31.0345 H   0  0  0  0  0  0  0  0  0  0  0  0
   22.3379   12.1258   32.0033 H   0  0  0  0  0  0  0  0  0  0  0  0
   21.7254   12.0208   29.9390 C   0  0  0  0  0  0  0  0  0  0  0  0
   20.7369   12.4550   30.1132 H   0  0  0  0  0  0  0  0  0  0  0  0
   21.6489   11.2849   29.1336 H   0  0  0  0  0  0  0  0  0  0  0  0
   22.3963   12.8187   29.6084 H   0  0  0  0  0  0  0  0  0  0  0  0
   20.2699   10.4729   32.4769 C   0  0  0  0  0  0  0  0  0  0  0  0
   19.9428   11.8002   32.8887 C   0  0  0  0  0  0  0  0  0  0  0  0
   19.7103   12.9025   33.1892 N   0  0  0  0  0  0  0  0  0  0  0  0
   19.5211    9.3792   32.8467 C   0  0  0  0  0  0  0  0  0  0  0  0
   18.4547    9.4986   33.6591 N   0  0  0  0  0  0  0  0  0  0  0  0
   17.9233    8.6678   33.8951 H   0  0  0  0  0  0  0  0  0  0  0  0
   18.1436   10.4174   33.9523 H   0  0  0  0  0  0  0  0  0  0  0  0
   19.8514    8.1134   32.4566 C   0  0  0  0  0  0  0  0  0  0  0  0
   19.2481    7.2686   32.7598 H   0  0  0  0  0  0  0  0  0  0  0  0
   24.0840    5.0882   30.5687 C   0  0  0  0  0  0  0  0  0  0  0  0
   23.8652    6.1787   29.7524 O   0  0  0  0  0  0  0  0  0  0  0  0
   24.9317    7.1212   29.5850 C   0  0  0  0  0  0  0  0  0  0  0  0
   24.5789    7.9632   28.9842 H   0  0  0  0  0  0  0  0  0  0  0  0
   25.7806    6.6659   29.0702 H   0  0  0  0  0  0  0  0  0  0  0  0
   25.2636    7.5065   30.5516 H   0  0  0  0  0  0  0  0  0  0  0  0
  1  2  1  0
  2  3  2  0
  3  4  1  0
  3  5  1  0
  5  6  1  0
  6  7  1  0
  7  8  1  0
  7  9  1  0
  7 10  1  0
  5 11  2  0
 11 12  1  0
 11 13  1  0
 13 14  1  0
 14 15  1  0
 14 16  1  0
 14 17  1  0
 17 18  2  0
 17 19  1  0
 19 20  1  0
 19 21  1  0
 21 22  2  0
 22 23  1  0
 23 24  1  0
 24 25  1  0
 24 26  1  0
 24 27  1  0
 27 28  1  0
 27 29  1  0
 27 30  1  0
 23 31  2  0
 31 32  1  0
 32 33  3  0
 31 34  1  0
 34 35  1  0
 35 36  1  0
 35 37  1  0
 34 38  2  0
 38 39  1  0
 13 40  2  0
 40 41  1  0
 41 42  1  0
 42 43  1  0
 42 44  1  0
 42 45  1  0
 40  2  1  0
 38 21  1  0
M  END
>  <score>  (105) 
7.36314

$$$$

     RDKit          3D

 51 53  0  0  0  0  0  0  0  0999 V2000
   25.0029   11.0341   26.6420 H   0  0  0  0  0  0  0  0  0  0  0  0
   24.4858   11.0898   27.5979 C   0  0  0  0  0  0  0  0  0  0  0  0
   25.0107   11.8438   28.6528 C   0  0  0  0  0  0  0  0  0  0  0  0
   25.9597   12.3520   28.5207 H   0  0  0  0  0  0  0  0  0  0  0  0
   24.3126   11.9538   29.8603 C   0  0  0  0  0  0  0  0  0  0  0  0
   24.7516   12.5238   30.6727 H   0  0  0  0  0  0  0  0  0  0  0  0
   23.0695   11.3165   30.0136 C   0  0  0  0  0  0  0  0  0  0  0  0
   22.2627   11.4317   31.2378 C   0  0  0  0  0  0  0  0  0  0  0  0
   22.2640   12.5034   31.8538 O   0  0  0  0  0  0  0  0  0  0  0  0
   21.3722   10.2880   31.6515 C   0  0  0  0  0  0  0  0  0  0  0  0
   21.6575    9.0574   31.1766 N   0  0  0  0  0  0  0  0  0  0  0  0
   20.9235    8.0206   31.5311 C   0  0  0  0  0  0  0  0  0  0  0  0
   21.4247    6.8927   30.9924 N   0  0  0  0  0  0  0  0  0  0  0  0
   22.3150    7.0021   30.5248 H   0  0  0  0  0  0  0  0  0  0  0  0
   20.8934    5.6450   31.0904 C   0  0  0  0  0  0  0  0  0  0  0  0
   19.8471    5.4638   31.6860 O   0  0  0  0  0  0  0  0  0  0  0  0
   21.5748    4.5213   30.3248 C   0  0  0  0  0  0  0  0  0  0  0  0
   20.9509    3.6308   30.3844 H   0  0  0  0  0  0  0  0  0  0  0  0
   21.6600    4.8113   29.2740 H   0  0  0  0  0  0  0  0  0  0  0  0
   22.9536    4.2490   30.8796 C   0  0  0  0  0  0  0  0  0  0  0  0
   23.1597    3.1475   31.7264 C   0  0  0  0  0  0  0  0  0  0  0  0
   22.3319    2.4886   31.9724 H   0  0  0  0  0  0  0  0  0  0  0  0
   24.4309    2.8663   32.2624 C   0  0  0  0  0  0  0  0  0  0  0  0
   24.6634    1.7933   33.0941 O   0  0  0  0  0  0  0  0  0  0  0  0
   23.6671    0.7615   33.1162 C   0  0  0  0  0  0  0  0  0  0  0  0
   24.0214   -0.0800   33.7203 H   0  0  0  0  0  0  0  0  0  0  0  0
   23.4688    0.3996   32.1036 H   0  0  0  0  0  0  0  0  0  0  0  0
   22.7342    1.1329   33.5486 H   0  0  0  0  0  0  0  0  0  0  0  0
   25.5034    3.7155   31.9412 C   0  0  0  0  0  0  0  0  0  0  0  0
   27.2595    3.3842   32.6331 Br  0  0  0  0  0  0  0  0  0  0  0  0
   25.3003    4.8109   31.0971 C   0  0  0  0  0  0  0  0  0  0  0  0
   26.1418    5.4469   30.8450 H   0  0  0  0  0  0  0  0  0  0  0  0
   24.0348    5.1006   30.5659 C   0  0  0  0  0  0  0  0  0  0  0  0
   23.8273    6.1899   29.7474 O   0  0  0  0  0  0  0  0  0  0  0  0
   24.9272    7.1003   29.5970 C   0  0  0  0  0  0  0  0  0  0  0  0
   25.2594    7.4573   30.5752 H   0  0  0  0  0  0  0  0  0  0  0  0
   25.7695    6.6114   29.0998 H   0  0  0  0  0  0  0  0  0  0  0  0
   24.6184    7.9610   28.9970 H   0  0  0  0  0  0  0  0  0  0  0  0
   19.8470    8.1166   32.3746 C   0  0  0  0  0  0  0  0  0  0  0  0
   19.2757    7.2527   32.6625 H   0  0  0  0  0  0  0  0  0  0  0  0
   19.5389    9.3487   32.8751 C   0  0  0  0  0  0  0  0  0  0  0  0
   18.5067    9.4566   33.7482 N   0  0  0  0  0  0  0  0  0  0  0  0
   17.9178    8.6426   33.8884 H   0  0  0  0  0  0  0  0  0  0  0  0
   18.1364   10.3855   33.9384 H   0  0  0  0  0  0  0  0  0  0  0  0
   20.2728   10.4548   32.5082 C   0  0  0  0  0  0  0  0  0  0  0  0
   19.9075   11.7515   32.9852 C   0  0  0  0  0  0  0  0  0  0  0  0
   19.6179   12.8262   33.3190 N   0  0  0  0  0  0  0  0  0  0  0  0
   22.5632   10.5431   28.9572 C   0  0  0  0  0  0  0  0  0  0  0  0
   21.6021   10.0437   29.0521 H   0  0  0  0  0  0  0  0  0  0  0  0
   23.2648   10.4263   27.7580 C   0  0  0  0  0  0  0  0  0  0  0  0
   22.8328    9.8626   26.9346 H   0  0  0  0  0  0  0  0  0  0  0  0
  1  2  1  0
  2  3  2  0
  3  4  1  0
  3  5  1  0
  5  6  1  0
  5  7  2  0
  7  8  1  0
  8  9  2  0
  8 10  1  0
 10 11  2  0
 11 12  1  0
 12 13  1  0
 13 14  1  0
 13 15  1  0
 15 16  2  0
 15 17  1  0
 17 18  1  0
 17 19  1  0
 17 20  1  0
 20 21  2  0
 21 22  1  0
 21 23  1  0
 23 24  1  0
 24 25  1  0
 25 26  1  0
 25 27  1  0
 25 28  1  0
 23 29  2  0
 29 30  1  0
 29 31  1  0
 31 32  1  0
 31 33  2  0
 33 34  1  0
 34 35  1  0
 35 36  1  0
 35 37  1  0
 35 38  1  0
 12 39  2  0
 39 40  1  0
 39 41  1  0
 41 42  1  0
 42 43  1  0
 42 44  1  0
 41 45  2  0
 45 46  1  0
 46 47  3  0
  7 48  1  0
 48 49  1  0
 48 50  2  0
 50 51  1  0
 50  2  1  0
 45 10  1  0
 33 20  1  0
M  END
>  <score>  (106) 
7.36768

$$$$

     RDKit          3D

 49 50  0  0  0  0  0  0  0  0999 V2000
   26.0722   12.8737   27.1909 H   0  0  0  0  0  0  0  0  0  0  0  0
   25.4871   13.2632   27.8615 O   0  0  0  0  0  0  0  0  0  0  0  0
   24.7909   12.2166   28.3873 C   0  0  0  0  0  0  0  0  0  0  0  0
   24.9602   11.0703   27.9752 O   0  0  0  0  0  0  0  0  0  0  0  0
   23.8125   12.4457   29.5189 C   0  0  0  0  0  0  0  0  0  0  0  0
   23.6793   13.5353   30.0926 O   0  0  0  0  0  0  0  0  0  0  0  0
   22.9444   11.3586   29.9956 C   0  0  0  0  0  0  0  0  0  0  0  0
   22.9090   10.4570   29.3944 H   0  0  0  0  0  0  0  0  0  0  0  0
   22.2110   11.4072   31.1648 C   0  0  0  0  0  0  0  0  0  0  0  0
   22.3714   12.5934   31.8323 O   0  0  0  0  0  0  0  0  0  0  0  0
   22.9974   13.1297   31.3046 H   0  0  0  0  0  0  0  0  0  0  0  0
   21.3332   10.2659   31.6429 C   0  0  0  0  0  0  0  0  0  0  0  0
   21.6241    9.0329   31.1924 N   0  0  0  0  0  0  0  0  0  0  0  0
   20.9034    8.0037   31.5603 C   0  0  0  0  0  0  0  0  0  0  0  0
   21.4473    6.8779   31.0556 N   0  0  0  0  0  0  0  0  0  0  0  0
   22.3124    7.0128   30.5459 H   0  0  0  0  0  0  0  0  0  0  0  0
   20.8904    5.6375   31.1264 C   0  0  0  0  0  0  0  0  0  0  0  0
   19.8317    5.4613   31.7122 O   0  0  0  0  0  0  0  0  0  0  0  0
   21.5562    4.5106   30.3504 C   0  0  0  0  0  0  0  0  0  0  0  0
   21.6179    4.7954   29.2991 H   0  0  0  0  0  0  0  0  0  0  0  0
   20.9403    3.6107   30.4105 H   0  0  0  0  0  0  0  0  0  0  0  0
   22.9495    4.2475   30.8733 C   0  0  0  0  0  0  0  0  0  0  0  0
   23.1564    3.1457   31.7145 C   0  0  0  0  0  0  0  0  0  0  0  0
   22.3269    2.4923   31.9646 H   0  0  0  0  0  0  0  0  0  0  0  0
   24.4225    2.8682   32.2589 C   0  0  0  0  0  0  0  0  0  0  0  0
   24.6617    1.7925   33.0818 O   0  0  0  0  0  0  0  0  0  0  0  0
   23.6529    0.7759   33.1007 C   0  0  0  0  0  0  0  0  0  0  0  0
   23.9962   -0.0656   33.7081 H   0  0  0  0  0  0  0  0  0  0  0  0
   22.7255    1.1627   33.5342 H   0  0  0  0  0  0  0  0  0  0  0  0
   23.4514    0.4128   32.0868 H   0  0  0  0  0  0  0  0  0  0  0  0
   25.4888    3.7267   31.9484 C   0  0  0  0  0  0  0  0  0  0  0  0
   27.2496    3.4249   32.6342 Br  0  0  0  0  0  0  0  0  0  0  0  0
   25.2879    4.8218   31.1040 C   0  0  0  0  0  0  0  0  0  0  0  0
   26.1202    5.4724   30.8542 H   0  0  0  0  0  0  0  0  0  0  0  0
   24.0256    5.1045   30.5617 C   0  0  0  0  0  0  0  0  0  0  0  0
   23.8057    6.2081   29.7659 O   0  0  0  0  0  0  0  0  0  0  0  0
   24.9240    7.0931   29.6041 C   0  0  0  0  0  0  0  0  0  0  0  0
   25.7520    6.5763   29.1067 H   0  0  0  0  0  0  0  0  0  0  0  0
   24.6368    7.9573   28.9980 H   0  0  0  0  0  0  0  0  0  0  0  0
   25.2671    7.4497   30.5813 H   0  0  0  0  0  0  0  0  0  0  0  0
   19.8240    8.0961   32.3973 C   0  0  0  0  0  0  0  0  0  0  0  0
   19.2683    7.2201   32.6863 H   0  0  0  0  0  0  0  0  0  0  0  0
   19.5296    9.3329   32.9066 C   0  0  0  0  0  0  0  0  0  0  0  0
   18.5134    9.4204   33.8107 N   0  0  0  0  0  0  0  0  0  0  0  0
   18.0970   10.3410   33.9439 H   0  0  0  0  0  0  0  0  0  0  0  0
   17.9001    8.6106   33.8719 H   0  0  0  0  0  0  0  0  0  0  0  0
   20.2576   10.4434   32.5205 C   0  0  0  0  0  0  0  0  0  0  0  0
   19.9051   11.7369   33.0072 C   0  0  0  0  0  0  0  0  0  0  0  0
   19.6190   12.7950   33.3961 N   0  0  0  0  0  0  0  0  0  0  0  0
  1  2  1  0
  2  3  1  0
  3  4  2  0
  3  5  1  0
  5  6  2  0
  5  7  1  0
  7  8  1  0
  7  9  2  3
  9 10  1  0
 10 11  1  0
  9 12  1  0
 12 13  2  0
 13 14  1  0
 14 15  1  0
 15 16  1  0
 15 17  1  0
 17 18  2  0
 17 19  1  0
 19 20  1  0
 19 21  1  0
 19 22  1  0
 22 23  2  0
 23 24  1  0
 23 25  1  0
 25 26  1  0
 26 27  1  0
 27 28  1  0
 27 29  1  0
 27 30  1  0
 25 31  2  0
 31 32  1  0
 31 33  1  0
 33 34  1  0
 33 35  2  0
 35 36  1  0
 36 37  1  0
 37 38  1  0
 37 39  1  0
 37 40  1  0
 14 41  2  0
 41 42  1  0
 41 43  1  0
 43 44  1  0
 44 45  1  0
 44 46  1  0
 43 47  2  0
 47 48  1  0
 48 49  3  0
 47 12  1  0
 35 22  1  0
M  END
>  <score>  (107) 
7.37362

$$$$

     RDKit          3D

 45 46  0  0  0  0  0  0  0  0999 V2000
   26.1807    5.4191   30.8444 H   0  0  0  0  0  0  0  0  0  0  0  0
   25.3387    4.7840   31.1024 C   0  0  0  0  0  0  0  0  0  0  0  0
   25.5219    3.6778   31.9457 C   0  0  0  0  0  0  0  0  0  0  0  0
   27.2729    3.3143   32.6358 Br  0  0  0  0  0  0  0  0  0  0  0  0
   24.4393    2.8451   32.2727 C   0  0  0  0  0  0  0  0  0  0  0  0
   24.6668    1.7839   33.1206 O   0  0  0  0  0  0  0  0  0  0  0  0
   23.6883    0.7372   33.1386 C   0  0  0  0  0  0  0  0  0  0  0  0
   23.4940    0.3661   32.1279 H   0  0  0  0  0  0  0  0  0  0  0  0
   24.0616   -0.0953   33.7398 H   0  0  0  0  0  0  0  0  0  0  0  0
   22.7486    1.0809   33.5797 H   0  0  0  0  0  0  0  0  0  0  0  0
   23.1774    3.1421   31.7312 C   0  0  0  0  0  0  0  0  0  0  0  0
   22.3454    2.4923   31.9822 H   0  0  0  0  0  0  0  0  0  0  0  0
   22.9892    4.2479   30.8857 C   0  0  0  0  0  0  0  0  0  0  0  0
   21.6089    4.5364   30.3379 C   0  0  0  0  0  0  0  0  0  0  0  0
   21.0050    3.6243   30.3249 H   0  0  0  0  0  0  0  0  0  0  0  0
   21.7051    4.8859   29.3089 H   0  0  0  0  0  0  0  0  0  0  0  0
   20.8988    5.6249   31.1368 C   0  0  0  0  0  0  0  0  0  0  0  0
   19.7077    5.5359   31.3829 O   0  0  0  0  0  0  0  0  0  0  0  0
   21.5644    6.7852   31.3870 N   0  0  0  0  0  0  0  0  0  0  0  0
   22.4483    6.9129   30.9125 H   0  0  0  0  0  0  0  0  0  0  0  0
   20.9859    7.9471   31.7531 C   0  0  0  0  0  0  0  0  0  0  0  0
   21.7430    8.9506   31.3628 N   0  0  0  0  0  0  0  0  0  0  0  0
   21.4443   10.2302   31.6763 C   0  0  0  0  0  0  0  0  0  0  0  0
   22.3722   11.3369   31.1916 C   0  0  0  0  0  0  0  0  0  0  0  0
   22.2620   12.4667   31.6798 O   0  0  0  0  0  0  0  0  0  0  0  0
   23.2945   10.9945   30.2303 O   0  0  0  0  0  0  0  0  0  0  0  0
   24.1959   12.0101   29.7797 C   0  0  0  0  0  0  0  0  0  0  0  0
   24.8209   12.3692   30.6011 H   0  0  0  0  0  0  0  0  0  0  0  0
   24.8491   11.5905   29.0095 H   0  0  0  0  0  0  0  0  0  0  0  0
   23.6546   12.8544   29.3459 H   0  0  0  0  0  0  0  0  0  0  0  0
   20.3044   10.4691   32.4637 C   0  0  0  0  0  0  0  0  0  0  0  0
   19.9506   11.7842   32.8880 C   0  0  0  0  0  0  0  0  0  0  0  0
   19.6750   12.8661   33.2203 N   0  0  0  0  0  0  0  0  0  0  0  0
   19.5318    9.3829   32.8450 C   0  0  0  0  0  0  0  0  0  0  0  0
   18.4518    9.5012   33.6479 N   0  0  0  0  0  0  0  0  0  0  0  0
   17.9212    8.6690   33.8968 H   0  0  0  0  0  0  0  0  0  0  0  0
   18.1489   10.4219   33.9443 H   0  0  0  0  0  0  0  0  0  0  0  0
   19.8388    8.1108   32.4717 C   0  0  0  0  0  0  0  0  0  0  0  0
   19.2248    7.2761   32.7751 H   0  0  0  0  0  0  0  0  0  0  0  0
   24.0767    5.0892   30.5693 C   0  0  0  0  0  0  0  0  0  0  0  0
   23.8532    6.1797   29.7545 O   0  0  0  0  0  0  0  0  0  0  0  0
   24.9296    7.1141   29.5900 C   0  0  0  0  0  0  0  0  0  0  0  0
   24.5888    7.9612   28.9897 H   0  0  0  0  0  0  0  0  0  0  0  0
   25.7785    6.6541   29.0755 H   0  0  0  0  0  0  0  0  0  0  0  0
   25.2651    7.4979   30.5581 H   0  0  0  0  0  0  0  0  0  0  0  0
  1  2  1  0
  2  3  2  0
  3  4  1  0
  3  5  1  0
  5  6  1  0
  6  7  1  0
  7  8  1  0
  7  9  1  0
  7 10  1  0
  5 11  2  0
 11 12  1  0
 11 13  1  0
 13 14  1  0
 14 15  1  0
 14 16  1  0
 14 17  1  0
 17 18  2  0
 17 19  1  0
 19 20  1  0
 19 21  1  0
 21 22  2  0
 22 23  1  0
 23 24  1  0
 24 25  2  0
 24 26  1  0
 26 27  1  0
 27 28  1  0
 27 29  1  0
 27 30  1  0
 23 31  2  0
 31 32  1  0
 32 33  3  0
 31 34  1  0
 34 35  1  0
 35 36  1  0
 35 37  1  0
 34 38  2  0
 38 39  1  0
 13 40  2  0
 40 41  1  0
 41 42  1  0
 42 43  1  0
 42 44  1  0
 42 45  1  0
 40  2  1  0
 38 21  1  0
M  END
>  <score>  (108) 
7.37637

$$$$

     RDKit          3D

 56 58  0  0  0  0  0  0  0  0999 V2000
   29.0339   11.7001   28.2576 H   0  0  0  0  0  0  0  0  0  0  0  0
   28.0689   11.5462   28.7333 C   0  0  0  0  0  0  0  0  0  0  0  0
   27.3916   12.6162   29.3323 C   0  0  0  0  0  0  0  0  0  0  0  0
   27.8410   13.6054   29.3426 H   0  0  0  0  0  0  0  0  0  0  0  0
   26.1431   12.4057   29.9436 C   0  0  0  0  0  0  0  0  0  0  0  0
   25.6284   13.2329   30.4246 H   0  0  0  0  0  0  0  0  0  0  0  0
   25.5716   11.1204   29.9866 C   0  0  0  0  0  0  0  0  0  0  0  0
   24.3261   10.8442   30.8038 C   0  0  0  0  0  0  0  0  0  0  0  0
   24.4442   11.3686   31.7559 H   0  0  0  0  0  0  0  0  0  0  0  0
   24.2443    9.7720   31.0210 H   0  0  0  0  0  0  0  0  0  0  0  0
   23.0223   11.3148   30.1489 C   0  0  0  0  0  0  0  0  0  0  0  0
   23.1724   12.2803   29.6525 H   0  0  0  0  0  0  0  0  0  0  0  0
   22.6910   10.5982   29.3859 H   0  0  0  0  0  0  0  0  0  0  0  0
   22.0167   11.4969   31.1648 O   0  0  0  0  0  0  0  0  0  0  0  0
   21.3910   10.3858   31.6710 C   0  0  0  0  0  0  0  0  0  0  0  0
   21.7952    9.1837   31.2738 N   0  0  0  0  0  0  0  0  0  0  0  0
   21.1145    8.1434   31.6849 C   0  0  0  0  0  0  0  0  0  0  0  0
   21.6133    6.9966   31.2047 N   0  0  0  0  0  0  0  0  0  0  0  0
   22.4443    7.0981   30.6421 H   0  0  0  0  0  0  0  0  0  0  0  0
   20.9233    5.8149   31.1786 C   0  0  0  0  0  0  0  0  0  0  0  0
   19.8064    5.7367   31.6626 O   0  0  0  0  0  0  0  0  0  0  0  0
   21.5023    4.6045   30.4626 C   0  0  0  0  0  0  0  0  0  0  0  0
   21.5293    4.7993   29.3873 H   0  0  0  0  0  0  0  0  0  0  0  0
   20.8508    3.7435   30.6354 H   0  0  0  0  0  0  0  0  0  0  0  0
   22.8948    4.3084   30.9615 C   0  0  0  0  0  0  0  0  0  0  0  0
   23.1136    3.1860   31.7710 C   0  0  0  0  0  0  0  0  0  0  0  0
   22.2890    2.5252   32.0193 H   0  0  0  0  0  0  0  0  0  0  0  0
   24.3925    2.8843   32.2721 C   0  0  0  0  0  0  0  0  0  0  0  0
   24.6353    1.7795   33.0549 O   0  0  0  0  0  0  0  0  0  0  0  0
   23.5989    0.7881   33.0807 C   0  0  0  0  0  0  0  0  0  0  0  0
   23.9133   -0.0632   33.6913 H   0  0  0  0  0  0  0  0  0  0  0  0
   22.6811    1.2031   33.5082 H   0  0  0  0  0  0  0  0  0  0  0  0
   23.3865    0.4281   32.0684 H   0  0  0  0  0  0  0  0  0  0  0  0
   25.4585    3.7439   31.9632 C   0  0  0  0  0  0  0  0  0  0  0  0
   27.2214    3.4200   32.6391 Br  0  0  0  0  0  0  0  0  0  0  0  0
   25.2423    4.8585   31.1474 C   0  0  0  0  0  0  0  0  0  0  0  0
   26.0710    5.5121   30.8975 H   0  0  0  0  0  0  0  0  0  0  0  0
   23.9694    5.1564   30.6380 C   0  0  0  0  0  0  0  0  0  0  0  0
   23.7350    6.2557   29.8424 O   0  0  0  0  0  0  0  0  0  0  0  0
   24.8657    7.0918   29.5706 C   0  0  0  0  0  0  0  0  0  0  0  0
   24.5715    7.8965   28.8912 H   0  0  0  0  0  0  0  0  0  0  0  0
   25.2449    7.5341   30.4981 H   0  0  0  0  0  0  0  0  0  0  0  0
   25.6692    6.5151   29.1006 H   0  0  0  0  0  0  0  0  0  0  0  0
   20.0252    8.2194   32.4949 C   0  0  0  0  0  0  0  0  0  0  0  0
   19.4714    7.3496   32.7942 H   0  0  0  0  0  0  0  0  0  0  0  0
   19.6595    9.4335   32.9390 C   0  0  0  0  0  0  0  0  0  0  0  0
   18.5836    9.4607   33.7485 N   0  0  0  0  0  0  0  0  0  0  0  0
   18.1406   10.3705   33.8349 H   0  0  0  0  0  0  0  0  0  0  0  0
   17.9703    8.6544   33.6657 H   0  0  0  0  0  0  0  0  0  0  0  0
   20.3278   10.5542   32.5392 C   0  0  0  0  0  0  0  0  0  0  0  0
   19.9571   11.8554   32.9854 C   0  0  0  0  0  0  0  0  0  0  0  0
   19.6987   12.9222   33.3647 N   0  0  0  0  0  0  0  0  0  0  0  0
   26.2696   10.0634   29.3893 C   0  0  0  0  0  0  0  0  0  0  0  0
   25.8777    9.0575   29.4288 H   0  0  0  0  0  0  0  0  0  0  0  0
   27.4962   10.2736   28.7566 C   0  0  0  0  0  0  0  0  0  0  0  0
   28.0206    9.4333   28.3155 H   0  0  0  0  0  0  0  0  0  0  0  0
  1  2  1  0
  2  3  2  0
  3  4  1  0
  3  5  1  0
  5  6  1  0
  5  7  2  0
  7  8  1  0
  8  9  1  0
  8 10  1  0
  8 11  1  0
 11 12  1  0
 11 13  1  0
 11 14  1  0
 14 15  1  0
 15 16  2  0
 16 17  1  0
 17 18  1  0
 18 19  1  0
 18 20  1  0
 20 21  2  0
 20 22  1  0
 22 23  1  0
 22 24  1  0
 22 25  1  0
 25 26  2  0
 26 27  1  0
 26 28  1  0
 28 29  1  0
 29 30  1  0
 30 31  1  0
 30 32  1  0
 30 33  1  0
 28 34  2  0
 34 35  1  0
 34 36  1  0
 36 37  1  0
 36 38  2  0
 38 39  1  0
 39 40  1  0
 40 41  1  0
 40 42  1  0
 40 43  1  0
 17 44  2  0
 44 45  1  0
 44 46  1  0
 46 47  1  0
 47 48  1  0
 47 49  1  0
 46 50  2  0
 50 51  1  0
 51 52  3  0
  7 53  1  0
 53 54  1  0
 53 55  2  0
 55 56  1  0
 55  2  1  0
 50 15  1  0
 38 25  1  0
M  END
>  <score>  (109) 
7.37684

$$$$

     RDKit          3D

 46 47  0  0  0  0  0  0  0  0999 V2000
   26.1834    5.4178   30.8458 H   0  0  0  0  0  0  0  0  0  0  0  0
   25.3401    4.7853   31.1023 C   0  0  0  0  0  0  0  0  0  0  0  0
   25.5236    3.6801   31.9447 C   0  0  0  0  0  0  0  0  0  0  0  0
   27.2725    3.3184   32.6357 Br  0  0  0  0  0  0  0  0  0  0  0  0
   24.4408    2.8474   32.2719 C   0  0  0  0  0  0  0  0  0  0  0  0
   24.6667    1.7843   33.1175 O   0  0  0  0  0  0  0  0  0  0  0  0
   23.6861    0.7380   33.1368 C   0  0  0  0  0  0  0  0  0  0  0  0
   24.0594   -0.0951   33.7394 H   0  0  0  0  0  0  0  0  0  0  0  0
   23.4925    0.3680   32.1249 H   0  0  0  0  0  0  0  0  0  0  0  0
   22.7475    1.0859   33.5784 H   0  0  0  0  0  0  0  0  0  0  0  0
   23.1781    3.1441   31.7319 C   0  0  0  0  0  0  0  0  0  0  0  0
   22.3430    2.4975   31.9815 H   0  0  0  0  0  0  0  0  0  0  0  0
   22.9911    4.2507   30.8867 C   0  0  0  0  0  0  0  0  0  0  0  0
   21.6129    4.5518   30.3395 C   0  0  0  0  0  0  0  0  0  0  0  0
   21.7051    4.8883   29.3049 H   0  0  0  0  0  0  0  0  0  0  0  0
   20.9879    3.6541   30.3529 H   0  0  0  0  0  0  0  0  0  0  0  0
   20.9369    5.6668   31.1207 C   0  0  0  0  0  0  0  0  0  0  0  0
   19.7476    5.5914   31.3867 O   0  0  0  0  0  0  0  0  0  0  0  0
   21.6250    6.8199   31.3454 N   0  0  0  0  0  0  0  0  0  0  0  0
   22.5018    6.9529   30.8676 H   0  0  0  0  0  0  0  0  0  0  0  0
   21.0555    7.9643   31.7253 C   0  0  0  0  0  0  0  0  0  0  0  0
   21.8059    8.9806   31.3768 N   0  0  0  0  0  0  0  0  0  0  0  0
   21.4089   10.1962   31.7506 C   0  0  0  0  0  0  0  0  0  0  0  0
   22.1313   11.3087   31.4235 O   0  0  0  0  0  0  0  0  0  0  0  0
   23.2740   11.1665   30.5803 C   0  0  0  0  0  0  0  0  0  0  0  0
   23.0592   10.4856   29.7504 H   0  0  0  0  0  0  0  0  0  0  0  0
   23.5151   12.1534   30.1660 H   0  0  0  0  0  0  0  0  0  0  0  0
   24.4764   10.6623   31.3653 C   0  0  0  0  0  0  0  0  0  0  0  0
   24.7418   11.3669   32.1545 H   0  0  0  0  0  0  0  0  0  0  0  0
   25.3336   10.5699   30.6955 H   0  0  0  0  0  0  0  0  0  0  0  0
   24.2722    9.6873   31.8138 H   0  0  0  0  0  0  0  0  0  0  0  0
   20.2754   10.4062   32.4905 C   0  0  0  0  0  0  0  0  0  0  0  0
   19.9218   11.7249   32.9033 C   0  0  0  0  0  0  0  0  0  0  0  0
   19.6627   12.8142   33.2169 N   0  0  0  0  0  0  0  0  0  0  0  0
   19.5238    9.3111   32.7974 C   0  0  0  0  0  0  0  0  0  0  0  0
   18.4064    9.3864   33.5350 N   0  0  0  0  0  0  0  0  0  0  0  0
   17.6662    8.8013   33.1619 H   0  0  0  0  0  0  0  0  0  0  0  0
   18.5947    9.1905   34.5134 H   0  0  0  0  0  0  0  0  0  0  0  0
   19.8846    8.0650   32.4124 C   0  0  0  0  0  0  0  0  0  0  0  0
   19.2864    7.2080   32.6858 H   0  0  0  0  0  0  0  0  0  0  0  0
   24.0786    5.0911   30.5718 C   0  0  0  0  0  0  0  0  0  0  0  0
   23.8549    6.1822   29.7583 O   0  0  0  0  0  0  0  0  0  0  0  0
   24.9324    7.1153   29.5916 C   0  0  0  0  0  0  0  0  0  0  0  0
   24.5892    7.9656   28.9957 H   0  0  0  0  0  0  0  0  0  0  0  0
   25.7768    6.6523   29.0710 H   0  0  0  0  0  0  0  0  0  0  0  0
   25.2718    7.4924   30.5614 H   0  0  0  0  0  0  0  0  0  0  0  0
  1  2  1  0
  2  3  2  0
  3  4  1  0
  3  5  1  0
  5  6  1  0
  6  7  1  0
  7  8  1  0
  7  9  1  0
  7 10  1  0
  5 11  2  0
 11 12  1  0
 11 13  1  0
 13 14  1  0
 14 15  1  0
 14 16  1  0
 14 17  1  0
 17 18  2  0
 17 19  1  0
 19 20  1  0
 19 21  1  0
 21 22  2  0
 22 23  1  0
 23 24  1  0
 24 25  1  0
 25 26  1  0
 25 27  1  0
 25 28  1  0
 28 29  1  0
 28 30  1  0
 28 31  1  0
 23 32  2  0
 32 33  1  0
 33 34  3  0
 32 35  1  0
 35 36  1  0
 36 37  1  0
 36 38  1  0
 35 39  2  0
 39 40  1  0
 13 41  2  0
 41 42  1  0
 42 43  1  0
 43 44  1  0
 43 45  1  0
 43 46  1  0
 41  2  1  0
 39 21  1  0
M  END
>  <score>  (110) 
7.37705

$$$$

     RDKit          3D

 46 47  0  0  0  0  0  0  0  0999 V2000
   26.1605    5.4457   30.8573 H   0  0  0  0  0  0  0  0  0  0  0  0
   25.3197    4.8063   31.1059 C   0  0  0  0  0  0  0  0  0  0  0  0
   25.5178    3.7074   31.9481 C   0  0  0  0  0  0  0  0  0  0  0  0
   27.2778    3.3870   32.6403 Br  0  0  0  0  0  0  0  0  0  0  0  0
   24.4432    2.8580   32.2637 C   0  0  0  0  0  0  0  0  0  0  0  0
   24.6741    1.7818   33.0924 O   0  0  0  0  0  0  0  0  0  0  0  0
   23.6674    0.7617   33.1137 C   0  0  0  0  0  0  0  0  0  0  0  0
   22.7375    1.1432   33.5444 H   0  0  0  0  0  0  0  0  0  0  0  0
   24.0105   -0.0837   33.7180 H   0  0  0  0  0  0  0  0  0  0  0  0
   23.4648    0.4015   32.1010 H   0  0  0  0  0  0  0  0  0  0  0  0
   23.1720    3.1509   31.7327 C   0  0  0  0  0  0  0  0  0  0  0  0
   22.3407    2.4995   31.9834 H   0  0  0  0  0  0  0  0  0  0  0  0
   22.9686    4.2648   30.8993 C   0  0  0  0  0  0  0  0  0  0  0  0
   21.5824    4.5816   30.3763 C   0  0  0  0  0  0  0  0  0  0  0  0
   21.6522    4.8739   29.3244 H   0  0  0  0  0  0  0  0  0  0  0  0
   20.9363    3.7046   30.4561 H   0  0  0  0  0  0  0  0  0  0  0  0
   20.9402    5.7351   31.1289 C   0  0  0  0  0  0  0  0  0  0  0  0
   19.7589    5.6882   31.4348 O   0  0  0  0  0  0  0  0  0  0  0  0
   21.6480    6.8888   31.2770 N   0  0  0  0  0  0  0  0  0  0  0  0
   22.5206    6.9856   30.7784 H   0  0  0  0  0  0  0  0  0  0  0  0
   21.1019    8.0376   31.7071 C   0  0  0  0  0  0  0  0  0  0  0  0
   21.8140    9.0676   31.3313 N   0  0  0  0  0  0  0  0  0  0  0  0
   21.3832   10.2709   31.7032 C   0  0  0  0  0  0  0  0  0  0  0  0
   22.0638   11.3896   31.3004 O   0  0  0  0  0  0  0  0  0  0  0  0
   23.1984   11.2282   30.4324 C   0  0  0  0  0  0  0  0  0  0  0  0
   22.9788   10.5012   29.6407 H   0  0  0  0  0  0  0  0  0  0  0  0
   23.3840   12.1883   29.9460 H   0  0  0  0  0  0  0  0  0  0  0  0
   24.4470   10.8249   31.2182 C   0  0  0  0  0  0  0  0  0  0  0  0
   25.3178   10.7847   30.5633 H   0  0  0  0  0  0  0  0  0  0  0  0
   24.6524   11.5786   31.9849 H   0  0  0  0  0  0  0  0  0  0  0  0
   24.2551    9.6000   31.7691 F   0  0  0  0  0  0  0  0  0  0  0  0
   20.2562   10.4550   32.4732 C   0  0  0  0  0  0  0  0  0  0  0  0
   19.8795   11.7575   32.8985 C   0  0  0  0  0  0  0  0  0  0  0  0
   19.6586   12.8448   33.2502 N   0  0  0  0  0  0  0  0  0  0  0  0
   19.5527    9.3540   32.8383 C   0  0  0  0  0  0  0  0  0  0  0  0
   18.4582    9.4714   33.6163 N   0  0  0  0  0  0  0  0  0  0  0  0
   18.1354   10.3930   33.9046 H   0  0  0  0  0  0  0  0  0  0  0  0
   17.9400    8.6387   33.8675 H   0  0  0  0  0  0  0  0  0  0  0  0
   19.9522    8.1184   32.4458 C   0  0  0  0  0  0  0  0  0  0  0  0
   19.3900    7.2414   32.7215 H   0  0  0  0  0  0  0  0  0  0  0  0
   24.0537    5.1034   30.5802 C   0  0  0  0  0  0  0  0  0  0  0  0
   23.8326    6.2011   29.7774 O   0  0  0  0  0  0  0  0  0  0  0  0
   24.9340    7.1009   29.6105 C   0  0  0  0  0  0  0  0  0  0  0  0
   25.2817    7.4590   30.5835 H   0  0  0  0  0  0  0  0  0  0  0  0
   24.6226    7.9613   29.0109 H   0  0  0  0  0  0  0  0  0  0  0  0
   25.7645    6.6013   29.1039 H   0  0  0  0  0  0  0  0  0  0  0  0
  1  2  1  0
  2  3  2  0
  3  4  1  0
  3  5  1  0
  5  6  1  0
  6  7  1  0
  7  8  1  0
  7  9  1  0
  7 10  1  0
  5 11  2  0
 11 12  1  0
 11 13  1  0
 13 14  1  0
 14 15  1  0
 14 16  1  0
 14 17  1  0
 17 18  2  0
 17 19  1  0
 19 20  1  0
 19 21  1  0
 21 22  2  0
 22 23  1  0
 23 24  1  0
 24 25  1  0
 25 26  1  0
 25 27  1  0
 25 28  1  0
 28 29  1  0
 28 30  1  0
 28 31  1  0
 23 32  2  0
 32 33  1  0
 33 34  3  0
 32 35  1  0
 35 36  1  0
 36 37  1  0
 36 38  1  0
 35 39  2  0
 39 40  1  0
 13 41  2  0
 41 42  1  0
 42 43  1  0
 43 44  1  0
 43 45  1  0
 43 46  1  0
 41  2  1  0
 39 21  1  0
M  END
>  <score>  (111) 
7.37819

$$$$

     RDKit          3D

 55 57  0  0  0  0  0  0  0  0999 V2000
   21.9257   17.8095   28.1764 H   0  0  0  0  0  0  0  0  0  0  0  0
   22.1246   16.8069   28.5419 C   0  0  0  0  0  0  0  0  0  0  0  0
   23.1941   16.0647   28.0146 C   0  0  0  0  0  0  0  0  0  0  0  0
   23.8364   16.4962   27.2573 H   0  0  0  0  0  0  0  0  0  0  0  0
   23.4584   14.7721   28.4806 C   0  0  0  0  0  0  0  0  0  0  0  0
   24.3034   14.1871   28.1231 H   0  0  0  0  0  0  0  0  0  0  0  0
   22.6114   14.2120   29.4296 C   0  0  0  0  0  0  0  0  0  0  0  0
   22.8190   12.9277   29.8920 N   0  0  0  0  0  0  0  0  0  0  0  0
   23.7639   12.6283   30.1019 H   0  0  0  0  0  0  0  0  0  0  0  0
   21.8338   12.2365   30.5317 C   0  0  0  0  0  0  0  0  0  0  0  0
   20.6414   12.4341   30.3569 O   0  0  0  0  0  0  0  0  0  0  0  0
   22.3188   11.2565   31.3129 N   0  0  0  0  0  0  0  0  0  0  0  0
   23.1219   10.8129   30.9027 H   0  0  0  0  0  0  0  0  0  0  0  0
   21.4264   10.3347   31.6675 C   0  0  0  0  0  0  0  0  0  0  0  0
   21.8080    9.1826   31.1791 N   0  0  0  0  0  0  0  0  0  0  0  0
   21.0623    8.1592   31.5013 C   0  0  0  0  0  0  0  0  0  0  0  0
   21.5584    7.0344   30.9654 N   0  0  0  0  0  0  0  0  0  0  0  0
   22.4324    7.1404   30.4729 H   0  0  0  0  0  0  0  0  0  0  0  0
   20.9757    5.8091   31.0915 C   0  0  0  0  0  0  0  0  0  0  0  0
   19.9227    5.6948   31.6919 O   0  0  0  0  0  0  0  0  0  0  0  0
   21.5660    4.6083   30.3804 C   0  0  0  0  0  0  0  0  0  0  0  0
   21.6050    4.8252   29.3107 H   0  0  0  0  0  0  0  0  0  0  0  0
   20.9022    3.7566   30.5338 H   0  0  0  0  0  0  0  0  0  0  0  0
   22.9483    4.2974   30.8976 C   0  0  0  0  0  0  0  0  0  0  0  0
   23.1488    3.1783   31.7202 C   0  0  0  0  0  0  0  0  0  0  0  0
   22.3146    2.5280   31.9665 H   0  0  0  0  0  0  0  0  0  0  0  0
   24.4193    2.8813   32.2463 C   0  0  0  0  0  0  0  0  0  0  0  0
   24.6499    1.7997   33.0647 O   0  0  0  0  0  0  0  0  0  0  0  0
   23.6353    0.7861   33.0899 C   0  0  0  0  0  0  0  0  0  0  0  0
   23.4304    0.4219   32.0779 H   0  0  0  0  0  0  0  0  0  0  0  0
   23.9729   -0.0586   33.6990 H   0  0  0  0  0  0  0  0  0  0  0  0
   22.7081    1.1768   33.5201 H   0  0  0  0  0  0  0  0  0  0  0  0
   25.4932    3.7321   31.9382 C   0  0  0  0  0  0  0  0  0  0  0  0
   27.2459    3.4164   32.6463 Br  0  0  0  0  0  0  0  0  0  0  0  0
   25.2947    4.8343   31.1039 C   0  0  0  0  0  0  0  0  0  0  0  0
   26.1330    5.4772   30.8621 H   0  0  0  0  0  0  0  0  0  0  0  0
   24.0309    5.1365   30.5790 C   0  0  0  0  0  0  0  0  0  0  0  0
   23.8163    6.2388   29.7812 O   0  0  0  0  0  0  0  0  0  0  0  0
   24.9424    7.1086   29.6035 C   0  0  0  0  0  0  0  0  0  0  0  0
   24.6589    7.9689   28.9909 H   0  0  0  0  0  0  0  0  0  0  0  0
   25.7611    6.5788   29.1051 H   0  0  0  0  0  0  0  0  0  0  0  0
   25.2970    7.4720   30.5739 H   0  0  0  0  0  0  0  0  0  0  0  0
   19.9576    8.2344   32.3052 C   0  0  0  0  0  0  0  0  0  0  0  0
   19.3808    7.3723   32.5814 H   0  0  0  0  0  0  0  0  0  0  0  0
   19.6082    9.4561   32.7750 C   0  0  0  0  0  0  0  0  0  0  0  0
   18.5736    9.5071   33.6282 N   0  0  0  0  0  0  0  0  0  0  0  0
   18.1502   10.4160   33.7907 H   0  0  0  0  0  0  0  0  0  0  0  0
   18.0273    8.6560   33.7299 H   0  0  0  0  0  0  0  0  0  0  0  0
   20.3179   10.5675   32.4400 C   0  0  0  0  0  0  0  0  0  0  0  0
   19.9704   11.8676   32.9129 C   0  0  0  0  0  0  0  0  0  0  0  0
   19.6794   12.9327   33.2804 N   0  0  0  0  0  0  0  0  0  0  0  0
   21.5356   14.9436   29.9351 C   0  0  0  0  0  0  0  0  0  0  0  0
   20.8960   14.5010   30.6891 H   0  0  0  0  0  0  0  0  0  0  0  0
   21.3007   16.2446   29.5222 C   0  0  0  0  0  0  0  0  0  0  0  0
   20.4680   16.7773   29.9672 H   0  0  0  0  0  0  0  0  0  0  0  0
  1  2  1  0
  2  3  2  0
  3  4  1  0
  3  5  1  0
  5  6  1  0
  5  7  2  0
  7  8  1  0
  8  9  1  0
  8 10  1  0
 10 11  2  0
 10 12  1  0
 12 13  1  0
 12 14  1  0
 14 15  2  0
 15 16  1  0
 16 17  1  0
 17 18  1  0
 17 19  1  0
 19 20  2  0
 19 21  1  0
 21 22  1  0
 21 23  1  0
 21 24  1  0
 24 25  2  0
 25 26  1  0
 25 27  1  0
 27 28  1  0
 28 29  1  0
 29 30  1  0
 29 31  1  0
 29 32  1  0
 27 33  2  0
 33 34  1  0
 33 35  1  0
 35 36  1  0
 35 37  2  0
 37 38  1  0
 38 39  1  0
 39 40  1  0
 39 41  1  0
 39 42  1  0
 16 43  2  0
 43 44  1  0
 43 45  1  0
 45 46  1  0
 46 47  1  0
 46 48  1  0
 45 49  2  0
 49 50  1  0
 50 51  3  0
  7 52  1  0
 52 53  1  0
 52 54  2  0
 54 55  1  0
 54  2  1  0
 49 14  1  0
 37 24  1  0
M  END
>  <score>  (112) 
7.37913

$$$$

     RDKit          3D

 47 48  0  0  0  0  0  0  0  0999 V2000
   26.1811    5.4188   30.8431 H   0  0  0  0  0  0  0  0  0  0  0  0
   25.3402    4.7846   31.1021 C   0  0  0  0  0  0  0  0  0  0  0  0
   25.5222    3.6778   31.9451 C   0  0  0  0  0  0  0  0  0  0  0  0
   27.2714    3.3165   32.6357 Br  0  0  0  0  0  0  0  0  0  0  0  0
   24.4387    2.8469   32.2717 C   0  0  0  0  0  0  0  0  0  0  0  0
   24.6664    1.7845   33.1181 O   0  0  0  0  0  0  0  0  0  0  0  0
   23.6861    0.7377   33.1371 C   0  0  0  0  0  0  0  0  0  0  0  0
   24.0601   -0.0947   33.7396 H   0  0  0  0  0  0  0  0  0  0  0  0
   23.4936    0.3674   32.1251 H   0  0  0  0  0  0  0  0  0  0  0  0
   22.7478    1.0846   33.5798 H   0  0  0  0  0  0  0  0  0  0  0  0
   23.1768    3.1461   31.7327 C   0  0  0  0  0  0  0  0  0  0  0  0
   22.3452    2.4963   31.9824 H   0  0  0  0  0  0  0  0  0  0  0  0
   22.9911    4.2566   30.8907 C   0  0  0  0  0  0  0  0  0  0  0  0
   21.6109    4.5641   30.3483 C   0  0  0  0  0  0  0  0  0  0  0  0
   20.9857    3.6656   30.3560 H   0  0  0  0  0  0  0  0  0  0  0  0
   21.7057    4.8961   29.3112 H   0  0  0  0  0  0  0  0  0  0  0  0
   20.9324    5.6838   31.1318 C   0  0  0  0  0  0  0  0  0  0  0  0
   19.7411    5.6168   31.3893 O   0  0  0  0  0  0  0  0  0  0  0  0
   21.6082    6.8425   31.3673 N   0  0  0  0  0  0  0  0  0  0  0  0
   22.4883    6.9702   30.8897 H   0  0  0  0  0  0  0  0  0  0  0  0
   21.0357    7.9969   31.7357 C   0  0  0  0  0  0  0  0  0  0  0  0
   21.7959    8.9960   31.3659 N   0  0  0  0  0  0  0  0  0  0  0  0
   21.3987   10.2167   31.6935 C   0  0  0  0  0  0  0  0  0  0  0  0
   22.2161   11.2585   31.2836 N   0  0  0  0  0  0  0  0  0  0  0  0
   21.7282   12.1827   30.2526 C   0  0  0  0  0  0  0  0  0  0  0  0
   20.6409   12.2611   30.2579 H   0  0  0  0  0  0  0  0  0  0  0  0
   22.0433   11.8325   29.2657 H   0  0  0  0  0  0  0  0  0  0  0  0
   22.1408   13.1830   30.4211 H   0  0  0  0  0  0  0  0  0  0  0  0
   23.6766   11.1179   31.3607 C   0  0  0  0  0  0  0  0  0  0  0  0
   23.9735   10.4310   32.1524 H   0  0  0  0  0  0  0  0  0  0  0  0
   24.1351   12.0896   31.5730 H   0  0  0  0  0  0  0  0  0  0  0  0
   24.0722   10.7442   30.4129 H   0  0  0  0  0  0  0  0  0  0  0  0
   20.2688   10.4780   32.4328 C   0  0  0  0  0  0  0  0  0  0  0  0
   19.9580   11.8094   32.8437 C   0  0  0  0  0  0  0  0  0  0  0  0
   19.7145   12.8929   33.1886 N   0  0  0  0  0  0  0  0  0  0  0  0
   19.5276    9.3889   32.8134 C   0  0  0  0  0  0  0  0  0  0  0  0
   18.4666    9.5008   33.6329 N   0  0  0  0  0  0  0  0  0  0  0  0
   18.1622   10.4208   33.9281 H   0  0  0  0  0  0  0  0  0  0  0  0
   17.9386    8.6692   33.8858 H   0  0  0  0  0  0  0  0  0  0  0  0
   19.8702    8.1295   32.4371 C   0  0  0  0  0  0  0  0  0  0  0  0
   19.2725    7.2822   32.7339 H   0  0  0  0  0  0  0  0  0  0  0  0
   24.0796    5.0918   30.5719 C   0  0  0  0  0  0  0  0  0  0  0  0
   23.8558    6.1797   29.7542 O   0  0  0  0  0  0  0  0  0  0  0  0
   24.9328    7.1145   29.5901 C   0  0  0  0  0  0  0  0  0  0  0  0
   25.7812    6.6517   29.0756 H   0  0  0  0  0  0  0  0  0  0  0  0
   25.2642    7.4974   30.5606 H   0  0  0  0  0  0  0  0  0  0  0  0
   24.5907    7.9609   28.9885 H   0  0  0  0  0  0  0  0  0  0  0  0
  1  2  1  0
  2  3  2  0
  3  4  1  0
  3  5  1  0
  5  6  1  0
  6  7  1  0
  7  8  1  0
  7  9  1  0
  7 10  1  0
  5 11  2  0
 11 12  1  0
 11 13  1  0
 13 14  1  0
 14 15  1  0
 14 16  1  0
 14 17  1  0
 17 18  2  0
 17 19  1  0
 19 20  1  0
 19 21  1  0
 21 22  2  0
 22 23  1  0
 23 24  1  0
 24 25  1  0
 25 26  1  0
 25 27  1  0
 25 28  1  0
 24 29  1  0
 29 30  1  0
 29 31  1  0
 29 32  1  0
 23 33  2  0
 33 34  1  0
 34 35  3  0
 33 36  1  0
 36 37  1  0
 37 38  1  0
 37 39  1  0
 36 40  2  0
 40 41  1  0
 13 42  2  0
 42 43  1  0
 43 44  1  0
 44 45  1  0
 44 46  1  0
 44 47  1  0
 42  2  1  0
 40 21  1  0
M  END
>  <score>  (113) 
7.3792

$$$$

     RDKit          3D

 55 57  0  0  0  0  0  0  0  0999 V2000
   26.1325    5.4680   30.8740 H   0  0  0  0  0  0  0  0  0  0  0  0
   25.2966    4.8194   31.1144 C   0  0  0  0  0  0  0  0  0  0  0  0
   25.5069    3.7208   31.9483 C   0  0  0  0  0  0  0  0  0  0  0  0
   27.2620    3.4359   32.6595 Br  0  0  0  0  0  0  0  0  0  0  0  0
   24.4406    2.8622   32.2560 C   0  0  0  0  0  0  0  0  0  0  0  0
   24.6757    1.7771   33.0673 O   0  0  0  0  0  0  0  0  0  0  0  0
   23.6459    0.7806   33.0932 C   0  0  0  0  0  0  0  0  0  0  0  0
   23.9658   -0.0681   33.7032 H   0  0  0  0  0  0  0  0  0  0  0  0
   23.4370    0.4193   32.0802 H   0  0  0  0  0  0  0  0  0  0  0  0
   22.7270    1.1900   33.5245 H   0  0  0  0  0  0  0  0  0  0  0  0
   23.1683    3.1475   31.7263 C   0  0  0  0  0  0  0  0  0  0  0  0
   22.3421    2.4882   31.9716 H   0  0  0  0  0  0  0  0  0  0  0  0
   22.9493    4.2530   30.8961 C   0  0  0  0  0  0  0  0  0  0  0  0
   21.5471    4.5203   30.3797 C   0  0  0  0  0  0  0  0  0  0  0  0
   20.9260    3.6252   30.4692 H   0  0  0  0  0  0  0  0  0  0  0  0
   21.5903    4.7882   29.3226 H   0  0  0  0  0  0  0  0  0  0  0  0
   20.8925    5.6653   31.1409 C   0  0  0  0  0  0  0  0  0  0  0  0
   19.7351    5.5803   31.5243 O   0  0  0  0  0  0  0  0  0  0  0  0
   21.5923    6.8232   31.3069 N   0  0  0  0  0  0  0  0  0  0  0  0
   22.4973    6.9100   30.8666 H   0  0  0  0  0  0  0  0  0  0  0  0
   21.0712    7.9731   31.7869 C   0  0  0  0  0  0  0  0  0  0  0  0
   21.8220    9.0058   31.4629 N   0  0  0  0  0  0  0  0  0  0  0  0
   21.4336   10.2439   31.8183 C   0  0  0  0  0  0  0  0  0  0  0  0
   22.3412   11.4425   31.4869 C   0  0  0  0  0  0  0  0  0  0  0  0
   22.3289   12.1061   32.3533 H   0  0  0  0  0  0  0  0  0  0  0  0
   23.3619   11.0752   31.3335 H   0  0  0  0  0  0  0  0  0  0  0  0
   21.9455   12.2805   30.3279 N   0  0  0  0  0  0  0  0  0  0  0  0
   22.4973   13.6585   30.2869 C   0  0  0  0  0  0  0  0  0  0  0  0
   23.5866   13.6231   30.1788 H   0  0  0  0  0  0  0  0  0  0  0  0
   22.2600   14.1650   31.2252 H   0  0  0  0  0  0  0  0  0  0  0  0
   21.8886   14.4587   29.1219 C   0  0  0  0  0  0  0  0  0  0  0  0
   22.3662   15.4398   29.0381 H   0  0  0  0  0  0  0  0  0  0  0  0
   20.8202   14.6097   29.3198 H   0  0  0  0  0  0  0  0  0  0  0  0
   22.0384   13.7352   27.8901 O   0  0  0  0  0  0  0  0  0  0  0  0
   21.2973   12.5093   28.0044 C   0  0  0  0  0  0  0  0  0  0  0  0
   21.2498   11.9516   27.0821 H   0  0  0  0  0  0  0  0  0  0  0  0
   20.2686   12.7482   28.2910 H   0  0  0  0  0  0  0  0  0  0  0  0
   21.9541   11.5928   29.0244 C   0  0  0  0  0  0  0  0  0  0  0  0
   22.9737   11.3596   28.7028 H   0  0  0  0  0  0  0  0  0  0  0  0
   21.4188   10.6408   29.0753 H   0  0  0  0  0  0  0  0  0  0  0  0
   20.2559   10.4291   32.5423 C   0  0  0  0  0  0  0  0  0  0  0  0
   19.8621   11.7347   32.9551 C   0  0  0  0  0  0  0  0  0  0  0  0
   19.5609   12.8076   33.2898 N   0  0  0  0  0  0  0  0  0  0  0  0
   19.4975    9.3208   32.8657 C   0  0  0  0  0  0  0  0  0  0  0  0
   18.3197    9.4230   33.5345 N   0  0  0  0  0  0  0  0  0  0  0  0
   18.0752   10.3294   33.9235 H   0  0  0  0  0  0  0  0  0  0  0  0
   17.8952    8.5739   33.9131 H   0  0  0  0  0  0  0  0  0  0  0  0
   19.9169    8.0771   32.5083 C   0  0  0  0  0  0  0  0  0  0  0  0
   19.3606    7.1987   32.7799 H   0  0  0  0  0  0  0  0  0  0  0  0
   24.0277    5.1076   30.5850 C   0  0  0  0  0  0  0  0  0  0  0  0
   23.8079    6.2096   29.7897 O   0  0  0  0  0  0  0  0  0  0  0  0
   24.9322    7.0827   29.6160 C   0  0  0  0  0  0  0  0  0  0  0  0
   25.7521    6.5568   29.1149 H   0  0  0  0  0  0  0  0  0  0  0  0
   25.2850    7.4475   30.5870 H   0  0  0  0  0  0  0  0  0  0  0  0
   24.6484    7.9429   29.0059 H   0  0  0  0  0  0  0  0  0  0  0  0
  1  2  1  0
  2  3  2  0
  3  4  1  0
  3  5  1  0
  5  6  1  0
  6  7  1  0
  7  8  1  0
  7  9  1  0
  7 10  1  0
  5 11  2  0
 11 12  1  0
 11 13  1  0
 13 14  1  0
 14 15  1  0
 14 16  1  0
 14 17  1  0
 17 18  2  0
 17 19  1  0
 19 20  1  0
 19 21  1  0
 21 22  2  0
 22 23  1  0
 23 24  1  0
 24 25  1  0
 24 26  1  0
 24 27  1  0
 27 28  1  0
 28 29  1  0
 28 30  1  0
 28 31  1  0
 31 32  1  0
 31 33  1  0
 31 34  1  0
 34 35  1  0
 35 36  1  0
 35 37  1  0
 35 38  1  0
 38 39  1  0
 38 40  1  0
 23 41  2  0
 41 42  1  0
 42 43  3  0
 41 44  1  0
 44 45  1  0
 45 46  1  0
 45 47  1  0
 44 48  2  0
 48 49  1  0
 13 50  2  0
 50 51  1  0
 51 52  1  0
 52 53  1  0
 52 54  1  0
 52 55  1  0
 50  2  1  0
 48 21  1  0
 38 27  1  0
M  END
>  <score>  (114) 
7.38023

$$$$

     RDKit          3D

 48 49  0  0  0  0  0  0  0  0999 V2000
   26.1478    5.4456   30.8438 H   0  0  0  0  0  0  0  0  0  0  0  0
   25.3066    4.8106   31.0972 C   0  0  0  0  0  0  0  0  0  0  0  0
   25.5049    3.7132   31.9407 C   0  0  0  0  0  0  0  0  0  0  0  0
   27.2601    3.3736   32.6317 Br  0  0  0  0  0  0  0  0  0  0  0  0
   24.4298    2.8676   32.2605 C   0  0  0  0  0  0  0  0  0  0  0  0
   24.6622    1.7943   33.0932 O   0  0  0  0  0  0  0  0  0  0  0  0
   23.6688    0.7593   33.1176 C   0  0  0  0  0  0  0  0  0  0  0  0
   24.0270   -0.0809   33.7225 H   0  0  0  0  0  0  0  0  0  0  0  0
   23.4694    0.3943   32.1054 H   0  0  0  0  0  0  0  0  0  0  0  0
   22.7346    1.1272   33.5518 H   0  0  0  0  0  0  0  0  0  0  0  0
   23.1592    3.1524   31.7247 C   0  0  0  0  0  0  0  0  0  0  0  0
   22.3289    2.4981   31.9730 H   0  0  0  0  0  0  0  0  0  0  0  0
   22.9600    4.2600   30.8822 C   0  0  0  0  0  0  0  0  0  0  0  0
   21.5888    4.5591   30.3280 C   0  0  0  0  0  0  0  0  0  0  0  0
   21.6753    4.8160   29.2694 H   0  0  0  0  0  0  0  0  0  0  0  0
   20.9304    3.6975   30.4165 H   0  0  0  0  0  0  0  0  0  0  0  0
   20.9635    5.7274   31.0624 C   0  0  0  0  0  0  0  0  0  0  0  0
   19.9153    5.5940   31.6733 O   0  0  0  0  0  0  0  0  0  0  0  0
   21.5274    6.9597   30.9255 N   0  0  0  0  0  0  0  0  0  0  0  0
   22.4186    7.0549   30.4574 H   0  0  0  0  0  0  0  0  0  0  0  0
   21.0274    8.0901   31.4569 C   0  0  0  0  0  0  0  0  0  0  0  0
   21.7254    9.1364   31.0800 N   0  0  0  0  0  0  0  0  0  0  0  0
   21.3688   10.3120   31.5751 C   0  0  0  0  0  0  0  0  0  0  0  0
   22.1074   11.4875   31.1543 C   0  0  0  0  0  0  0  0  0  0  0  0
   21.4815   12.1103   30.5219 H   0  0  0  0  0  0  0  0  0  0  0  0
   22.4466   12.0376   32.0276 H   0  0  0  0  0  0  0  0  0  0  0  0
   23.5075   10.8994   30.2488 S   0  0  0  0  0  0  0  0  0  0  0  0
   24.3884   12.0502   30.0258 O   0  0  0  0  0  0  0  0  0  0  0  0
   24.1736    9.8155   30.9856 O   0  0  0  0  0  0  0  0  0  0  0  0
   22.8249   10.3304   28.6844 C   0  0  0  0  0  0  0  0  0  0  0  0
   22.1368   11.0844   28.2921 H   0  0  0  0  0  0  0  0  0  0  0  0
   23.6516   10.1928   27.9854 H   0  0  0  0  0  0  0  0  0  0  0  0
   22.3005    9.3821   28.8234 H   0  0  0  0  0  0  0  0  0  0  0  0
   20.3124   10.4825   32.4409 C   0  0  0  0  0  0  0  0  0  0  0  0
   19.9542   11.7760   32.9167 C   0  0  0  0  0  0  0  0  0  0  0  0
   19.6886   12.8598   33.2482 N   0  0  0  0  0  0  0  0  0  0  0  0
   19.6196    9.3710   32.8146 C   0  0  0  0  0  0  0  0  0  0  0  0
   18.6006    9.4617   33.6935 N   0  0  0  0  0  0  0  0  0  0  0  0
   18.2205   10.3876   33.8737 H   0  0  0  0  0  0  0  0  0  0  0  0
   18.0191    8.6399   33.8228 H   0  0  0  0  0  0  0  0  0  0  0  0
   19.9540    8.1541   32.3128 C   0  0  0  0  0  0  0  0  0  0  0  0
   19.4078    7.2810   32.6145 H   0  0  0  0  0  0  0  0  0  0  0  0
   24.0425    5.1052   30.5688 C   0  0  0  0  0  0  0  0  0  0  0  0
   23.8327    6.1989   29.7547 O   0  0  0  0  0  0  0  0  0  0  0  0
   24.9319    7.1096   29.6022 C   0  0  0  0  0  0  0  0  0  0  0  0
   25.7745    6.6217   29.1017 H   0  0  0  0  0  0  0  0  0  0  0  0
   24.6204    7.9705   29.0029 H   0  0  0  0  0  0  0  0  0  0  0  0
   25.2657    7.4702   30.5796 H   0  0  0  0  0  0  0  0  0  0  0  0
  1  2  1  0
  2  3  2  0
  3  4  1  0
  3  5  1  0
  5  6  1  0
  6  7  1  0
  7  8  1  0
  7  9  1  0
  7 10  1  0
  5 11  2  0
 11 12  1  0
 11 13  1  0
 13 14  1  0
 14 15  1  0
 14 16  1  0
 14 17  1  0
 17 18  2  0
 17 19  1  0
 19 20  1  0
 19 21  1  0
 21 22  2  0
 22 23  1  0
 23 24  1  0
 24 25  1  0
 24 26  1  0
 24 27  1  0
 27 28  2  0
 27 29  2  0
 27 30  1  0
 30 31  1  0
 30 32  1  0
 30 33  1  0
 23 34  2  0
 34 35  1  0
 35 36  3  0
 34 37  1  0
 37 38  1  0
 38 39  1  0
 38 40  1  0
 37 41  2  0
 41 42  1  0
 13 43  2  0
 43 44  1  0
 44 45  1  0
 45 46  1  0
 45 47  1  0
 45 48  1  0
 43  2  1  0
 41 21  1  0
M  END
>  <score>  (115) 
7.38163

$$$$

     RDKit          3D

 39 40  0  0  0  0  0  0  0  0999 V2000
   26.1921    5.4088   30.8478 H   0  0  0  0  0  0  0  0  0  0  0  0
   25.3457    4.7790   31.1010 C   0  0  0  0  0  0  0  0  0  0  0  0
   25.5251    3.6739   31.9455 C   0  0  0  0  0  0  0  0  0  0  0  0
   27.2726    3.3009   32.6354 Br  0  0  0  0  0  0  0  0  0  0  0  0
   24.4402    2.8440   32.2732 C   0  0  0  0  0  0  0  0  0  0  0  0
   24.6636    1.7836   33.1234 O   0  0  0  0  0  0  0  0  0  0  0  0
   23.6905    0.7307   33.1430 C   0  0  0  0  0  0  0  0  0  0  0  0
   22.7505    1.0724   33.5868 H   0  0  0  0  0  0  0  0  0  0  0  0
   23.4987    0.3589   32.1311 H   0  0  0  0  0  0  0  0  0  0  0  0
   24.0732   -0.0988   33.7458 H   0  0  0  0  0  0  0  0  0  0  0  0
   23.1791    3.1419   31.7307 C   0  0  0  0  0  0  0  0  0  0  0  0
   22.3408    2.4998   31.9798 H   0  0  0  0  0  0  0  0  0  0  0  0
   22.9954    4.2460   30.8819 C   0  0  0  0  0  0  0  0  0  0  0  0
   21.6169    4.5345   30.3254 C   0  0  0  0  0  0  0  0  0  0  0  0
   21.7187    4.8781   29.2932 H   0  0  0  0  0  0  0  0  0  0  0  0
   21.0122    3.6237   30.3142 H   0  0  0  0  0  0  0  0  0  0  0  0
   20.9068    5.6259   31.1172 C   0  0  0  0  0  0  0  0  0  0  0  0
   19.7187    5.5248   31.3897 O   0  0  0  0  0  0  0  0  0  0  0  0
   21.5680    6.7922   31.3563 N   0  0  0  0  0  0  0  0  0  0  0  0
   22.4761    6.9281   30.9381 H   0  0  0  0  0  0  0  0  0  0  0  0
   20.9813    7.9359   31.7385 C   0  0  0  0  0  0  0  0  0  0  0  0
   21.7113    8.9595   31.3646 N   0  0  0  0  0  0  0  0  0  0  0  0
   21.3250   10.1824   31.7344 C   0  0  0  0  0  0  0  0  0  0  0  0
   22.6099   11.8999   31.0569 I   0  0  0  0  0  0  0  0  0  0  0  0
   20.2064   10.4058   32.5167 C   0  0  0  0  0  0  0  0  0  0  0  0
   19.8715   11.7309   32.9265 C   0  0  0  0  0  0  0  0  0  0  0  0
   19.6660   12.8429   33.2173 N   0  0  0  0  0  0  0  0  0  0  0  0
   19.4820    9.2938   32.8649 C   0  0  0  0  0  0  0  0  0  0  0  0
   18.4054    9.3635   33.6593 N   0  0  0  0  0  0  0  0  0  0  0  0
   18.5414    8.8084   34.4998 H   0  0  0  0  0  0  0  0  0  0  0  0
   17.5612    9.1012   33.1590 H   0  0  0  0  0  0  0  0  0  0  0  0
   19.8337    8.0413   32.4673 C   0  0  0  0  0  0  0  0  0  0  0  0
   19.2528    7.1799   32.7503 H   0  0  0  0  0  0  0  0  0  0  0  0
   24.0847    5.0860   30.5684 C   0  0  0  0  0  0  0  0  0  0  0  0
   23.8617    6.1777   29.7551 O   0  0  0  0  0  0  0  0  0  0  0  0
   24.9312    7.1201   29.5861 C   0  0  0  0  0  0  0  0  0  0  0  0
   24.5790    7.9634   28.9836 H   0  0  0  0  0  0  0  0  0  0  0  0
   25.7808    6.6621   29.0698 H   0  0  0  0  0  0  0  0  0  0  0  0
   25.2645    7.5070   30.5544 H   0  0  0  0  0  0  0  0  0  0  0  0
  1  2  1  0
  2  3  2  0
  3  4  1  0
  3  5  1  0
  5  6  1  0
  6  7  1  0
  7  8  1  0
  7  9  1  0
  7 10  1  0
  5 11  2  0
 11 12  1  0
 11 13  1  0
 13 14  1  0
 14 15  1  0
 14 16  1  0
 14 17  1  0
 17 18  2  0
 17 19  1  0
 19 20  1  0
 19 21  1  0
 21 22  2  0
 22 23  1  0
 23 24  1  0
 23 25  2  0
 25 26  1  0
 26 27  3  0
 25 28  1  0
 28 29  1  0
 29 30  1  0
 29 31  1  0
 28 32  2  0
 32 33  1  0
 13 34  2  0
 34 35  1  0
 35 36  1  0
 36 37  1  0
 36 38  1  0
 36 39  1  0
 34  2  1  0
 32 21  1  0
M  END
>  <score>  (116) 
7.38182

$$$$

     RDKit          3D

 57 59  0  0  0  0  0  0  0  0999 V2000
   26.1360    5.4682   30.8730 H   0  0  0  0  0  0  0  0  0  0  0  0
   25.3056    4.8102   31.1112 C   0  0  0  0  0  0  0  0  0  0  0  0
   25.5111    3.7106   31.9491 C   0  0  0  0  0  0  0  0  0  0  0  0
   27.2634    3.4014   32.6588 Br  0  0  0  0  0  0  0  0  0  0  0  0
   24.4441    2.8497   32.2582 C   0  0  0  0  0  0  0  0  0  0  0  0
   24.6746    1.7762   33.0850 O   0  0  0  0  0  0  0  0  0  0  0  0
   23.6558    0.7660   33.1074 C   0  0  0  0  0  0  0  0  0  0  0  0
   23.4476    0.4028   32.0958 H   0  0  0  0  0  0  0  0  0  0  0  0
   23.9906   -0.0786   33.7148 H   0  0  0  0  0  0  0  0  0  0  0  0
   22.7294    1.1590   33.5366 H   0  0  0  0  0  0  0  0  0  0  0  0
   23.1775    3.1229   31.7132 C   0  0  0  0  0  0  0  0  0  0  0  0
   22.3453    2.4727   31.9688 H   0  0  0  0  0  0  0  0  0  0  0  0
   22.9730    4.2157   30.8643 C   0  0  0  0  0  0  0  0  0  0  0  0
   21.5830    4.4871   30.3432 C   0  0  0  0  0  0  0  0  0  0  0  0
   20.9619    3.5898   30.4108 H   0  0  0  0  0  0  0  0  0  0  0  0
   21.6321    4.7921   29.2941 H   0  0  0  0  0  0  0  0  0  0  0  0
   20.9446    5.5992   31.1568 C   0  0  0  0  0  0  0  0  0  0  0  0
   19.7719    5.5150   31.4880 O   0  0  0  0  0  0  0  0  0  0  0  0
   21.6633    6.7389   31.3830 N   0  0  0  0  0  0  0  0  0  0  0  0
   22.5437    6.8651   30.9023 H   0  0  0  0  0  0  0  0  0  0  0  0
   21.0935    7.8866   31.7792 C   0  0  0  0  0  0  0  0  0  0  0  0
   21.8263    8.9227   31.4321 N   0  0  0  0  0  0  0  0  0  0  0  0
   21.3846   10.1601   31.7070 C   0  0  0  0  0  0  0  0  0  0  0  0
   22.2398   11.3509   31.2627 C   0  0  0  0  0  0  0  0  0  0  0  0
   23.2531   10.9789   31.0992 H   0  0  0  0  0  0  0  0  0  0  0  0
   22.2961   12.0484   32.0984 H   0  0  0  0  0  0  0  0  0  0  0  0
   21.7812   12.0838   30.0426 N   0  0  0  0  0  0  0  0  0  0  0  0
   20.8700   12.5249   30.1829 H   0  0  0  0  0  0  0  0  0  0  0  0
   22.7182   13.0114   29.3885 C   0  0  0  0  0  0  0  0  0  0  0  0
   23.0844   13.7553   30.1048 H   0  0  0  0  0  0  0  0  0  0  0  0
   23.8989   12.3062   28.7360 C   0  0  0  0  0  0  0  0  0  0  0  0
   23.5732   11.3510   28.3118 H   0  0  0  0  0  0  0  0  0  0  0  0
   24.6919   12.1056   29.4607 H   0  0  0  0  0  0  0  0  0  0  0  0
   24.3696   13.2372   27.6126 C   0  0  0  0  0  0  0  0  0  0  0  0
   24.6380   12.6631   26.7197 H   0  0  0  0  0  0  0  0  0  0  0  0
   25.2540   13.8028   27.9226 H   0  0  0  0  0  0  0  0  0  0  0  0
   23.2035   14.1918   27.3351 C   0  0  0  0  0  0  0  0  0  0  0  0
   22.9203   14.1903   26.2770 H   0  0  0  0  0  0  0  0  0  0  0  0
   23.4899   15.2123   27.6071 H   0  0  0  0  0  0  0  0  0  0  0  0
   22.0523   13.7143   28.2223 C   0  0  0  0  0  0  0  0  0  0  0  0
   21.4246   14.5408   28.5664 H   0  0  0  0  0  0  0  0  0  0  0  0
   21.4241   13.0073   27.6692 H   0  0  0  0  0  0  0  0  0  0  0  0
   20.2109   10.3352   32.4415 C   0  0  0  0  0  0  0  0  0  0  0  0
   19.7874   11.6284   32.8680 C   0  0  0  0  0  0  0  0  0  0  0  0
   19.4861   12.6873   33.2414 N   0  0  0  0  0  0  0  0  0  0  0  0
   19.4750    9.2170   32.7645 C   0  0  0  0  0  0  0  0  0  0  0  0
   18.3238    9.3063   33.4785 N   0  0  0  0  0  0  0  0  0  0  0  0
   18.3615    9.8773   34.3155 H   0  0  0  0  0  0  0  0  0  0  0  0
   17.7458    8.4717   33.5081 H   0  0  0  0  0  0  0  0  0  0  0  0
   19.8864    7.9718   32.4138 C   0  0  0  0  0  0  0  0  0  0  0  0
   19.2909    7.1036   32.6529 H   0  0  0  0  0  0  0  0  0  0  0  0
   24.0420    5.0886   30.5683 C   0  0  0  0  0  0  0  0  0  0  0  0
   23.8137    6.1998   29.7870 O   0  0  0  0  0  0  0  0  0  0  0  0
   24.9257    7.0929   29.6091 C   0  0  0  0  0  0  0  0  0  0  0  0
   24.6267    7.9502   28.9999 H   0  0  0  0  0  0  0  0  0  0  0  0
   25.2805    7.4635   30.5759 H   0  0  0  0  0  0  0  0  0  0  0  0
   25.7522    6.5823   29.1057 H   0  0  0  0  0  0  0  0  0  0  0  0
  1  2  1  0
  2  3  2  0
  3  4  1  0
  3  5  1  0
  5  6  1  0
  6  7  1  0
  7  8  1  0
  7  9  1  0
  7 10  1  0
  5 11  2  0
 11 12  1  0
 11 13  1  0
 13 14  1  0
 14 15  1  0
 14 16  1  0
 14 17  1  0
 17 18  2  0
 17 19  1  0
 19 20  1  0
 19 21  1  0
 21 22  2  0
 22 23  1  0
 23 24  1  0
 24 25  1  0
 24 26  1  0
 24 27  1  0
 27 28  1  0
 27 29  1  0
 29 30  1  0
 29 31  1  0
 31 32  1  0
 31 33  1  0
 31 34  1  0
 34 35  1  0
 34 36  1  0
 34 37  1  0
 37 38  1  0
 37 39  1  0
 37 40  1  0
 40 41  1  0
 40 42  1  0
 23 43  2  0
 43 44  1  0
 44 45  3  0
 43 46  1  0
 46 47  1  0
 47 48  1  0
 47 49  1  0
 46 50  2  0
 50 51  1  0
 13 52  2  0
 52 53  1  0
 53 54  1  0
 54 55  1  0
 54 56  1  0
 54 57  1  0
 52  2  1  0
 50 21  1  0
 40 29  1  0
M  END
>  <score>  (117) 
7.38287

$$$$

     RDKit          3D

 53 54  0  0  0  0  0  0  0  0999 V2000
   26.0665    5.5230   30.8985 H   0  0  0  0  0  0  0  0  0  0  0  0
   25.2420    4.8602   31.1388 C   0  0  0  0  0  0  0  0  0  0  0  0
   25.4634    3.7500   31.9560 C   0  0  0  0  0  0  0  0  0  0  0  0
   27.2233    3.4593   32.6513 Br  0  0  0  0  0  0  0  0  0  0  0  0
   24.4079    2.8751   32.2503 C   0  0  0  0  0  0  0  0  0  0  0  0
   24.6524    1.7726   33.0341 O   0  0  0  0  0  0  0  0  0  0  0  0
   23.6047    0.7946   33.0697 C   0  0  0  0  0  0  0  0  0  0  0  0
   23.3828    0.4319   32.0600 H   0  0  0  0  0  0  0  0  0  0  0  0
   22.6940    1.2261   33.4968 H   0  0  0  0  0  0  0  0  0  0  0  0
   23.9107   -0.0551   33.6855 H   0  0  0  0  0  0  0  0  0  0  0  0
   23.1334    3.1596   31.7361 C   0  0  0  0  0  0  0  0  0  0  0  0
   22.3112    2.4976   31.9878 H   0  0  0  0  0  0  0  0  0  0  0  0
   22.9057    4.2756   30.9250 C   0  0  0  0  0  0  0  0  0  0  0  0
   21.4924    4.5408   30.4646 C   0  0  0  0  0  0  0  0  0  0  0  0
   20.8834    3.6402   30.5629 H   0  0  0  0  0  0  0  0  0  0  0  0
   21.4891    4.8394   29.4137 H   0  0  0  0  0  0  0  0  0  0  0  0
   20.8704    5.6432   31.3042 C   0  0  0  0  0  0  0  0  0  0  0  0
   19.7021    5.5712   31.6540 O   0  0  0  0  0  0  0  0  0  0  0  0
   21.6008    6.7708   31.5313 N   0  0  0  0  0  0  0  0  0  0  0  0
   22.4931    6.8655   31.0655 H   0  0  0  0  0  0  0  0  0  0  0  0
   21.0621    7.9375   31.9282 C   0  0  0  0  0  0  0  0  0  0  0  0
   21.8376    8.9461   31.6011 N   0  0  0  0  0  0  0  0  0  0  0  0
   21.4243   10.1964   31.8671 C   0  0  0  0  0  0  0  0  0  0  0  0
   22.2888   11.3679   31.3804 C   0  0  0  0  0  0  0  0  0  0  0  0
   23.2710   10.9715   31.1042 H   0  0  0  0  0  0  0  0  0  0  0  0
   22.4276   12.0636   32.2060 H   0  0  0  0  0  0  0  0  0  0  0  0
   21.7139   12.1354   30.2469 N   0  0  0  0  0  0  0  0  0  0  0  0
   20.8382   12.5923   30.5106 H   0  0  0  0  0  0  0  0  0  0  0  0
   22.5496   13.0396   29.4618 C   0  0  0  0  0  0  0  0  0  0  0  0
   23.5708   12.6508   29.3477 H   0  0  0  0  0  0  0  0  0  0  0  0
   21.8618   13.1365   28.1191 C   0  0  0  0  0  0  0  0  0  0  0  0
   20.9380   13.7007   28.2314 H   0  0  0  0  0  0  0  0  0  0  0  0
   21.6090   12.1422   27.7444 H   0  0  0  0  0  0  0  0  0  0  0  0
   22.5043   13.6381   27.3964 H   0  0  0  0  0  0  0  0  0  0  0  0
   22.5435   14.3994   30.1375 C   0  0  0  0  0  0  0  0  0  0  0  0
   22.9777   15.1402   29.4662 H   0  0  0  0  0  0  0  0  0  0  0  0
   21.5127   14.6968   30.3602 H   0  0  0  0  0  0  0  0  0  0  0  0
   23.1188   14.3737   31.0679 H   0  0  0  0  0  0  0  0  0  0  0  0
   20.2317   10.4180   32.5513 C   0  0  0  0  0  0  0  0  0  0  0  0
   19.8063   11.7482   32.8419 C   0  0  0  0  0  0  0  0  0  0  0  0
   19.5360   12.8568   33.0496 N   0  0  0  0  0  0  0  0  0  0  0  0
   19.4739    9.3314   32.8956 C   0  0  0  0  0  0  0  0  0  0  0  0
   18.2879    9.4400   33.5238 N   0  0  0  0  0  0  0  0  0  0  0  0
   18.0773   10.3392   33.9443 H   0  0  0  0  0  0  0  0  0  0  0  0
   17.9255    8.5927   33.9594 H   0  0  0  0  0  0  0  0  0  0  0  0
   19.8635    8.0769   32.5656 C   0  0  0  0  0  0  0  0  0  0  0  0
   19.2410    7.2324   32.7992 H   0  0  0  0  0  0  0  0  0  0  0  0
   23.9719    5.1484   30.6183 C   0  0  0  0  0  0  0  0  0  0  0  0
   23.7543    6.2736   29.8516 O   0  0  0  0  0  0  0  0  0  0  0  0
   24.9117    7.0974   29.6241 C   0  0  0  0  0  0  0  0  0  0  0  0
   25.3072    7.4680   30.5765 H   0  0  0  0  0  0  0  0  0  0  0  0
   24.6564    7.9554   28.9957 H   0  0  0  0  0  0  0  0  0  0  0  0
   25.6977    6.5219   29.1222 H   0  0  0  0  0  0  0  0  0  0  0  0
  1  2  1  0
  2  3  2  0
  3  4  1  0
  3  5  1  0
  5  6  1  0
  6  7  1  0
  7  8  1  0
  7  9  1  0
  7 10  1  0
  5 11  2  0
 11 12  1  0
 11 13  1  0
 13 14  1  0
 14 15  1  0
 14 16  1  0
 14 17  1  0
 17 18  2  0
 17 19  1  0
 19 20  1  0
 19 21  1  0
 21 22  2  0
 22 23  1  0
 23 24  1  0
 24 25  1  0
 24 26  1  0
 24 27  1  0
 27 28  1  0
 27 29  1  0
 29 30  1  0
 29 31  1  0
 31 32  1  0
 31 33  1  0
 31 34  1  0
 29 35  1  0
 35 36  1  0
 35 37  1  0
 35 38  1  0
 23 39  2  0
 39 40  1  0
 40 41  3  0
 39 42  1  0
 42 43  1  0
 43 44  1  0
 43 45  1  0
 42 46  2  0
 46 47  1  0
 13 48  2  0
 48 49  1  0
 49 50  1  0
 50 51  1  0
 50 52  1  0
 50 53  1  0
 48  2  1  0
 46 21  1  0
M  END
>  <score>  (118) 
7.38952

$$$$

     RDKit          3D

 44 45  0  0  0  0  0  0  0  0999 V2000
   26.1171    5.4635   30.8470 H   0  0  0  0  0  0  0  0  0  0  0  0
   25.2840    4.8169   31.1003 C   0  0  0  0  0  0  0  0  0  0  0  0
   25.4943    3.7221   31.9429 C   0  0  0  0  0  0  0  0  0  0  0  0
   27.2551    3.4121   32.6338 Br  0  0  0  0  0  0  0  0  0  0  0  0
   24.4282    2.8667   32.2610 C   0  0  0  0  0  0  0  0  0  0  0  0
   24.6671    1.7940   33.0901 O   0  0  0  0  0  0  0  0  0  0  0  0
   23.6626    0.7700   33.1099 C   0  0  0  0  0  0  0  0  0  0  0  0
   22.7296    1.1485   33.5396 H   0  0  0  0  0  0  0  0  0  0  0  0
   23.4611    0.4091   32.0959 H   0  0  0  0  0  0  0  0  0  0  0  0
   24.0056   -0.0760   33.7140 H   0  0  0  0  0  0  0  0  0  0  0  0
   23.1580    3.1361   31.7203 C   0  0  0  0  0  0  0  0  0  0  0  0
   22.3358    2.4715   31.9691 H   0  0  0  0  0  0  0  0  0  0  0  0
   22.9457    4.2344   30.8734 C   0  0  0  0  0  0  0  0  0  0  0  0
   21.5593    4.4913   30.3297 C   0  0  0  0  0  0  0  0  0  0  0  0
   21.6326    4.7993   29.2818 H   0  0  0  0  0  0  0  0  0  0  0  0
   20.9520    3.5840   30.3694 H   0  0  0  0  0  0  0  0  0  0  0  0
   20.8784    5.5935   31.1284 C   0  0  0  0  0  0  0  0  0  0  0  0
   19.8200    5.4033   31.7029 O   0  0  0  0  0  0  0  0  0  0  0  0
   21.4436    6.8297   31.0936 N   0  0  0  0  0  0  0  0  0  0  0  0
   22.3297    6.9232   30.6205 H   0  0  0  0  0  0  0  0  0  0  0  0
   20.9544    7.9731   31.6187 C   0  0  0  0  0  0  0  0  0  0  0  0
   21.6949    9.0055   31.2399 N   0  0  0  0  0  0  0  0  0  0  0  0
   21.4000   10.2915   31.6159 C   0  0  0  0  0  0  0  0  0  0  0  0
   22.4030   11.7903   30.9425 S   0  0  0  0  0  0  0  0  0  0  0  0
   22.7406   12.8068   31.9520 O   0  0  0  0  0  0  0  0  0  0  0  0
   23.5703   11.5247   30.0897 O   0  0  0  0  0  0  0  0  0  0  0  0
   21.4870   12.6939   29.8369 N   0  0  0  0  0  0  0  0  0  0  0  0
   22.0153   13.5505   29.7276 H   0  0  0  0  0  0  0  0  0  0  0  0
   21.4919   12.1781   28.9640 H   0  0  0  0  0  0  0  0  0  0  0  0
   20.2980   10.4591   32.5050 C   0  0  0  0  0  0  0  0  0  0  0  0
   19.9012   11.7514   32.9787 C   0  0  0  0  0  0  0  0  0  0  0  0
   19.5633   12.8076   33.3394 N   0  0  0  0  0  0  0  0  0  0  0  0
   19.5502    9.3447   32.8914 C   0  0  0  0  0  0  0  0  0  0  0  0
   18.4946    9.4433   33.7511 N   0  0  0  0  0  0  0  0  0  0  0  0
   17.9066    8.6237   33.9052 H   0  0  0  0  0  0  0  0  0  0  0  0
   18.1206   10.3709   33.9403 H   0  0  0  0  0  0  0  0  0  0  0  0
   19.8532    8.0975   32.4220 C   0  0  0  0  0  0  0  0  0  0  0  0
   19.2400    7.2499   32.6798 H   0  0  0  0  0  0  0  0  0  0  0  0
   24.0184    5.0964   30.5630 C   0  0  0  0  0  0  0  0  0  0  0  0
   23.8058    6.1911   29.7513 O   0  0  0  0  0  0  0  0  0  0  0  0
   24.9209    7.0869   29.6035 C   0  0  0  0  0  0  0  0  0  0  0  0
   25.7619    6.5871   29.1097 H   0  0  0  0  0  0  0  0  0  0  0  0
   24.6315    7.9535   29.0021 H   0  0  0  0  0  0  0  0  0  0  0  0
   25.2586    7.4421   30.5831 H   0  0  0  0  0  0  0  0  0  0  0  0
  1  2  1  0
  2  3  2  0
  3  4  1  0
  3  5  1  0
  5  6  1  0
  6  7  1  0
  7  8  1  0
  7  9  1  0
  7 10  1  0
  5 11  2  0
 11 12  1  0
 11 13  1  0
 13 14  1  0
 14 15  1  0
 14 16  1  0
 14 17  1  0
 17 18  2  0
 17 19  1  0
 19 20  1  0
 19 21  1  0
 21 22  2  0
 22 23  1  0
 23 24  1  0
 24 25  2  0
 24 26  2  0
 24 27  1  0
 27 28  1  0
 27 29  1  0
 23 30  2  0
 30 31  1  0
 31 32  3  0
 30 33  1  0
 33 34  1  0
 34 35  1  0
 34 36  1  0
 33 37  2  0
 37 38  1  0
 13 39  2  0
 39 40  1  0
 40 41  1  0
 41 42  1  0
 41 43  1  0
 41 44  1  0
 39  2  1  0
 37 21  1  0
M  END
>  <score>  (119) 
7.39075

$$$$

     RDKit          3D

 51 52  0  0  0  0  0  0  0  0999 V2000
   21.6479   15.7216   29.6575 H   0  0  0  0  0  0  0  0  0  0  0  0
   21.9652   14.8411   29.4040 O   0  0  0  0  0  0  0  0  0  0  0  0
   21.0351   13.9806   29.8771 C   0  0  0  0  0  0  0  0  0  0  0  0
   20.0364   14.3333   30.4808 O   0  0  0  0  0  0  0  0  0  0  0  0
   21.1566   12.5150   29.4716 C   0  0  0  0  0  0  0  0  0  0  0  0
   21.0721   12.4682   28.3831 H   0  0  0  0  0  0  0  0  0  0  0  0
   20.3121   11.9852   29.9081 H   0  0  0  0  0  0  0  0  0  0  0  0
   22.4666   11.8226   29.8909 C   0  0  0  0  0  0  0  0  0  0  0  0
   23.3185   12.4891   29.7174 H   0  0  0  0  0  0  0  0  0  0  0  0
   22.6178   10.9290   29.2666 H   0  0  0  0  0  0  0  0  0  0  0  0
   22.4524   11.4189   31.3770 C   0  0  0  0  0  0  0  0  0  0  0  0
   23.4525   11.0849   31.6741 H   0  0  0  0  0  0  0  0  0  0  0  0
   22.2013   12.2851   31.9949 H   0  0  0  0  0  0  0  0  0  0  0  0
   21.5081   10.2848   31.6946 C   0  0  0  0  0  0  0  0  0  0  0  0
   21.8901    9.0643   31.3173 N   0  0  0  0  0  0  0  0  0  0  0  0
   21.1455    8.0389   31.6726 C   0  0  0  0  0  0  0  0  0  0  0  0
   21.6464    6.8826   31.2056 N   0  0  0  0  0  0  0  0  0  0  0  0
   22.5126    6.9656   30.6949 H   0  0  0  0  0  0  0  0  0  0  0  0
   20.9259    5.7247   31.1182 C   0  0  0  0  0  0  0  0  0  0  0  0
   19.7856    5.6688   31.5421 O   0  0  0  0  0  0  0  0  0  0  0  0
   21.5335    4.5338   30.4014 C   0  0  0  0  0  0  0  0  0  0  0  0
   21.5586    4.7503   29.3319 H   0  0  0  0  0  0  0  0  0  0  0  0
   20.8888    3.6645   30.5587 H   0  0  0  0  0  0  0  0  0  0  0  0
   22.9344    4.2615   30.9075 C   0  0  0  0  0  0  0  0  0  0  0  0
   23.1620    3.1481   31.7262 C   0  0  0  0  0  0  0  0  0  0  0  0
   22.3420    2.4805   31.9716 H   0  0  0  0  0  0  0  0  0  0  0  0
   24.4378    2.8678   32.2501 C   0  0  0  0  0  0  0  0  0  0  0  0
   24.6756    1.7744   33.0492 O   0  0  0  0  0  0  0  0  0  0  0  0
   23.6312    0.7920   33.0798 C   0  0  0  0  0  0  0  0  0  0  0  0
   23.4150    0.4350   32.0674 H   0  0  0  0  0  0  0  0  0  0  0  0
   22.7175    1.2193   33.5046 H   0  0  0  0  0  0  0  0  0  0  0  0
   23.9356   -0.0619   33.6918 H   0  0  0  0  0  0  0  0  0  0  0  0
   25.4980    3.7374   31.9517 C   0  0  0  0  0  0  0  0  0  0  0  0
   27.2564    3.4636   32.6628 Br  0  0  0  0  0  0  0  0  0  0  0  0
   25.2773    4.8385   31.1245 C   0  0  0  0  0  0  0  0  0  0  0  0
   26.1052    5.4971   30.8859 H   0  0  0  0  0  0  0  0  0  0  0  0
   24.0067    5.1235   30.5988 C   0  0  0  0  0  0  0  0  0  0  0  0
   23.7890    6.2341   29.8132 O   0  0  0  0  0  0  0  0  0  0  0  0
   24.9324    7.0815   29.6249 C   0  0  0  0  0  0  0  0  0  0  0  0
   24.6689    7.9450   29.0091 H   0  0  0  0  0  0  0  0  0  0  0  0
   25.3011    7.4400   30.5920 H   0  0  0  0  0  0  0  0  0  0  0  0
   25.7383    6.5292   29.1292 H   0  0  0  0  0  0  0  0  0  0  0  0
   20.0068    8.1409   32.4207 C   0  0  0  0  0  0  0  0  0  0  0  0
   19.4471    7.2700   32.7124 H   0  0  0  0  0  0  0  0  0  0  0  0
   19.5938    9.3868   32.7701 C   0  0  0  0  0  0  0  0  0  0  0  0
   18.4325    9.5084   33.4587 N   0  0  0  0  0  0  0  0  0  0  0  0
   18.1653   10.4269   33.8039 H   0  0  0  0  0  0  0  0  0  0  0  0
   17.9964    8.6679   33.8307 H   0  0  0  0  0  0  0  0  0  0  0  0
   20.3418   10.4854   32.4243 C   0  0  0  0  0  0  0  0  0  0  0  0
   19.9624   11.7924   32.8406 C   0  0  0  0  0  0  0  0  0  0  0  0
   19.7037   12.8724   33.1855 N   0  0  0  0  0  0  0  0  0  0  0  0
  1  2  1  0
  2  3  1  0
  3  4  2  0
  3  5  1  0
  5  6  1  0
  5  7  1  0
  5  8  1  0
  8  9  1  0
  8 10  1  0
  8 11  1  0
 11 12  1  0
 11 13  1  0
 11 14  1  0
 14 15  2  0
 15 16  1  0
 16 17  1  0
 17 18  1  0
 17 19  1  0
 19 20  2  0
 19 21  1  0
 21 22  1  0
 21 23  1  0
 21 24  1  0
 24 25  2  0
 25 26  1  0
 25 27  1  0
 27 28  1  0
 28 29  1  0
 29 30  1  0
 29 31  1  0
 29 32  1  0
 27 33  2  0
 33 34  1  0
 33 35  1  0
 35 36  1  0
 35 37  2  0
 37 38  1  0
 38 39  1  0
 39 40  1  0
 39 41  1  0
 39 42  1  0
 16 43  2  0
 43 44  1  0
 43 45  1  0
 45 46  1  0
 46 47  1  0
 46 48  1  0
 45 49  2  0
 49 50  1  0
 50 51  3  0
 49 14  1  0
 37 24  1  0
M  END
>  <score>  (120) 
7.39549

$$$$

     RDKit          3D

 41 42  0  0  0  0  0  0  0  0999 V2000
   23.5484   12.9806   30.6121 H   0  0  0  0  0  0  0  0  0  0  0  0
   22.8952   12.2080   30.9600 C   0  0  0  0  0  0  0  0  0  0  0  0
   22.1731   11.3019   31.3289 C   0  0  0  0  0  0  0  0  0  0  0  0
   21.3455   10.2106   31.7391 C   0  0  0  0  0  0  0  0  0  0  0  0
   21.7258    8.9880   31.3525 N   0  0  0  0  0  0  0  0  0  0  0  0
   20.9861    7.9634   31.7202 C   0  0  0  0  0  0  0  0  0  0  0  0
   21.5631    6.8106   31.3333 N   0  0  0  0  0  0  0  0  0  0  0  0
   22.4983    6.9259   30.9730 H   0  0  0  0  0  0  0  0  0  0  0  0
   20.9027    5.6324   31.1102 C   0  0  0  0  0  0  0  0  0  0  0  0
   19.7203    5.5276   31.3985 O   0  0  0  0  0  0  0  0  0  0  0  0
   21.6216    4.5392   30.3203 C   0  0  0  0  0  0  0  0  0  0  0  0
   21.7278    4.8798   29.2872 H   0  0  0  0  0  0  0  0  0  0  0  0
   21.0170    3.6297   30.3068 H   0  0  0  0  0  0  0  0  0  0  0  0
   22.9971    4.2493   30.8837 C   0  0  0  0  0  0  0  0  0  0  0  0
   23.1793    3.1442   31.7309 C   0  0  0  0  0  0  0  0  0  0  0  0
   22.3374    2.5063   31.9780 H   0  0  0  0  0  0  0  0  0  0  0  0
   24.4395    2.8437   32.2728 C   0  0  0  0  0  0  0  0  0  0  0  0
   24.6595    1.7835   33.1244 O   0  0  0  0  0  0  0  0  0  0  0  0
   23.6918    0.7255   33.1460 C   0  0  0  0  0  0  0  0  0  0  0  0
   24.0827   -0.1011   33.7507 H   0  0  0  0  0  0  0  0  0  0  0  0
   23.5026    0.3529   32.1326 H   0  0  0  0  0  0  0  0  0  0  0  0
   22.7516    1.0661   33.5932 H   0  0  0  0  0  0  0  0  0  0  0  0
   25.5261    3.6717   31.9453 C   0  0  0  0  0  0  0  0  0  0  0  0
   27.2709    3.2906   32.6341 Br  0  0  0  0  0  0  0  0  0  0  0  0
   25.3498    4.7751   31.0995 C   0  0  0  0  0  0  0  0  0  0  0  0
   26.1989    5.4016   30.8496 H   0  0  0  0  0  0  0  0  0  0  0  0
   24.0895    5.0855   30.5688 C   0  0  0  0  0  0  0  0  0  0  0  0
   23.8693    6.1766   29.7543 O   0  0  0  0  0  0  0  0  0  0  0  0
   24.9322    7.1255   29.5832 C   0  0  0  0  0  0  0  0  0  0  0  0
   25.7822    6.6686   29.0644 H   0  0  0  0  0  0  0  0  0  0  0  0
   24.5704    7.9665   28.9797 H   0  0  0  0  0  0  0  0  0  0  0  0
   25.2622    7.5133   30.5533 H   0  0  0  0  0  0  0  0  0  0  0  0
   19.8408    8.0675   32.4558 C   0  0  0  0  0  0  0  0  0  0  0  0
   19.2652    7.1961   32.7406 H   0  0  0  0  0  0  0  0  0  0  0  0
   19.4916    9.3195   32.8560 C   0  0  0  0  0  0  0  0  0  0  0  0
   18.4068    9.3706   33.6337 N   0  0  0  0  0  0  0  0  0  0  0  0
   18.5604    8.8813   34.5100 H   0  0  0  0  0  0  0  0  0  0  0  0
   17.5938    9.0203   33.1398 H   0  0  0  0  0  0  0  0  0  0  0  0
   20.2218   10.4328   32.5212 C   0  0  0  0  0  0  0  0  0  0  0  0
   19.8697   11.7570   32.9371 C   0  0  0  0  0  0  0  0  0  0  0  0
   19.6735   12.8734   33.2093 N   0  0  0  0  0  0  0  0  0  0  0  0
  1  2  1  0
  2  3  3  0
  3  4  1  0
  4  5  2  0
  5  6  1  0
  6  7  1  0
  7  8  1  0
  7  9  1  0
  9 10  2  0
  9 11  1  0
 11 12  1  0
 11 13  1  0
 11 14  1  0
 14 15  2  0
 15 16  1  0
 15 17  1  0
 17 18  1  0
 18 19  1  0
 19 20  1  0
 19 21  1  0
 19 22  1  0
 17 23  2  0
 23 24  1  0
 23 25  1  0
 25 26  1  0
 25 27  2  0
 27 28  1  0
 28 29  1  0
 29 30  1  0
 29 31  1  0
 29 32  1  0
  6 33  2  0
 33 34  1  0
 33 35  1  0
 35 36  1  0
 36 37  1  0
 36 38  1  0
 35 39  2  0
 39 40  1  0
 40 41  3  0
 39  4  1  0
 27 14  1  0
M  END
>  <score>  (121) 
7.39589

$$$$

     RDKit          3D

 47 49  0  0  0  0  0  0  0  0999 V2000
   23.3620   14.4510   32.0495 H   0  0  0  0  0  0  0  0  0  0  0  0
   23.3008   13.5420   31.4552 C   0  0  0  0  0  0  0  0  0  0  0  0
   22.4482   12.5744   31.8077 N   0  0  0  0  0  0  0  0  0  0  0  0
   22.3920   11.4055   31.1222 C   0  0  0  0  0  0  0  0  0  0  0  0
   21.4782   10.2578   31.6482 C   0  0  0  0  0  0  0  0  0  0  0  0
   21.7174    8.9732   31.2991 N   0  0  0  0  0  0  0  0  0  0  0  0
   20.9755    7.9839   31.7478 C   0  0  0  0  0  0  0  0  0  0  0  0
   21.4827    6.8330   31.2953 N   0  0  0  0  0  0  0  0  0  0  0  0
   22.3363    6.9350   30.7664 H   0  0  0  0  0  0  0  0  0  0  0  0
   20.8092    5.6569   31.1945 C   0  0  0  0  0  0  0  0  0  0  0  0
   19.6537    5.5659   31.5774 O   0  0  0  0  0  0  0  0  0  0  0  0
   21.4890    4.5336   30.4299 C   0  0  0  0  0  0  0  0  0  0  0  0
   21.5335    4.8219   29.3780 H   0  0  0  0  0  0  0  0  0  0  0  0
   20.8866    3.6255   30.5130 H   0  0  0  0  0  0  0  0  0  0  0  0
   22.8982    4.2772   30.9328 C   0  0  0  0  0  0  0  0  0  0  0  0
   23.1347    3.1581   31.7435 C   0  0  0  0  0  0  0  0  0  0  0  0
   22.3200    2.4856   31.9879 H   0  0  0  0  0  0  0  0  0  0  0  0
   24.4123    2.8730   32.2609 C   0  0  0  0  0  0  0  0  0  0  0  0
   24.6618    1.7747   33.0532 O   0  0  0  0  0  0  0  0  0  0  0  0
   23.6271    0.7812   33.0877 C   0  0  0  0  0  0  0  0  0  0  0  0
   22.7097    1.1977   33.5174 H   0  0  0  0  0  0  0  0  0  0  0  0
   23.4115    0.4173   32.0763 H   0  0  0  0  0  0  0  0  0  0  0  0
   23.9464   -0.0669   33.7013 H   0  0  0  0  0  0  0  0  0  0  0  0
   25.4706    3.7425   31.9565 C   0  0  0  0  0  0  0  0  0  0  0  0
   27.2343    3.4386   32.6434 Br  0  0  0  0  0  0  0  0  0  0  0  0
   25.2492    4.8502   31.1348 C   0  0  0  0  0  0  0  0  0  0  0  0
   26.0821    5.5021   30.8859 H   0  0  0  0  0  0  0  0  0  0  0  0
   23.9746    5.1380   30.6173 C   0  0  0  0  0  0  0  0  0  0  0  0
   23.7641    6.2483   29.8287 O   0  0  0  0  0  0  0  0  0  0  0  0
   24.9069    7.0978   29.6186 C   0  0  0  0  0  0  0  0  0  0  0  0
   25.2863    7.4658   30.5784 H   0  0  0  0  0  0  0  0  0  0  0  0
   24.6350    7.9579   28.9979 H   0  0  0  0  0  0  0  0  0  0  0  0
   25.7099    6.5464   29.1161 H   0  0  0  0  0  0  0  0  0  0  0  0
   19.8941    8.1448   32.5600 C   0  0  0  0  0  0  0  0  0  0  0  0
   19.3202    7.2996   32.9095 H   0  0  0  0  0  0  0  0  0  0  0  0
   19.6057    9.4186   32.9417 C   0  0  0  0  0  0  0  0  0  0  0  0
   18.5153    9.5505   33.7411 N   0  0  0  0  0  0  0  0  0  0  0  0
   18.1892   10.4926   33.9508 H   0  0  0  0  0  0  0  0  0  0  0  0
   17.8308    8.7988   33.6819 H   0  0  0  0  0  0  0  0  0  0  0  0
   20.3882   10.4857   32.5195 C   0  0  0  0  0  0  0  0  0  0  0  0
   20.0630   11.8133   32.9225 C   0  0  0  0  0  0  0  0  0  0  0  0
   19.8671   12.9225   33.2075 N   0  0  0  0  0  0  0  0  0  0  0  0
   23.1752   11.2568   30.0191 N   0  0  0  0  0  0  0  0  0  0  0  0
   24.0151   12.2252   29.6344 C   0  0  0  0  0  0  0  0  0  0  0  0
   24.6418   12.0933   28.7537 H   0  0  0  0  0  0  0  0  0  0  0  0
   24.1188   13.3957   30.3554 C   0  0  0  0  0  0  0  0  0  0  0  0
   24.8252   14.1653   30.0683 H   0  0  0  0  0  0  0  0  0  0  0  0
  1  2  1  0
  2  3  2  0
  3  4  1  0
  4  5  1  0
  5  6  2  0
  6  7  1  0
  7  8  1  0
  8  9  1  0
  8 10  1  0
 10 11  2  0
 10 12  1  0
 12 13  1  0
 12 14  1  0
 12 15  1  0
 15 16  2  0
 16 17  1  0
 16 18  1  0
 18 19  1  0
 19 20  1  0
 20 21  1  0
 20 22  1  0
 20 23  1  0
 18 24  2  0
 24 25  1  0
 24 26  1  0
 26 27  1  0
 26 28  2  0
 28 29  1  0
 29 30  1  0
 30 31  1  0
 30 32  1  0
 30 33  1  0
  7 34  2  0
 34 35  1  0
 34 36  1  0
 36 37  1  0
 37 38  1  0
 37 39  1  0
 36 40  2  0
 40 41  1  0
 41 42  3  0
  4 43  2  0
 43 44  1  0
 44 45  1  0
 44 46  2  0
 46 47  1  0
 46  2  1  0
 40  5  1  0
 28 15  1  0
M  END
>  <score>  (122) 
7.39609

$$$$

     RDKit          3D

 56 58  0  0  0  0  0  0  0  0999 V2000
   21.7767   16.5497   27.4089 H   0  0  0  0  0  0  0  0  0  0  0  0
   22.2284   15.7239   27.9513 C   0  0  0  0  0  0  0  0  0  0  0  0
   22.1118   15.6401   29.3406 C   0  0  0  0  0  0  0  0  0  0  0  0
   21.5895   16.4235   29.8822 H   0  0  0  0  0  0  0  0  0  0  0  0
   22.6786   14.5553   30.0289 C   0  0  0  0  0  0  0  0  0  0  0  0
   22.6003   14.5122   31.1099 H   0  0  0  0  0  0  0  0  0  0  0  0
   23.3752   13.5578   29.3303 C   0  0  0  0  0  0  0  0  0  0  0  0
   24.0165   12.3852   30.0366 C   0  0  0  0  0  0  0  0  0  0  0  0
   24.8472   12.0019   29.4394 H   0  0  0  0  0  0  0  0  0  0  0  0
   24.4185   12.6855   31.0071 H   0  0  0  0  0  0  0  0  0  0  0  0
   23.0280   11.2568   30.2441 C   0  0  0  0  0  0  0  0  0  0  0  0
   23.0888   10.2657   29.5307 O   0  0  0  0  0  0  0  0  0  0  0  0
   22.1748   11.3185   31.3120 N   0  0  0  0  0  0  0  0  0  0  0  0
   22.0952   12.1724   31.8478 H   0  0  0  0  0  0  0  0  0  0  0  0
   21.3706   10.2740   31.6367 C   0  0  0  0  0  0  0  0  0  0  0  0
   21.7147    9.0943   31.1563 N   0  0  0  0  0  0  0  0  0  0  0  0
   20.9830    8.0670   31.5020 C   0  0  0  0  0  0  0  0  0  0  0  0
   21.4839    6.9364   30.9623 N   0  0  0  0  0  0  0  0  0  0  0  0
   22.3446    7.0556   30.4459 H   0  0  0  0  0  0  0  0  0  0  0  0
   20.9368    5.6962   31.0803 C   0  0  0  0  0  0  0  0  0  0  0  0
   19.8846    5.5422   31.6817 O   0  0  0  0  0  0  0  0  0  0  0  0
   21.5864    4.5485   30.3299 C   0  0  0  0  0  0  0  0  0  0  0  0
   20.9440    3.6750   30.4012 H   0  0  0  0  0  0  0  0  0  0  0  0
   21.6708    4.8198   29.2744 H   0  0  0  0  0  0  0  0  0  0  0  0
   22.9602    4.2593   30.8824 C   0  0  0  0  0  0  0  0  0  0  0  0
   23.1560    3.1556   31.7269 C   0  0  0  0  0  0  0  0  0  0  0  0
   22.3199    2.5081   31.9738 H   0  0  0  0  0  0  0  0  0  0  0  0
   24.4258    2.8687   32.2621 C   0  0  0  0  0  0  0  0  0  0  0  0
   24.6587    1.7957   33.0928 O   0  0  0  0  0  0  0  0  0  0  0  0
   23.6666    0.7587   33.1164 C   0  0  0  0  0  0  0  0  0  0  0  0
   24.0270   -0.0806   33.7214 H   0  0  0  0  0  0  0  0  0  0  0  0
   23.4672    0.3929   32.1047 H   0  0  0  0  0  0  0  0  0  0  0  0
   22.7320    1.1256   33.5500 H   0  0  0  0  0  0  0  0  0  0  0  0
   25.5028    3.7139   31.9443 C   0  0  0  0  0  0  0  0  0  0  0  0
   27.2602    3.3716   32.6329 Br  0  0  0  0  0  0  0  0  0  0  0  0
   25.3063    4.8088   31.0977 C   0  0  0  0  0  0  0  0  0  0  0  0
   26.1519    5.4394   30.8459 H   0  0  0  0  0  0  0  0  0  0  0  0
   24.0426    5.1041   30.5662 C   0  0  0  0  0  0  0  0  0  0  0  0
   23.8312    6.1944   29.7494 O   0  0  0  0  0  0  0  0  0  0  0  0
   24.9261    7.1096   29.5945 C   0  0  0  0  0  0  0  0  0  0  0  0
   24.6106    7.9632   28.9863 H   0  0  0  0  0  0  0  0  0  0  0  0
   25.7727    6.6208   29.1032 H   0  0  0  0  0  0  0  0  0  0  0  0
   25.2554    7.4772   30.5702 H   0  0  0  0  0  0  0  0  0  0  0  0
   19.9012    8.1482   32.3436 C   0  0  0  0  0  0  0  0  0  0  0  0
   19.3427    7.2772   32.6344 H   0  0  0  0  0  0  0  0  0  0  0  0
   19.5894    9.3762   32.8454 C   0  0  0  0  0  0  0  0  0  0  0  0
   18.5836    9.4812   33.7418 N   0  0  0  0  0  0  0  0  0  0  0  0
   17.9691    8.6766   33.8270 H   0  0  0  0  0  0  0  0  0  0  0  0
   18.1964   10.4136   33.8656 H   0  0  0  0  0  0  0  0  0  0  0  0
   20.3010   10.4749   32.4726 C   0  0  0  0  0  0  0  0  0  0  0  0
   19.9721   11.7804   32.9386 C   0  0  0  0  0  0  0  0  0  0  0  0
   19.7672   12.8825   33.2431 N   0  0  0  0  0  0  0  0  0  0  0  0
   23.4758   13.6537   27.9375 C   0  0  0  0  0  0  0  0  0  0  0  0
   24.0039   12.8881   27.3818 H   0  0  0  0  0  0  0  0  0  0  0  0
   22.9073   14.7272   27.2477 C   0  0  0  0  0  0  0  0  0  0  0  0
   22.9839   14.7860   26.1668 H   0  0  0  0  0  0  0  0  0  0  0  0
  1  2  1  0
  2  3  2  0
  3  4  1  0
  3  5  1  0
  5  6  1  0
  5  7  2  0
  7  8  1  0
  8  9  1  0
  8 10  1  0
  8 11  1  0
 11 12  2  0
 11 13  1  0
 13 14  1  0
 13 15  1  0
 15 16  2  0
 16 17  1  0
 17 18  1  0
 18 19  1  0
 18 20  1  0
 20 21  2  0
 20 22  1  0
 22 23  1  0
 22 24  1  0
 22 25  1  0
 25 26  2  0
 26 27  1  0
 26 28  1  0
 28 29  1  0
 29 30  1  0
 30 31  1  0
 30 32  1  0
 30 33  1  0
 28 34  2  0
 34 35  1  0
 34 36  1  0
 36 37  1  0
 36 38  2  0
 38 39  1  0
 39 40  1  0
 40 41  1  0
 40 42  1  0
 40 43  1  0
 17 44  2  0
 44 45  1  0
 44 46  1  0
 46 47  1  0
 47 48  1  0
 47 49  1  0
 46 50  2  0
 50 51  1  0
 51 52  3  0
  7 53  1  0
 53 54  1  0
 53 55  2  0
 55 56  1  0
 55  2  1  0
 50 15  1  0
 38 25  1  0
M  END
>  <score>  (123) 
7.39693

$$$$

     RDKit          3D

 43 44  0  0  0  0  0  0  0  0999 V2000
   26.1244    5.4927   30.8932 H   0  0  0  0  0  0  0  0  0  0  0  0
   25.3000    4.8288   31.1221 C   0  0  0  0  0  0  0  0  0  0  0  0
   25.5091    3.7240   31.9525 C   0  0  0  0  0  0  0  0  0  0  0  0
   27.2594    3.4219   32.6692 Br  0  0  0  0  0  0  0  0  0  0  0  0
   24.4434    2.8606   32.2531 C   0  0  0  0  0  0  0  0  0  0  0  0
   24.6643    1.7777   33.0696 O   0  0  0  0  0  0  0  0  0  0  0  0
   23.6321    0.7825   33.0911 C   0  0  0  0  0  0  0  0  0  0  0  0
   22.7124    1.1936   33.5160 H   0  0  0  0  0  0  0  0  0  0  0  0
   23.9486   -0.0685   33.7000 H   0  0  0  0  0  0  0  0  0  0  0  0
   23.4254    0.4269   32.0774 H   0  0  0  0  0  0  0  0  0  0  0  0
   23.1785    3.1390   31.7158 C   0  0  0  0  0  0  0  0  0  0  0  0
   22.3484    2.4822   31.9597 H   0  0  0  0  0  0  0  0  0  0  0  0
   22.9769    4.2379   30.8745 C   0  0  0  0  0  0  0  0  0  0  0  0
   21.5936    4.4908   30.3393 C   0  0  0  0  0  0  0  0  0  0  0  0
   21.6296    4.7089   29.2703 H   0  0  0  0  0  0  0  0  0  0  0  0
   20.9605    3.6144   30.4871 H   0  0  0  0  0  0  0  0  0  0  0  0
   20.9622    5.6682   31.0571 C   0  0  0  0  0  0  0  0  0  0  0  0
   19.8276    5.5685   31.4878 O   0  0  0  0  0  0  0  0  0  0  0  0
   21.6130    6.8685   31.1302 N   0  0  0  0  0  0  0  0  0  0  0  0
   22.5180    6.9668   30.6983 H   0  0  0  0  0  0  0  0  0  0  0  0
   21.0621    8.0198   31.5725 C   0  0  0  0  0  0  0  0  0  0  0  0
   21.8287    9.0683   31.3340 N   0  0  0  0  0  0  0  0  0  0  0  0
   21.4401   10.2422   31.8201 C   0  0  0  0  0  0  0  0  0  0  0  0
   22.5036   11.5809   31.5084 S   0  0  0  0  0  0  0  0  0  0  0  0
   21.7428   11.7458   29.8707 C   0  0  0  0  0  0  0  0  0  0  0  0
   20.4965   12.2606   30.0445 F   0  0  0  0  0  0  0  0  0  0  0  0
   21.6815   10.5591   29.2066 F   0  0  0  0  0  0  0  0  0  0  0  0
   22.4944   12.6181   29.1517 F   0  0  0  0  0  0  0  0  0  0  0  0
   20.2504   10.4204   32.4968 C   0  0  0  0  0  0  0  0  0  0  0  0
   19.8050   11.6968   32.9504 C   0  0  0  0  0  0  0  0  0  0  0  0
   19.4142   12.7275   33.3135 N   0  0  0  0  0  0  0  0  0  0  0  0
   19.4806    9.3084   32.6962 C   0  0  0  0  0  0  0  0  0  0  0  0
   18.3467    9.3577   33.4199 N   0  0  0  0  0  0  0  0  0  0  0  0
   17.9315    8.4561   33.6315 H   0  0  0  0  0  0  0  0  0  0  0  0
   18.3527   10.0706   34.1414 H   0  0  0  0  0  0  0  0  0  0  0  0
   19.8769    8.0914   32.2590 C   0  0  0  0  0  0  0  0  0  0  0  0
   19.2917    7.2169   32.4815 H   0  0  0  0  0  0  0  0  0  0  0  0
   24.0395    5.1135   30.5823 C   0  0  0  0  0  0  0  0  0  0  0  0
   23.8153    6.2248   29.7980 O   0  0  0  0  0  0  0  0  0  0  0  0
   24.9368    7.0993   29.6123 C   0  0  0  0  0  0  0  0  0  0  0  0
   25.7510    6.5687   29.1120 H   0  0  0  0  0  0  0  0  0  0  0  0
   25.2982    7.4673   30.5765 H   0  0  0  0  0  0  0  0  0  0  0  0
   24.6483    7.9555   28.9988 H   0  0  0  0  0  0  0  0  0  0  0  0
  1  2  1  0
  2  3  2  0
  3  4  1  0
  3  5  1  0
  5  6  1  0
  6  7  1  0
  7  8  1  0
  7  9  1  0
  7 10  1  0
  5 11  2  0
 11 12  1  0
 11 13  1  0
 13 14  1  0
 14 15  1  0
 14 16  1  0
 14 17  1  0
 17 18  2  0
 17 19  1  0
 19 20  1  0
 19 21  1  0
 21 22  2  0
 22 23  1  0
 23 24  1  0
 24 25  1  0
 25 26  1  0
 25 27  1  0
 25 28  1  0
 23 29  2  0
 29 30  1  0
 30 31  3  0
 29 32  1  0
 32 33  1  0
 33 34  1  0
 33 35  1  0
 32 36  2  0
 36 37  1  0
 13 38  2  0
 38 39  1  0
 39 40  1  0
 40 41  1  0
 40 42  1  0
 40 43  1  0
 38  2  1  0
 36 21  1  0
M  END
>  <score>  (124) 
7.40018

$$$$

     RDKit          3D

 52 54  0  0  0  0  0  0  0  0999 V2000
   20.8621   12.7314   27.3412 H   0  0  0  0  0  0  0  0  0  0  0  0
   21.3617   11.8549   27.7444 C   0  0  0  0  0  0  0  0  0  0  0  0
   21.2460   10.6578   27.1212 N   0  0  0  0  0  0  0  0  0  0  0  0
   21.8313    9.5867   27.6744 C   0  0  0  0  0  0  0  0  0  0  0  0
   21.7193    8.6206   27.1848 H   0  0  0  0  0  0  0  0  0  0  0  0
   22.5635    9.6819   28.8599 C   0  0  0  0  0  0  0  0  0  0  0  0
   22.9901    8.7878   29.2909 H   0  0  0  0  0  0  0  0  0  0  0  0
   22.6984   10.9158   29.4999 C   0  0  0  0  0  0  0  0  0  0  0  0
   23.4060   11.0727   30.8161 C   0  0  0  0  0  0  0  0  0  0  0  0
   24.0751   11.9401   30.7665 H   0  0  0  0  0  0  0  0  0  0  0  0
   24.0153   10.1915   31.0426 H   0  0  0  0  0  0  0  0  0  0  0  0
   22.4039   11.2709   31.8282 O   0  0  0  0  0  0  0  0  0  0  0  0
   21.5483   10.2186   32.0203 C   0  0  0  0  0  0  0  0  0  0  0  0
   21.9081    9.0181   31.5666 N   0  0  0  0  0  0  0  0  0  0  0  0
   21.1056    8.0111   31.7811 C   0  0  0  0  0  0  0  0  0  0  0  0
   21.6039    6.8860   31.2396 N   0  0  0  0  0  0  0  0  0  0  0  0
   22.5064    6.9898   30.7971 H   0  0  0  0  0  0  0  0  0  0  0  0
   20.9208    5.7128   31.1028 C   0  0  0  0  0  0  0  0  0  0  0  0
   19.7703    5.6250   31.5058 O   0  0  0  0  0  0  0  0  0  0  0  0
   21.5636    4.5413   30.3652 C   0  0  0  0  0  0  0  0  0  0  0  0
   20.9383    3.6520   30.4840 H   0  0  0  0  0  0  0  0  0  0  0  0
   21.6174    4.7672   29.2963 H   0  0  0  0  0  0  0  0  0  0  0  0
   22.9546    4.2719   30.8954 C   0  0  0  0  0  0  0  0  0  0  0  0
   23.1628    3.1602   31.7245 C   0  0  0  0  0  0  0  0  0  0  0  0
   22.3351    2.5028   31.9719 H   0  0  0  0  0  0  0  0  0  0  0  0
   24.4315    2.8704   32.2561 C   0  0  0  0  0  0  0  0  0  0  0  0
   24.6670    1.7825   33.0644 O   0  0  0  0  0  0  0  0  0  0  0  0
   23.6420    0.7798   33.0927 C   0  0  0  0  0  0  0  0  0  0  0  0
   22.7196    1.1816   33.5241 H   0  0  0  0  0  0  0  0  0  0  0  0
   23.4308    0.4146   32.0816 H   0  0  0  0  0  0  0  0  0  0  0  0
   23.9725   -0.0655   33.7035 H   0  0  0  0  0  0  0  0  0  0  0  0
   25.5011    3.7259   31.9519 C   0  0  0  0  0  0  0  0  0  0  0  0
   27.2543    3.4075   32.6541 Br  0  0  0  0  0  0  0  0  0  0  0  0
   25.2979    4.8330   31.1231 C   0  0  0  0  0  0  0  0  0  0  0  0
   26.1335    5.4806   30.8790 H   0  0  0  0  0  0  0  0  0  0  0  0
   24.0323    5.1292   30.5926 C   0  0  0  0  0  0  0  0  0  0  0  0
   23.8149    6.2399   29.8052 O   0  0  0  0  0  0  0  0  0  0  0  0
   24.9469    7.1027   29.6110 C   0  0  0  0  0  0  0  0  0  0  0  0
   25.2982    7.4911   30.5735 H   0  0  0  0  0  0  0  0  0  0  0  0
   25.7682    6.5605   29.1294 H   0  0  0  0  0  0  0  0  0  0  0  0
   24.6720    7.9479   28.9736 H   0  0  0  0  0  0  0  0  0  0  0  0
   19.9279    8.1110   32.4597 C   0  0  0  0  0  0  0  0  0  0  0  0
   19.2932    7.2612   32.6375 H   0  0  0  0  0  0  0  0  0  0  0  0
   19.5513    9.3463   32.8639 C   0  0  0  0  0  0  0  0  0  0  0  0
   18.3392    9.4498   33.4405 N   0  0  0  0  0  0  0  0  0  0  0  0
   17.9645    8.5887   33.8331 H   0  0  0  0  0  0  0  0  0  0  0  0
   18.1369   10.3255   33.9119 H   0  0  0  0  0  0  0  0  0  0  0  0
   20.3491   10.4348   32.6626 C   0  0  0  0  0  0  0  0  0  0  0  0
   19.9463   11.7511   33.0347 C   0  0  0  0  0  0  0  0  0  0  0  0
   19.6397   12.8407   33.2964 N   0  0  0  0  0  0  0  0  0  0  0  0
   22.0697   12.0098   28.9214 C   0  0  0  0  0  0  0  0  0  0  0  0
   22.1081   12.9843   29.3880 H   0  0  0  0  0  0  0  0  0  0  0  0
  1  2  1  0
  2  3  2  0
  3  4  1  0
  4  5  1  0
  4  6  2  0
  6  7  1  0
  6  8  1  0
  8  9  1  0
  9 10  1  0
  9 11  1  0
  9 12  1  0
 12 13  1  0
 13 14  2  0
 14 15  1  0
 15 16  1  0
 16 17  1  0
 16 18  1  0
 18 19  2  0
 18 20  1  0
 20 21  1  0
 20 22  1  0
 20 23  1  0
 23 24  2  0
 24 25  1  0
 24 26  1  0
 26 27  1  0
 27 28  1  0
 28 29  1  0
 28 30  1  0
 28 31  1  0
 26 32  2  0
 32 33  1  0
 32 34  1  0
 34 35  1  0
 34 36  2  0
 36 37  1  0
 37 38  1  0
 38 39  1  0
 38 40  1  0
 38 41  1  0
 15 42  2  0
 42 43  1  0
 42 44  1  0
 44 45  1  0
 45 46  1  0
 45 47  1  0
 44 48  2  0
 48 49  1  0
 49 50  3  0
  8 51  2  0
 51 52  1  0
 51  2  1  0
 48 13  1  0
 36 23  1  0
M  END
>  <score>  (125) 
7.40529

$$$$

     RDKit          3D

 44 45  0  0  0  0  0  0  0  0999 V2000
   26.1892    5.4123   30.8459 H   0  0  0  0  0  0  0  0  0  0  0  0
   25.3441    4.7800   31.1008 C   0  0  0  0  0  0  0  0  0  0  0  0
   25.5237    3.6741   31.9461 C   0  0  0  0  0  0  0  0  0  0  0  0
   27.2724    3.3032   32.6352 Br  0  0  0  0  0  0  0  0  0  0  0  0
   24.4392    2.8428   32.2731 C   0  0  0  0  0  0  0  0  0  0  0  0
   24.6635    1.7823   33.1237 O   0  0  0  0  0  0  0  0  0  0  0  0
   23.6897    0.7320   33.1420 C   0  0  0  0  0  0  0  0  0  0  0  0
   24.0705   -0.0964   33.7439 H   0  0  0  0  0  0  0  0  0  0  0  0
   22.7514    1.0737   33.5856 H   0  0  0  0  0  0  0  0  0  0  0  0
   23.4985    0.3607   32.1313 H   0  0  0  0  0  0  0  0  0  0  0  0
   23.1783    3.1431   31.7304 C   0  0  0  0  0  0  0  0  0  0  0  0
   22.3437    2.4973   31.9807 H   0  0  0  0  0  0  0  0  0  0  0  0
   22.9922    4.2481   30.8820 C   0  0  0  0  0  0  0  0  0  0  0  0
   21.6126    4.5373   30.3313 C   0  0  0  0  0  0  0  0  0  0  0  0
   21.0112    3.6241   30.3150 H   0  0  0  0  0  0  0  0  0  0  0  0
   21.7144    4.8801   29.3004 H   0  0  0  0  0  0  0  0  0  0  0  0
   20.8977    5.6278   31.1283 C   0  0  0  0  0  0  0  0  0  0  0  0
   19.7106    5.5321   31.3850 O   0  0  0  0  0  0  0  0  0  0  0  0
   21.5539    6.7981   31.3747 N   0  0  0  0  0  0  0  0  0  0  0  0
   22.4544    6.9257   30.9389 H   0  0  0  0  0  0  0  0  0  0  0  0
   20.9736    7.9573   31.7373 C   0  0  0  0  0  0  0  0  0  0  0  0
   21.7319    8.9704   31.3556 N   0  0  0  0  0  0  0  0  0  0  0  0
   21.4227   10.2381   31.7097 C   0  0  0  0  0  0  0  0  0  0  0  0
   22.3259   11.3624   31.2514 C   0  0  0  0  0  0  0  0  0  0  0  0
   22.3354   12.4683   31.7987 O   0  0  0  0  0  0  0  0  0  0  0  0
   23.2403   11.1832   30.0388 C   0  0  0  0  0  0  0  0  0  0  0  0
   23.6281   12.1488   29.7057 H   0  0  0  0  0  0  0  0  0  0  0  0
   24.0821   10.5307   30.2852 H   0  0  0  0  0  0  0  0  0  0  0  0
   22.6706   10.7367   29.2199 H   0  0  0  0  0  0  0  0  0  0  0  0
   20.2831   10.4621   32.4978 C   0  0  0  0  0  0  0  0  0  0  0  0
   19.9331   11.7865   32.9160 C   0  0  0  0  0  0  0  0  0  0  0  0
   19.6669   12.8785   33.2191 N   0  0  0  0  0  0  0  0  0  0  0  0
   19.5130    9.3662   32.8586 C   0  0  0  0  0  0  0  0  0  0  0  0
   18.4310    9.4870   33.6606 N   0  0  0  0  0  0  0  0  0  0  0  0
   17.8963    8.6606   33.9128 H   0  0  0  0  0  0  0  0  0  0  0  0
   18.1337   10.4077   33.9612 H   0  0  0  0  0  0  0  0  0  0  0  0
   19.8314    8.0996   32.4686 C   0  0  0  0  0  0  0  0  0  0  0  0
   19.2228    7.2604   32.7721 H   0  0  0  0  0  0  0  0  0  0  0  0
   24.0829    5.0870   30.5677 C   0  0  0  0  0  0  0  0  0  0  0  0
   23.8623    6.1788   29.7547 O   0  0  0  0  0  0  0  0  0  0  0  0
   24.9320    7.1191   29.5868 C   0  0  0  0  0  0  0  0  0  0  0  0
   25.2635    7.5047   30.5542 H   0  0  0  0  0  0  0  0  0  0  0  0
   25.7797    6.6608   29.0712 H   0  0  0  0  0  0  0  0  0  0  0  0
   24.5823    7.9619   28.9853 H   0  0  0  0  0  0  0  0  0  0  0  0
  1  2  1  0
  2  3  2  0
  3  4  1  0
  3  5  1  0
  5  6  1  0
  6  7  1  0
  7  8  1  0
  7  9  1  0
  7 10  1  0
  5 11  2  0
 11 12  1  0
 11 13  1  0
 13 14  1  0
 14 15  1  0
 14 16  1  0
 14 17  1  0
 17 18  2  0
 17 19  1  0
 19 20  1  0
 19 21  1  0
 21 22  2  0
 22 23  1  0
 23 24  1  0
 24 25  2  0
 24 26  1  0
 26 27  1  0
 26 28  1  0
 26 29  1  0
 23 30  2  0
 30 31  1  0
 31 32  3  0
 30 33  1  0
 33 34  1  0
 34 35  1  0
 34 36  1  0
 33 37  2  0
 37 38  1  0
 13 39  2  0
 39 40  1  0
 40 41  1  0
 41 42  1  0
 41 43  1  0
 41 44  1  0
 39  2  1  0
 37 21  1  0
M  END
>  <score>  (126) 
7.40902

$$$$

     RDKit          3D

 54 56  0  0  0  0  0  0  0  0999 V2000
   26.0923    5.5348   30.9424 H   0  0  0  0  0  0  0  0  0  0  0  0
   25.2679    4.8640   31.1585 C   0  0  0  0  0  0  0  0  0  0  0  0
   25.4855    3.7464   31.9728 C   0  0  0  0  0  0  0  0  0  0  0  0
   27.2300    3.4431   32.7034 Br  0  0  0  0  0  0  0  0  0  0  0  0
   24.4295    2.8618   32.2442 C   0  0  0  0  0  0  0  0  0  0  0  0
   24.6536    1.7601   33.0379 O   0  0  0  0  0  0  0  0  0  0  0  0
   23.6015    0.7826   33.0805 C   0  0  0  0  0  0  0  0  0  0  0  0
   22.6906    1.2137   33.5082 H   0  0  0  0  0  0  0  0  0  0  0  0
   23.3785    0.4160   32.0729 H   0  0  0  0  0  0  0  0  0  0  0  0
   23.9064   -0.0678   33.6982 H   0  0  0  0  0  0  0  0  0  0  0  0
   23.1670    3.1349   31.6995 C   0  0  0  0  0  0  0  0  0  0  0  0
   22.3519    2.4471   31.9024 H   0  0  0  0  0  0  0  0  0  0  0  0
   22.9386    4.2615   30.9036 C   0  0  0  0  0  0  0  0  0  0  0  0
   21.5307    4.4935   30.4021 C   0  0  0  0  0  0  0  0  0  0  0  0
   21.5611    4.7856   29.3527 H   0  0  0  0  0  0  0  0  0  0  0  0
   20.9521    3.5681   30.4857 H   0  0  0  0  0  0  0  0  0  0  0  0
   20.8241    5.5924   31.1814 C   0  0  0  0  0  0  0  0  0  0  0  0
   19.6727    5.4606   31.5553 O   0  0  0  0  0  0  0  0  0  0  0  0
   21.4673    6.7814   31.3621 N   0  0  0  0  0  0  0  0  0  0  0  0
   22.3620    6.9099   30.9216 H   0  0  0  0  0  0  0  0  0  0  0  0
   20.9354    7.8888   31.9124 C   0  0  0  0  0  0  0  0  0  0  0  0
   21.7012    8.9328   31.6896 N   0  0  0  0  0  0  0  0  0  0  0  0
   21.3109   10.1863   32.0314 C   0  0  0  0  0  0  0  0  0  0  0  0
   22.1951   11.3447   31.5664 C   0  0  0  0  0  0  0  0  0  0  0  0
   22.2023   12.4516   32.1181 O   0  0  0  0  0  0  0  0  0  0  0  0
   23.0244   11.1694   30.4501 N   0  0  0  0  0  0  0  0  0  0  0  0
   24.2538   11.9286   30.1939 C   0  0  0  0  0  0  0  0  0  0  0  0
   24.2787   12.8532   30.7764 H   0  0  0  0  0  0  0  0  0  0  0  0
   25.1000   11.3085   30.5043 H   0  0  0  0  0  0  0  0  0  0  0  0
   24.4415   12.2609   28.7007 C   0  0  0  0  0  0  0  0  0  0  0  0
   23.8025   13.1027   28.4152 H   0  0  0  0  0  0  0  0  0  0  0  0
   25.4792   12.5610   28.5346 H   0  0  0  0  0  0  0  0  0  0  0  0
   24.1562   11.1246   27.8682 O   0  0  0  0  0  0  0  0  0  0  0  0
   22.8394   10.5989   28.1098 C   0  0  0  0  0  0  0  0  0  0  0  0
   22.6149    9.8009   27.3967 H   0  0  0  0  0  0  0  0  0  0  0  0
   22.0808   11.3846   27.9930 H   0  0  0  0  0  0  0  0  0  0  0  0
   22.7548   10.0608   29.5337 C   0  0  0  0  0  0  0  0  0  0  0  0
   21.7501    9.6541   29.6861 H   0  0  0  0  0  0  0  0  0  0  0  0
   23.4780    9.2538   29.6919 H   0  0  0  0  0  0  0  0  0  0  0  0
   20.1083   10.3439   32.7477 C   0  0  0  0  0  0  0  0  0  0  0  0
   19.6709   11.6253   33.2038 C   0  0  0  0  0  0  0  0  0  0  0  0
   19.3439   12.6706   33.5954 N   0  0  0  0  0  0  0  0  0  0  0  0
   19.3468    9.2094   32.9889 C   0  0  0  0  0  0  0  0  0  0  0  0
   18.1558    9.2343   33.6281 N   0  0  0  0  0  0  0  0  0  0  0  0
   17.8791   10.1012   34.0802 H   0  0  0  0  0  0  0  0  0  0  0  0
   17.8724    8.3470   34.0475 H   0  0  0  0  0  0  0  0  0  0  0  0
   19.7386    7.9780   32.5540 C   0  0  0  0  0  0  0  0  0  0  0  0
   19.1115    7.1174   32.7008 H   0  0  0  0  0  0  0  0  0  0  0  0
   24.0028    5.1457   30.6154 C   0  0  0  0  0  0  0  0  0  0  0  0
   23.7829    6.2575   29.8275 O   0  0  0  0  0  0  0  0  0  0  0  0
   24.9167    7.1131   29.6013 C   0  0  0  0  0  0  0  0  0  0  0  0
   24.6340    7.9567   28.9657 H   0  0  0  0  0  0  0  0  0  0  0  0
   25.2956    7.5060   30.5505 H   0  0  0  0  0  0  0  0  0  0  0  0
   25.7216    6.5639   29.1026 H   0  0  0  0  0  0  0  0  0  0  0  0
  1  2  1  0
  2  3  2  0
  3  4  1  0
  3  5  1  0
  5  6  1  0
  6  7  1  0
  7  8  1  0
  7  9  1  0
  7 10  1  0
  5 11  2  0
 11 12  1  0
 11 13  1  0
 13 14  1  0
 14 15  1  0
 14 16  1  0
 14 17  1  0
 17 18  2  0
 17 19  1  0
 19 20  1  0
 19 21  1  0
 21 22  2  0
 22 23  1  0
 23 24  1  0
 24 25  2  0
 24 26  1  0
 26 27  1  0
 27 28  1  0
 27 29  1  0
 27 30  1  0
 30 31  1  0
 30 32  1  0
 30 33  1  0
 33 34  1  0
 34 35  1  0
 34 36  1  0
 34 37  1  0
 37 38  1  0
 37 39  1  0
 23 40  2  0
 40 41  1  0
 41 42  3  0
 40 43  1  0
 43 44  1  0
 44 45  1  0
 44 46  1  0
 43 47  2  0
 47 48  1  0
 13 49  2  0
 49 50  1  0
 50 51  1  0
 51 52  1  0
 51 53  1  0
 51 54  1  0
 49  2  1  0
 47 21  1  0
 37 26  1  0
M  END
>  <score>  (127) 
7.40956

$$$$

     RDKit          3D

 54 55  0  0  0  0  0  0  0  0999 V2000
   26.1601    5.4273   30.8390 H   0  0  0  0  0  0  0  0  0  0  0  0
   25.3199    4.7928   31.0998 C   0  0  0  0  0  0  0  0  0  0  0  0
   25.5070    3.6884   31.9405 C   0  0  0  0  0  0  0  0  0  0  0  0
   27.2598    3.3383   32.6310 Br  0  0  0  0  0  0  0  0  0  0  0  0
   24.4262    2.8566   32.2668 C   0  0  0  0  0  0  0  0  0  0  0  0
   24.6626    1.7922   33.1073 O   0  0  0  0  0  0  0  0  0  0  0  0
   23.6802    0.7483   33.1291 C   0  0  0  0  0  0  0  0  0  0  0  0
   22.7424    1.0992   33.5711 H   0  0  0  0  0  0  0  0  0  0  0  0
   23.4858    0.3768   32.1172 H   0  0  0  0  0  0  0  0  0  0  0  0
   24.0483   -0.0869   33.7324 H   0  0  0  0  0  0  0  0  0  0  0  0
   23.1617    3.1540   31.7288 C   0  0  0  0  0  0  0  0  0  0  0  0
   22.3360    2.4961   31.9767 H   0  0  0  0  0  0  0  0  0  0  0  0
   22.9703    4.2625   30.8842 C   0  0  0  0  0  0  0  0  0  0  0  0
   21.5944    4.5416   30.3117 C   0  0  0  0  0  0  0  0  0  0  0  0
   20.9659    3.6468   30.3494 H   0  0  0  0  0  0  0  0  0  0  0  0
   21.6975    4.8413   29.2630 H   0  0  0  0  0  0  0  0  0  0  0  0
   20.8960    5.6628   31.0642 C   0  0  0  0  0  0  0  0  0  0  0  0
   19.8485    5.4719   31.6587 O   0  0  0  0  0  0  0  0  0  0  0  0
   21.4318    6.9078   30.9961 N   0  0  0  0  0  0  0  0  0  0  0  0
   22.3005    7.0417   30.4960 H   0  0  0  0  0  0  0  0  0  0  0  0
   20.9423    8.0183   31.5698 C   0  0  0  0  0  0  0  0  0  0  0  0
   21.6878    9.0334   31.2047 N   0  0  0  0  0  0  0  0  0  0  0  0
   21.3797   10.2455   31.6506 C   0  0  0  0  0  0  0  0  0  0  0  0
   22.2595   11.3752   31.2014 C   0  0  0  0  0  0  0  0  0  0  0  0
   23.2713   10.9980   31.0299 H   0  0  0  0  0  0  0  0  0  0  0  0
   22.3082   12.1256   31.9929 H   0  0  0  0  0  0  0  0  0  0  0  0
   21.7139   12.0144   29.9216 C   0  0  0  0  0  0  0  0  0  0  0  0
   21.7248   11.2880   29.1043 H   0  0  0  0  0  0  0  0  0  0  0  0
   20.6712   12.3091   30.0753 H   0  0  0  0  0  0  0  0  0  0  0  0
   22.5195   13.2504   29.5099 C   0  0  0  0  0  0  0  0  0  0  0  0
   22.5916   13.9427   30.3527 H   0  0  0  0  0  0  0  0  0  0  0  0
   21.7819   13.9379   28.3716 C   0  0  0  0  0  0  0  0  0  0  0  0
   21.6895   13.2588   27.5205 H   0  0  0  0  0  0  0  0  0  0  0  0
   22.3158   14.8349   28.0447 H   0  0  0  0  0  0  0  0  0  0  0  0
   20.7776   14.2289   28.6906 H   0  0  0  0  0  0  0  0  0  0  0  0
   23.9277   12.8974   29.0306 C   0  0  0  0  0  0  0  0  0  0  0  0
   24.5296   12.5004   29.8498 H   0  0  0  0  0  0  0  0  0  0  0  0
   23.8830   12.1506   28.2340 H   0  0  0  0  0  0  0  0  0  0  0  0
   24.4309   13.7865   28.6387 H   0  0  0  0  0  0  0  0  0  0  0  0
   20.2971   10.4600   32.4848 C   0  0  0  0  0  0  0  0  0  0  0  0
   19.9655   11.7808   32.9035 C   0  0  0  0  0  0  0  0  0  0  0  0
   19.6961   12.8709   33.2101 N   0  0  0  0  0  0  0  0  0  0  0  0
   19.5527    9.3624   32.8595 C   0  0  0  0  0  0  0  0  0  0  0  0
   18.4991    9.4747   33.7051 N   0  0  0  0  0  0  0  0  0  0  0  0
   17.9179    8.6579   33.8990 H   0  0  0  0  0  0  0  0  0  0  0  0
   18.1623   10.4086   33.9242 H   0  0  0  0  0  0  0  0  0  0  0  0
   19.8653    8.1171   32.4077 C   0  0  0  0  0  0  0  0  0  0  0  0
   19.2780    7.2677   32.7099 H   0  0  0  0  0  0  0  0  0  0  0  0
   24.0588    5.0994   30.5674 C   0  0  0  0  0  0  0  0  0  0  0  0
   23.8432    6.1821   29.7403 O   0  0  0  0  0  0  0  0  0  0  0  0
   24.9298    7.1083   29.5897 C   0  0  0  0  0  0  0  0  0  0  0  0
   25.7799    6.6411   29.0797 H   0  0  0  0  0  0  0  0  0  0  0  0
   24.6036    7.9620   28.9903 H   0  0  0  0  0  0  0  0  0  0  0  0
   25.2576    7.4833   30.5660 H   0  0  0  0  0  0  0  0  0  0  0  0
  1  2  1  0
  2  3  2  0
  3  4  1  0
  3  5  1  0
  5  6  1  0
  6  7  1  0
  7  8  1  0
  7  9  1  0
  7 10  1  0
  5 11  2  0
 11 12  1  0
 11 13  1  0
 13 14  1  0
 14 15  1  0
 14 16  1  0
 14 17  1  0
 17 18  2  0
 17 19  1  0
 19 20  1  0
 19 21  1  0
 21 22  2  0
 22 23  1  0
 23 24  1  0
 24 25  1  0
 24 26  1  0
 24 27  1  0
 27 28  1  0
 27 29  1  0
 27 30  1  0
 30 31  1  0
 30 32  1  0
 32 33  1  0
 32 34  1  0
 32 35  1  0
 30 36  1  0
 36 37  1  0
 36 38  1  0
 36 39  1  0
 23 40  2  0
 40 41  1  0
 41 42  3  0
 40 43  1  0
 43 44  1  0
 44 45  1  0
 44 46  1  0
 43 47  2  0
 47 48  1  0
 13 49  2  0
 49 50  1  0
 50 51  1  0
 51 52  1  0
 51 53  1  0
 51 54  1  0
 49  2  1  0
 47 21  1  0
M  END
>  <score>  (128) 
7.41122

$$$$

     RDKit          3D

 54 55  0  0  0  0  0  0  0  0999 V2000
   26.1893    5.4124   30.8444 H   0  0  0  0  0  0  0  0  0  0  0  0
   25.3447    4.7800   31.0998 C   0  0  0  0  0  0  0  0  0  0  0  0
   25.5244    3.6749   31.9458 C   0  0  0  0  0  0  0  0  0  0  0  0
   27.2723    3.3000   32.6358 Br  0  0  0  0  0  0  0  0  0  0  0  0
   24.4395    2.8438   32.2729 C   0  0  0  0  0  0  0  0  0  0  0  0
   24.6627    1.7830   33.1235 O   0  0  0  0  0  0  0  0  0  0  0  0
   23.6899    0.7312   33.1426 C   0  0  0  0  0  0  0  0  0  0  0  0
   23.4982    0.3601   32.1315 H   0  0  0  0  0  0  0  0  0  0  0  0
   24.0724   -0.0975   33.7449 H   0  0  0  0  0  0  0  0  0  0  0  0
   22.7505    1.0727   33.5857 H   0  0  0  0  0  0  0  0  0  0  0  0
   23.1777    3.1435   31.7315 C   0  0  0  0  0  0  0  0  0  0  0  0
   22.3425    2.4978   31.9813 H   0  0  0  0  0  0  0  0  0  0  0  0
   22.9920    4.2502   30.8844 C   0  0  0  0  0  0  0  0  0  0  0  0
   21.6137    4.5469   30.3337 C   0  0  0  0  0  0  0  0  0  0  0  0
   21.7189    4.8838   29.3003 H   0  0  0  0  0  0  0  0  0  0  0  0
   21.0086    3.6357   30.3202 H   0  0  0  0  0  0  0  0  0  0  0  0
   20.9096    5.6485   31.1296 C   0  0  0  0  0  0  0  0  0  0  0  0
   19.7205    5.5649   31.3900 O   0  0  0  0  0  0  0  0  0  0  0  0
   21.5798    6.8113   31.3798 N   0  0  0  0  0  0  0  0  0  0  0  0
   22.4725    6.9413   30.9305 H   0  0  0  0  0  0  0  0  0  0  0  0
   21.0011    7.9767   31.7322 C   0  0  0  0  0  0  0  0  0  0  0  0
   21.7497    8.9896   31.3435 N   0  0  0  0  0  0  0  0  0  0  0  0
   21.3863   10.2314   31.6853 C   0  0  0  0  0  0  0  0  0  0  0  0
   22.2602   11.3691   31.2124 C   0  0  0  0  0  0  0  0  0  0  0  0
   23.2632   10.9758   31.0281 H   0  0  0  0  0  0  0  0  0  0  0  0
   22.3311   12.1265   31.9997 H   0  0  0  0  0  0  0  0  0  0  0  0
   21.7186   12.0234   29.9318 C   0  0  0  0  0  0  0  0  0  0  0  0
   20.7142   12.4192   30.1197 H   0  0  0  0  0  0  0  0  0  0  0  0
   21.6412   11.2698   29.1400 H   0  0  0  0  0  0  0  0  0  0  0  0
   22.6333   13.1621   29.4602 C   0  0  0  0  0  0  0  0  0  0  0  0
   22.7306   13.9168   30.2461 H   0  0  0  0  0  0  0  0  0  0  0  0
   23.6322   12.7730   29.2397 H   0  0  0  0  0  0  0  0  0  0  0  0
   22.0370   13.8102   28.2146 C   0  0  0  0  0  0  0  0  0  0  0  0
   21.8738   13.0482   27.4527 H   0  0  0  0  0  0  0  0  0  0  0  0
   21.0584   14.2215   28.4736 H   0  0  0  0  0  0  0  0  0  0  0  0
   22.9454   14.9163   27.6653 C   0  0  0  0  0  0  0  0  0  0  0  0
   23.0421   15.7227   28.3953 H   0  0  0  0  0  0  0  0  0  0  0  0
   22.5394   15.3404   26.7438 H   0  0  0  0  0  0  0  0  0  0  0  0
   23.9417   14.5271   27.4435 H   0  0  0  0  0  0  0  0  0  0  0  0
   20.2707   10.4698   32.4730 C   0  0  0  0  0  0  0  0  0  0  0  0
   19.9427   11.7980   32.8872 C   0  0  0  0  0  0  0  0  0  0  0  0
   19.7088   12.8975   33.1906 N   0  0  0  0  0  0  0  0  0  0  0  0
   19.5233    9.3764   32.8415 C   0  0  0  0  0  0  0  0  0  0  0  0
   18.4601    9.4974   33.6577 N   0  0  0  0  0  0  0  0  0  0  0  0
   17.9256    8.6677   33.8929 H   0  0  0  0  0  0  0  0  0  0  0  0
   18.1517   10.4197   33.9451 H   0  0  0  0  0  0  0  0  0  0  0  0
   19.8502    8.1117   32.4547 C   0  0  0  0  0  0  0  0  0  0  0  0
   19.2439    7.2714   32.7595 H   0  0  0  0  0  0  0  0  0  0  0  0
   24.0833    5.0871   30.5681 C   0  0  0  0  0  0  0  0  0  0  0  0
   23.8640    6.1776   29.7527 O   0  0  0  0  0  0  0  0  0  0  0  0
   24.9321    7.1200   29.5857 C   0  0  0  0  0  0  0  0  0  0  0  0
   25.7815    6.6628   29.0709 H   0  0  0  0  0  0  0  0  0  0  0  0
   25.2640    7.5043   30.5540 H   0  0  0  0  0  0  0  0  0  0  0  0
   24.5803    7.9635   28.9845 H   0  0  0  0  0  0  0  0  0  0  0  0
  1  2  1  0
  2  3  2  0
  3  4  1  0
  3  5  1  0
  5  6  1  0
  6  7  1  0
  7  8  1  0
  7  9  1  0
  7 10  1  0
  5 11  2  0
 11 12  1  0
 11 13  1  0
 13 14  1  0
 14 15  1  0
 14 16  1  0
 14 17  1  0
 17 18  2  0
 17 19  1  0
 19 20  1  0
 19 21  1  0
 21 22  2  0
 22 23  1  0
 23 24  1  0
 24 25  1  0
 24 26  1  0
 24 27  1  0
 27 28  1  0
 27 29  1  0
 27 30  1  0
 30 31  1  0
 30 32  1  0
 30 33  1  0
 33 34  1  0
 33 35  1  0
 33 36  1  0
 36 37  1  0
 36 38  1  0
 36 39  1  0
 23 40  2  0
 40 41  1  0
 41 42  3  0
 40 43  1  0
 43 44  1  0
 44 45  1  0
 44 46  1  0
 43 47  2  0
 47 48  1  0
 13 49  2  0
 49 50  1  0
 50 51  1  0
 51 52  1  0
 51 53  1  0
 51 54  1  0
 49  2  1  0
 47 21  1  0
M  END
>  <score>  (129) 
7.41123

$$$$

     RDKit          3D

 43 44  0  0  0  0  0  0  0  0999 V2000
   22.9805   12.8370   30.5797 H   0  0  0  0  0  0  0  0  0  0  0  0
   21.9824   12.5627   30.9159 C   0  0  0  0  0  0  0  0  0  0  0  0
   21.9534   13.6126   30.6368 H   0  0  0  0  0  0  0  0  0  0  0  0
   22.3213   11.2490   31.1854 C   0  0  0  0  0  0  0  0  0  0  0  0
   23.3275   10.8850   31.0014 H   0  0  0  0  0  0  0  0  0  0  0  0
   21.4010   10.2246   31.6766 C   0  0  0  0  0  0  0  0  0  0  0  0
   21.7779    8.9826   31.3774 N   0  0  0  0  0  0  0  0  0  0  0  0
   21.0294    7.9778   31.7549 C   0  0  0  0  0  0  0  0  0  0  0  0
   21.6048    6.8155   31.3789 N   0  0  0  0  0  0  0  0  0  0  0  0
   22.4794    6.9402   30.8872 H   0  0  0  0  0  0  0  0  0  0  0  0
   20.9222    5.6584   31.1390 C   0  0  0  0  0  0  0  0  0  0  0  0
   19.7309    5.5778   31.3936 O   0  0  0  0  0  0  0  0  0  0  0  0
   21.6088    4.5520   30.3483 C   0  0  0  0  0  0  0  0  0  0  0  0
   20.9960    3.6472   30.3491 H   0  0  0  0  0  0  0  0  0  0  0  0
   21.6976    4.8915   29.3162 H   0  0  0  0  0  0  0  0  0  0  0  0
   22.9873    4.2531   30.8901 C   0  0  0  0  0  0  0  0  0  0  0  0
   23.1749    3.1444   31.7325 C   0  0  0  0  0  0  0  0  0  0  0  0
   22.3397    2.4980   31.9828 H   0  0  0  0  0  0  0  0  0  0  0  0
   24.4392    2.8491   32.2711 C   0  0  0  0  0  0  0  0  0  0  0  0
   24.6678    1.7861   33.1168 O   0  0  0  0  0  0  0  0  0  0  0  0
   23.6864    0.7402   33.1364 C   0  0  0  0  0  0  0  0  0  0  0  0
   22.7464    1.0873   33.5761 H   0  0  0  0  0  0  0  0  0  0  0  0
   23.4904    0.3694   32.1252 H   0  0  0  0  0  0  0  0  0  0  0  0
   24.0575   -0.0950   33.7384 H   0  0  0  0  0  0  0  0  0  0  0  0
   25.5224    3.6801   31.9452 C   0  0  0  0  0  0  0  0  0  0  0  0
   27.2726    3.3177   32.6368 Br  0  0  0  0  0  0  0  0  0  0  0  0
   25.3375    4.7843   31.1015 C   0  0  0  0  0  0  0  0  0  0  0  0
   26.1805    5.4168   30.8450 H   0  0  0  0  0  0  0  0  0  0  0  0
   24.0750    5.0900   30.5701 C   0  0  0  0  0  0  0  0  0  0  0  0
   23.8524    6.1801   29.7527 O   0  0  0  0  0  0  0  0  0  0  0  0
   24.9311    7.1134   29.5896 C   0  0  0  0  0  0  0  0  0  0  0  0
   25.2666    7.4961   30.5592 H   0  0  0  0  0  0  0  0  0  0  0  0
   24.5920    7.9614   28.9878 H   0  0  0  0  0  0  0  0  0  0  0  0
   25.7815    6.6512   29.0776 H   0  0  0  0  0  0  0  0  0  0  0  0
   19.8683    8.1365   32.4561 C   0  0  0  0  0  0  0  0  0  0  0  0
   19.2669    7.2964   32.7459 H   0  0  0  0  0  0  0  0  0  0  0  0
   19.5187    9.4002   32.8240 C   0  0  0  0  0  0  0  0  0  0  0  0
   18.4495    9.5098   33.6363 N   0  0  0  0  0  0  0  0  0  0  0  0
   17.9338    8.6682   33.8880 H   0  0  0  0  0  0  0  0  0  0  0  0
   18.1463   10.4321   33.9359 H   0  0  0  0  0  0  0  0  0  0  0  0
   20.2616   10.4897   32.4272 C   0  0  0  0  0  0  0  0  0  0  0  0
   19.9379   11.8164   32.8430 C   0  0  0  0  0  0  0  0  0  0  0  0
   19.7023   12.8987   33.2035 N   0  0  0  0  0  0  0  0  0  0  0  0
  1  2  1  0
  2  3  1  0
  2  4  2  0
  4  5  1  0
  4  6  1  0
  6  7  2  0
  7  8  1  0
  8  9  1  0
  9 10  1  0
  9 11  1  0
 11 12  2  0
 11 13  1  0
 13 14  1  0
 13 15  1  0
 13 16  1  0
 16 17  2  0
 17 18  1  0
 17 19  1  0
 19 20  1  0
 20 21  1  0
 21 22  1  0
 21 23  1  0
 21 24  1  0
 19 25  2  0
 25 26  1  0
 25 27  1  0
 27 28  1  0
 27 29  2  0
 29 30  1  0
 30 31  1  0
 31 32  1  0
 31 33  1  0
 31 34  1  0
  8 35  2  0
 35 36  1  0
 35 37  1  0
 37 38  1  0
 38 39  1  0
 38 40  1  0
 37 41  2  0
 41 42  1  0
 42 43  3  0
 41  6  1  0
 29 16  1  0
M  END
>  <score>  (130) 
7.4117

$$$$

     RDKit          3D

 46 47  0  0  0  0  0  0  0  0999 V2000
   26.1699    5.4322   30.8484 H   0  0  0  0  0  0  0  0  0  0  0  0
   25.3273    4.7983   31.1018 C   0  0  0  0  0  0  0  0  0  0  0  0
   25.5214    3.6997   31.9449 C   0  0  0  0  0  0  0  0  0  0  0  0
   27.2751    3.3608   32.6397 Br  0  0  0  0  0  0  0  0  0  0  0  0
   24.4429    2.8582   32.2657 C   0  0  0  0  0  0  0  0  0  0  0  0
   24.6715    1.7867   33.1000 O   0  0  0  0  0  0  0  0  0  0  0  0
   23.6726    0.7558   33.1208 C   0  0  0  0  0  0  0  0  0  0  0  0
   23.4725    0.3925   32.1083 H   0  0  0  0  0  0  0  0  0  0  0  0
   22.7381    1.1247   33.5539 H   0  0  0  0  0  0  0  0  0  0  0  0
   24.0247   -0.0876   33.7241 H   0  0  0  0  0  0  0  0  0  0  0  0
   23.1720    3.1528   31.7349 C   0  0  0  0  0  0  0  0  0  0  0  0
   22.3373    2.5048   31.9852 H   0  0  0  0  0  0  0  0  0  0  0  0
   22.9745    4.2688   30.9031 C   0  0  0  0  0  0  0  0  0  0  0  0
   21.5947    4.5996   30.3810 C   0  0  0  0  0  0  0  0  0  0  0  0
   21.6668    4.9016   29.3341 H   0  0  0  0  0  0  0  0  0  0  0  0
   20.9436    3.7284   30.4517 H   0  0  0  0  0  0  0  0  0  0  0  0
   20.9595    5.7528   31.1387 C   0  0  0  0  0  0  0  0  0  0  0  0
   19.7714    5.7097   31.4188 O   0  0  0  0  0  0  0  0  0  0  0  0
   21.6579    6.9103   31.3020 N   0  0  0  0  0  0  0  0  0  0  0  0
   22.5258    7.0210   30.7924 H   0  0  0  0  0  0  0  0  0  0  0  0
   21.0842    8.0620   31.7016 C   0  0  0  0  0  0  0  0  0  0  0  0
   21.8179    9.0897   31.3526 N   0  0  0  0  0  0  0  0  0  0  0  0
   21.3698   10.2731   31.6886 C   0  0  0  0  0  0  0  0  0  0  0  0
   22.2268   11.2526   31.3217 N   0  0  0  0  0  0  0  0  0  0  0  0
   23.1832   10.9616   31.1784 H   0  0  0  0  0  0  0  0  0  0  0  0
   21.7528   12.2616   30.5347 C   0  0  0  0  0  0  0  0  0  0  0  0
   20.5701   12.3375   30.2505 O   0  0  0  0  0  0  0  0  0  0  0  0
   22.7025   13.3357   30.0672 C   0  0  0  0  0  0  0  0  0  0  0  0
   22.1323   14.1885   29.6842 H   0  0  0  0  0  0  0  0  0  0  0  0
   23.3139   13.6632   30.9163 H   0  0  0  0  0  0  0  0  0  0  0  0
   23.3350   12.9348   29.2694 H   0  0  0  0  0  0  0  0  0  0  0  0
   20.2173   10.4977   32.4024 C   0  0  0  0  0  0  0  0  0  0  0  0
   19.8814   11.8127   32.8326 C   0  0  0  0  0  0  0  0  0  0  0  0
   19.6772   12.8863   33.2235 N   0  0  0  0  0  0  0  0  0  0  0  0
   19.5074    9.3986   32.7955 C   0  0  0  0  0  0  0  0  0  0  0  0
   18.4574    9.4974   33.6433 N   0  0  0  0  0  0  0  0  0  0  0  0
   17.9283    8.6563   33.8649 H   0  0  0  0  0  0  0  0  0  0  0  0
   18.1072   10.4218   33.8894 H   0  0  0  0  0  0  0  0  0  0  0  0
   19.9111    8.1552   32.4153 C   0  0  0  0  0  0  0  0  0  0  0  0
   19.3597    7.2831   32.7199 H   0  0  0  0  0  0  0  0  0  0  0  0
   24.0619    5.1010   30.5778 C   0  0  0  0  0  0  0  0  0  0  0  0
   23.8421    6.1928   29.7655 O   0  0  0  0  0  0  0  0  0  0  0  0
   24.9365    7.1044   29.5990 C   0  0  0  0  0  0  0  0  0  0  0  0
   25.7765    6.6167   29.0952 H   0  0  0  0  0  0  0  0  0  0  0  0
   25.2763    7.4742   30.5708 H   0  0  0  0  0  0  0  0  0  0  0  0
   24.6171    7.9581   28.9944 H   0  0  0  0  0  0  0  0  0  0  0  0
  1  2  1  0
  2  3  2  0
  3  4  1  0
  3  5  1  0
  5  6  1  0
  6  7  1  0
  7  8  1  0
  7  9  1  0
  7 10  1  0
  5 11  2  0
 11 12  1  0
 11 13  1  0
 13 14  1  0
 14 15  1  0
 14 16  1  0
 14 17  1  0
 17 18  2  0
 17 19  1  0
 19 20  1  0
 19 21  1  0
 21 22  2  0
 22 23  1  0
 23 24  1  0
 24 25  1  0
 24 26  1  0
 26 27  2  0
 26 28  1  0
 28 29  1  0
 28 30  1  0
 28 31  1  0
 23 32  2  0
 32 33  1  0
 33 34  3  0
 32 35  1  0
 35 36  1  0
 36 37  1  0
 36 38  1  0
 35 39  2  0
 39 40  1  0
 13 41  2  0
 41 42  1  0
 42 43  1  0
 43 44  1  0
 43 45  1  0
 43 46  1  0
 41  2  1  0
 39 21  1  0
M  END
>  <score>  (131) 
7.41718

$$$$

     RDKit          3D

 50 52  0  0  0  0  0  0  0  0999 V2000
   26.8847   13.5726   28.7333 H   0  0  0  0  0  0  0  0  0  0  0  0
   25.9148   13.3174   29.1461 C   0  0  0  0  0  0  0  0  0  0  0  0
   25.6076   12.1690   29.8380 O   0  0  0  0  0  0  0  0  0  0  0  0
   24.2568   12.2292   30.1522 C   0  0  0  0  0  0  0  0  0  0  0  0
   23.4890   11.1584   30.8589 C   0  0  0  0  0  0  0  0  0  0  0  0
   24.0273   10.0895   31.1072 O   0  0  0  0  0  0  0  0  0  0  0  0
   22.1697   11.3030   31.2589 N   0  0  0  0  0  0  0  0  0  0  0  0
   21.7285   12.2079   31.2312 H   0  0  0  0  0  0  0  0  0  0  0  0
   21.4067   10.2514   31.7014 C   0  0  0  0  0  0  0  0  0  0  0  0
   21.7429    9.0635   31.2468 N   0  0  0  0  0  0  0  0  0  0  0  0
   20.9903    8.0453   31.5832 C   0  0  0  0  0  0  0  0  0  0  0  0
   21.4628    6.9364   30.9878 N   0  0  0  0  0  0  0  0  0  0  0  0
   22.3228    7.0582   30.4795 H   0  0  0  0  0  0  0  0  0  0  0  0
   20.9091    5.6950   31.0573 C   0  0  0  0  0  0  0  0  0  0  0  0
   19.8607    5.5106   31.6519 O   0  0  0  0  0  0  0  0  0  0  0  0
   21.5950    4.5559   30.3108 C   0  0  0  0  0  0  0  0  0  0  0  0
   21.7055    4.8478   29.2607 H   0  0  0  0  0  0  0  0  0  0  0  0
   20.9616    3.6639   30.3524 H   0  0  0  0  0  0  0  0  0  0  0  0
   22.9691    4.2646   30.8845 C   0  0  0  0  0  0  0  0  0  0  0  0
   23.1629    3.1544   31.7289 C   0  0  0  0  0  0  0  0  0  0  0  0
   22.3350    2.4985   31.9761 H   0  0  0  0  0  0  0  0  0  0  0  0
   24.4288    2.8575   32.2667 C   0  0  0  0  0  0  0  0  0  0  0  0
   24.6621    1.7913   33.1071 O   0  0  0  0  0  0  0  0  0  0  0  0
   23.6813    0.7452   33.1308 C   0  0  0  0  0  0  0  0  0  0  0  0
   23.4865    0.3736   32.1192 H   0  0  0  0  0  0  0  0  0  0  0  0
   22.7431    1.0953   33.5726 H   0  0  0  0  0  0  0  0  0  0  0  0
   24.0525   -0.0891   33.7345 H   0  0  0  0  0  0  0  0  0  0  0  0
   25.5103    3.6900   31.9397 C   0  0  0  0  0  0  0  0  0  0  0  0
   27.2616    3.3347   32.6306 Br  0  0  0  0  0  0  0  0  0  0  0  0
   25.3230    4.7947   31.1001 C   0  0  0  0  0  0  0  0  0  0  0  0
   26.1655    5.4268   30.8410 H   0  0  0  0  0  0  0  0  0  0  0  0
   24.0601    5.1006   30.5694 C   0  0  0  0  0  0  0  0  0  0  0  0
   23.8451    6.1831   29.7424 O   0  0  0  0  0  0  0  0  0  0  0  0
   24.9279    7.1137   29.5933 C   0  0  0  0  0  0  0  0  0  0  0  0
   24.5957    7.9700   29.0001 H   0  0  0  0  0  0  0  0  0  0  0  0
   25.7770    6.6508   29.0782 H   0  0  0  0  0  0  0  0  0  0  0  0
   25.2596    7.4828   30.5701 H   0  0  0  0  0  0  0  0  0  0  0  0
   19.8931    8.1298   32.4052 C   0  0  0  0  0  0  0  0  0  0  0  0
   19.2921    7.2762   32.6845 H   0  0  0  0  0  0  0  0  0  0  0  0
   19.5672    9.3740   32.8541 C   0  0  0  0  0  0  0  0  0  0  0  0
   18.4917    9.4892   33.6580 N   0  0  0  0  0  0  0  0  0  0  0  0
   17.9523    8.6580   33.8852 H   0  0  0  0  0  0  0  0  0  0  0  0
   18.1742   10.4137   33.9303 H   0  0  0  0  0  0  0  0  0  0  0  0
   20.3076   10.4742   32.4965 C   0  0  0  0  0  0  0  0  0  0  0  0
   19.9717   11.7996   32.9008 C   0  0  0  0  0  0  0  0  0  0  0  0
   19.7108   12.8972   33.1856 N   0  0  0  0  0  0  0  0  0  0  0  0
   23.7385   13.4117   29.6682 C   0  0  0  0  0  0  0  0  0  0  0  0
   22.7097   13.7506   29.7404 H   0  0  0  0  0  0  0  0  0  0  0  0
   24.8116   14.1087   29.0191 C   0  0  0  0  0  0  0  0  0  0  0  0
   24.7609   15.0662   28.5074 H   0  0  0  0  0  0  0  0  0  0  0  0
  1  2  1  0
  2  3  1  0
  3  4  1  0
  4  5  1  0
  5  6  2  0
  5  7  1  0
  7  8  1  0
  7  9  1  0
  9 10  2  0
 10 11  1  0
 11 12  1  0
 12 13  1  0
 12 14  1  0
 14 15  2  0
 14 16  1  0
 16 17  1  0
 16 18  1  0
 16 19  1  0
 19 20  2  0
 20 21  1  0
 20 22  1  0
 22 23  1  0
 23 24  1  0
 24 25  1  0
 24 26  1  0
 24 27  1  0
 22 28  2  0
 28 29  1  0
 28 30  1  0
 30 31  1  0
 30 32  2  0
 32 33  1  0
 33 34  1  0
 34 35  1  0
 34 36  1  0
 34 37  1  0
 11 38  2  0
 38 39  1  0
 38 40  1  0
 40 41  1  0
 41 42  1  0
 41 43  1  0
 40 44  2  0
 44 45  1  0
 45 46  3  0
  4 47  2  0
 47 48  1  0
 47 49  1  0
 49 50  1  0
 49  2  2  0
 44  9  1  0
 32 19  1  0
M  END
>  <score>  (132) 
7.41922

$$$$

     RDKit          3D

 51 53  0  0  0  0  0  0  0  0999 V2000
   22.8394    9.8807   26.9195 H   0  0  0  0  0  0  0  0  0  0  0  0
   23.2660   10.4352   27.7486 C   0  0  0  0  0  0  0  0  0  0  0  0
   22.5657   10.5374   28.9496 C   0  0  0  0  0  0  0  0  0  0  0  0
   21.6009   10.0441   29.0485 H   0  0  0  0  0  0  0  0  0  0  0  0
   23.0847   11.2968   30.0104 C   0  0  0  0  0  0  0  0  0  0  0  0
   22.3021   11.4109   31.2533 C   0  0  0  0  0  0  0  0  0  0  0  0
   22.3130   12.4893   31.8566 O   0  0  0  0  0  0  0  0  0  0  0  0
   21.4233   10.2718   31.7083 C   0  0  0  0  0  0  0  0  0  0  0  0
   21.7629    9.0116   31.3667 N   0  0  0  0  0  0  0  0  0  0  0  0
   21.0063    8.0021   31.7538 C   0  0  0  0  0  0  0  0  0  0  0  0
   21.5518    6.8430   31.3407 N   0  0  0  0  0  0  0  0  0  0  0  0
   22.4219    6.9551   30.8390 H   0  0  0  0  0  0  0  0  0  0  0  0
   20.8736    5.6759   31.1652 C   0  0  0  0  0  0  0  0  0  0  0  0
   19.6800    5.6126   31.4180 O   0  0  0  0  0  0  0  0  0  0  0  0
   21.5701    4.5725   30.3881 C   0  0  0  0  0  0  0  0  0  0  0  0
   21.6375    4.9206   29.3545 H   0  0  0  0  0  0  0  0  0  0  0  0
   20.9506    3.6759   30.4200 H   0  0  0  0  0  0  0  0  0  0  0  0
   22.9636    4.2686   30.9116 C   0  0  0  0  0  0  0  0  0  0  0  0
   23.1712    3.1521   31.7395 C   0  0  0  0  0  0  0  0  0  0  0  0
   22.3424    2.4957   31.9863 H   0  0  0  0  0  0  0  0  0  0  0  0
   24.4430    2.8590   32.2657 C   0  0  0  0  0  0  0  0  0  0  0  0
   24.6739    1.7848   33.0960 O   0  0  0  0  0  0  0  0  0  0  0  0
   23.6718    0.7576   33.1188 C   0  0  0  0  0  0  0  0  0  0  0  0
   23.4723    0.3956   32.1048 H   0  0  0  0  0  0  0  0  0  0  0  0
   22.7391    1.1322   33.5530 H   0  0  0  0  0  0  0  0  0  0  0  0
   24.0215   -0.0863   33.7235 H   0  0  0  0  0  0  0  0  0  0  0  0
   25.5177    3.7040   31.9435 C   0  0  0  0  0  0  0  0  0  0  0  0
   27.2730    3.3731   32.6374 Br  0  0  0  0  0  0  0  0  0  0  0  0
   25.3184    4.8028   31.1021 C   0  0  0  0  0  0  0  0  0  0  0  0
   26.1604    5.4367   30.8478 H   0  0  0  0  0  0  0  0  0  0  0  0
   24.0505    5.1043   30.5826 C   0  0  0  0  0  0  0  0  0  0  0  0
   23.8334    6.1937   29.7666 O   0  0  0  0  0  0  0  0  0  0  0  0
   24.9326    7.1019   29.6007 C   0  0  0  0  0  0  0  0  0  0  0  0
   24.6173    7.9589   28.9971 H   0  0  0  0  0  0  0  0  0  0  0  0
   25.2725    7.4686   30.5749 H   0  0  0  0  0  0  0  0  0  0  0  0
   25.7720    6.6110   29.0962 H   0  0  0  0  0  0  0  0  0  0  0  0
   19.8532    8.1537   32.4860 C   0  0  0  0  0  0  0  0  0  0  0  0
   19.2377    7.3268   32.7962 H   0  0  0  0  0  0  0  0  0  0  0  0
   19.5035    9.4141   32.8578 C   0  0  0  0  0  0  0  0  0  0  0  0
   18.4185    9.5870   33.6545 N   0  0  0  0  0  0  0  0  0  0  0  0
   18.6677    9.9765   34.5602 H   0  0  0  0  0  0  0  0  0  0  0  0
   17.6526   10.0754   33.1957 H   0  0  0  0  0  0  0  0  0  0  0  0
   20.2765   10.4897   32.4858 C   0  0  0  0  0  0  0  0  0  0  0  0
   19.9307   11.8091   32.9041 C   0  0  0  0  0  0  0  0  0  0  0  0
   19.6807   12.8875   33.2577 N   0  0  0  0  0  0  0  0  0  0  0  0
   24.3241   11.9414   29.8556 C   0  0  0  0  0  0  0  0  0  0  0  0
   24.7582   12.5144   30.6739 H   0  0  0  0  0  0  0  0  0  0  0  0
   25.0136   11.8367   28.6430 C   0  0  0  0  0  0  0  0  0  0  0  0
   25.9611   12.3442   28.5118 H   0  0  0  0  0  0  0  0  0  0  0  0
   24.4876   11.0910   27.5841 C   0  0  0  0  0  0  0  0  0  0  0  0
   25.1350   11.0282   26.3971 F   0  0  0  0  0  0  0  0  0  0  0  0
  1  2  1  0
  2  3  2  0
  3  4  1  0
  3  5  1  0
  5  6  1  0
  6  7  2  0
  6  8  1  0
  8  9  2  0
  9 10  1  0
 10 11  1  0
 11 12  1  0
 11 13  1  0
 13 14  2  0
 13 15  1  0
 15 16  1  0
 15 17  1  0
 15 18  1  0
 18 19  2  0
 19 20  1  0
 19 21  1  0
 21 22  1  0
 22 23  1  0
 23 24  1  0
 23 25  1  0
 23 26  1  0
 21 27  2  0
 27 28  1  0
 27 29  1  0
 29 30  1  0
 29 31  2  0
 31 32  1  0
 32 33  1  0
 33 34  1  0
 33 35  1  0
 33 36  1  0
 10 37  2  0
 37 38  1  0
 37 39  1  0
 39 40  1  0
 40 41  1  0
 40 42  1  0
 39 43  2  0
 43 44  1  0
 44 45  3  0
  5 46  2  0
 46 47  1  0
 46 48  1  0
 48 49  1  0
 48 50  2  0
 50 51  1  0
 50  2  1  0
 43  8  1  0
 31 18  1  0
M  END
>  <score>  (133) 
7.42047

$$$$

     RDKit          3D

 52 53  0  0  0  0  0  0  0  0999 V2000
   26.1348    5.4581   30.8500 H   0  0  0  0  0  0  0  0  0  0  0  0
   25.2969    4.8159   31.1004 C   0  0  0  0  0  0  0  0  0  0  0  0
   25.4976    3.7202   31.9442 C   0  0  0  0  0  0  0  0  0  0  0  0
   27.2558    3.4017   32.6351 Br  0  0  0  0  0  0  0  0  0  0  0  0
   24.4265    2.8682   32.2597 C   0  0  0  0  0  0  0  0  0  0  0  0
   24.6621    1.7938   33.0869 O   0  0  0  0  0  0  0  0  0  0  0  0
   23.6595    0.7687   33.1082 C   0  0  0  0  0  0  0  0  0  0  0  0
   23.4582    0.4055   32.0951 H   0  0  0  0  0  0  0  0  0  0  0  0
   24.0082   -0.0735   33.7139 H   0  0  0  0  0  0  0  0  0  0  0  0
   22.7283    1.1472   33.5405 H   0  0  0  0  0  0  0  0  0  0  0  0
   23.1573    3.1493   31.7215 C   0  0  0  0  0  0  0  0  0  0  0  0
   22.3262    2.4960   31.9696 H   0  0  0  0  0  0  0  0  0  0  0  0
   22.9533    4.2539   30.8807 C   0  0  0  0  0  0  0  0  0  0  0  0
   21.5688    4.5332   30.3445 C   0  0  0  0  0  0  0  0  0  0  0  0
   20.9356    3.6476   30.4180 H   0  0  0  0  0  0  0  0  0  0  0  0
   21.6415    4.8118   29.2906 H   0  0  0  0  0  0  0  0  0  0  0  0
   20.9163    5.6755   31.1028 C   0  0  0  0  0  0  0  0  0  0  0  0
   19.8604    5.5156   31.6947 O   0  0  0  0  0  0  0  0  0  0  0  0
   21.4756    6.9120   31.0039 N   0  0  0  0  0  0  0  0  0  0  0  0
   22.3523    7.0264   30.5154 H   0  0  0  0  0  0  0  0  0  0  0  0
   20.9464    8.0435   31.5028 C   0  0  0  0  0  0  0  0  0  0  0  0
   21.6756    9.0672   31.1323 N   0  0  0  0  0  0  0  0  0  0  0  0
   21.3517   10.2696   31.5923 C   0  0  0  0  0  0  0  0  0  0  0  0
   22.2906   11.3649   31.2097 C   0  0  0  0  0  0  0  0  0  0  0  0
   23.3175   11.0077   31.3183 H   0  0  0  0  0  0  0  0  0  0  0  0
   22.1527   12.2180   31.8776 H   0  0  0  0  0  0  0  0  0  0  0  0
   22.0258   11.7771   29.7750 C   0  0  0  0  0  0  0  0  0  0  0  0
   22.8053   12.4562   29.4140 H   0  0  0  0  0  0  0  0  0  0  0  0
   22.0097   10.9074   29.1075 H   0  0  0  0  0  0  0  0  0  0  0  0
   20.7433   12.4466   29.7877 N   0  0  0  0  0  0  0  0  0  0  0  0
   19.9073   11.9118   29.5755 H   0  0  0  0  0  0  0  0  0  0  0  0
   20.5501   13.6557   30.4172 C   0  0  0  0  0  0  0  0  0  0  0  0
   21.4794   14.3035   30.8686 O   0  0  0  0  0  0  0  0  0  0  0  0
   19.1229   14.0792   30.6573 C   0  0  0  0  0  0  0  0  0  0  0  0
   18.6239   13.3452   31.3003 H   0  0  0  0  0  0  0  0  0  0  0  0
   19.0571   15.0655   31.1107 H   0  0  0  0  0  0  0  0  0  0  0  0
   18.6211   14.1196   29.6954 H   0  0  0  0  0  0  0  0  0  0  0  0
   20.2608   10.4757   32.4254 C   0  0  0  0  0  0  0  0  0  0  0  0
   19.9270   11.7819   32.8839 C   0  0  0  0  0  0  0  0  0  0  0  0
   19.6722   12.8622   33.2350 N   0  0  0  0  0  0  0  0  0  0  0  0
   19.5463    9.3710   32.8196 C   0  0  0  0  0  0  0  0  0  0  0  0
   18.5488    9.4741   33.7328 N   0  0  0  0  0  0  0  0  0  0  0  0
   17.9552    8.6597   33.8595 H   0  0  0  0  0  0  0  0  0  0  0  0
   18.1583   10.3992   33.8967 H   0  0  0  0  0  0  0  0  0  0  0  0
   19.8651    8.1326   32.3430 C   0  0  0  0  0  0  0  0  0  0  0  0
   19.3184    7.2611   32.6589 H   0  0  0  0  0  0  0  0  0  0  0  0
   24.0326    5.1042   30.5653 C   0  0  0  0  0  0  0  0  0  0  0  0
   23.8178    6.2002   29.7574 O   0  0  0  0  0  0  0  0  0  0  0  0
   24.9287    7.0958   29.6016 C   0  0  0  0  0  0  0  0  0  0  0  0
   25.7644    6.5917   29.1052 H   0  0  0  0  0  0  0  0  0  0  0  0
   24.6320    7.9582   28.9975 H   0  0  0  0  0  0  0  0  0  0  0  0
   25.2678    7.4537   30.5790 H   0  0  0  0  0  0  0  0  0  0  0  0
  1  2  1  0
  2  3  2  0
  3  4  1  0
  3  5  1  0
  5  6  1  0
  6  7  1  0
  7  8  1  0
  7  9  1  0
  7 10  1  0
  5 11  2  0
 11 12  1  0
 11 13  1  0
 13 14  1  0
 14 15  1  0
 14 16  1  0
 14 17  1  0
 17 18  2  0
 17 19  1  0
 19 20  1  0
 19 21  1  0
 21 22  2  0
 22 23  1  0
 23 24  1  0
 24 25  1  0
 24 26  1  0
 24 27  1  0
 27 28  1  0
 27 29  1  0
 27 30  1  0
 30 31  1  0
 30 32  1  0
 32 33  2  0
 32 34  1  0
 34 35  1  0
 34 36  1  0
 34 37  1  0
 23 38  2  0
 38 39  1  0
 39 40  3  0
 38 41  1  0
 41 42  1  0
 42 43  1  0
 42 44  1  0
 41 45  2  0
 45 46  1  0
 13 47  2  0
 47 48  1  0
 48 49  1  0
 49 50  1  0
 49 51  1  0
 49 52  1  0
 47  2  1  0
 45 21  1  0
M  END
>  <score>  (134) 
7.42371

$$$$

     RDKit          3D

 51 53  0  0  0  0  0  0  0  0999 V2000
   22.7896   10.4900   29.2800 H   0  0  0  0  0  0  0  0  0  0  0  0
   22.9294   11.3256   29.9534 C   0  0  0  0  0  0  0  0  0  0  0  0
   22.2298   11.3573   31.1691 C   0  0  0  0  0  0  0  0  0  0  0  0
   21.3591   10.2204   31.6232 C   0  0  0  0  0  0  0  0  0  0  0  0
   21.6947    8.9582   31.2827 N   0  0  0  0  0  0  0  0  0  0  0  0
   20.9741    7.9491   31.7214 C   0  0  0  0  0  0  0  0  0  0  0  0
   21.5621    6.7902   31.3731 N   0  0  0  0  0  0  0  0  0  0  0  0
   22.4518    6.9201   30.9136 H   0  0  0  0  0  0  0  0  0  0  0  0
   20.9010    5.6230   31.1318 C   0  0  0  0  0  0  0  0  0  0  0  0
   19.7133    5.5327   31.3876 O   0  0  0  0  0  0  0  0  0  0  0  0
   21.6123    4.5353   30.3345 C   0  0  0  0  0  0  0  0  0  0  0  0
   21.7067    4.8822   29.3046 H   0  0  0  0  0  0  0  0  0  0  0  0
   21.0071    3.6267   30.3289 H   0  0  0  0  0  0  0  0  0  0  0  0
   22.9905    4.2478   30.8855 C   0  0  0  0  0  0  0  0  0  0  0  0
   23.1773    3.1439   31.7322 C   0  0  0  0  0  0  0  0  0  0  0  0
   22.3412    2.4988   31.9815 H   0  0  0  0  0  0  0  0  0  0  0  0
   24.4393    2.8459   32.2726 C   0  0  0  0  0  0  0  0  0  0  0  0
   24.6643    1.7842   33.1196 O   0  0  0  0  0  0  0  0  0  0  0  0
   23.6868    0.7356   33.1386 C   0  0  0  0  0  0  0  0  0  0  0  0
   24.0646   -0.0953   33.7416 H   0  0  0  0  0  0  0  0  0  0  0  0
   23.4950    0.3655   32.1264 H   0  0  0  0  0  0  0  0  0  0  0  0
   22.7486    1.0823   33.5817 H   0  0  0  0  0  0  0  0  0  0  0  0
   25.5224    3.6778   31.9459 C   0  0  0  0  0  0  0  0  0  0  0  0
   27.2707    3.3108   32.6355 Br  0  0  0  0  0  0  0  0  0  0  0  0
   25.3398    4.7809   31.1008 C   0  0  0  0  0  0  0  0  0  0  0  0
   26.1830    5.4143   30.8456 H   0  0  0  0  0  0  0  0  0  0  0  0
   24.0789    5.0882   30.5683 C   0  0  0  0  0  0  0  0  0  0  0  0
   23.8594    6.1783   29.7525 O   0  0  0  0  0  0  0  0  0  0  0  0
   24.9322    7.1176   29.5880 C   0  0  0  0  0  0  0  0  0  0  0  0
   25.2633    7.4993   30.5585 H   0  0  0  0  0  0  0  0  0  0  0  0
   24.5859    7.9636   28.9874 H   0  0  0  0  0  0  0  0  0  0  0  0
   25.7802    6.6564   29.0725 H   0  0  0  0  0  0  0  0  0  0  0  0
   19.8377    8.0914   32.4680 C   0  0  0  0  0  0  0  0  0  0  0  0
   19.2360    7.2536   32.7791 H   0  0  0  0  0  0  0  0  0  0  0  0
   19.5110    9.3561   32.8545 C   0  0  0  0  0  0  0  0  0  0  0  0
   18.4393    9.4827   33.6703 N   0  0  0  0  0  0  0  0  0  0  0  0
   18.1396   10.4094   33.9534 H   0  0  0  0  0  0  0  0  0  0  0  0
   17.8955    8.6602   33.9136 H   0  0  0  0  0  0  0  0  0  0  0  0
   20.2610   10.4461   32.4650 C   0  0  0  0  0  0  0  0  0  0  0  0
   19.9285   11.7695   32.9014 C   0  0  0  0  0  0  0  0  0  0  0  0
   19.6758   12.8582   33.2247 N   0  0  0  0  0  0  0  0  0  0  0  0
   22.3927   12.4022   32.0020 N   0  0  0  0  0  0  0  0  0  0  0  0
   23.3039   13.3411   31.7645 C   0  0  0  0  0  0  0  0  0  0  0  0
   23.5581   14.2549   32.9202 C   0  0  0  0  0  0  0  0  0  0  0  0
   24.6236   14.2512   33.1694 H   0  0  0  0  0  0  0  0  0  0  0  0
   23.2052   15.2668   32.7144 H   0  0  0  0  0  0  0  0  0  0  0  0
   23.0119   13.8745   33.7876 H   0  0  0  0  0  0  0  0  0  0  0  0
   24.0280   13.3631   30.5632 C   0  0  0  0  0  0  0  0  0  0  0  0
   24.7728   14.1291   30.3773 H   0  0  0  0  0  0  0  0  0  0  0  0
   23.8064   12.3550   29.6196 C   0  0  0  0  0  0  0  0  0  0  0  0
   24.3368   12.3420   28.6706 H   0  0  0  0  0  0  0  0  0  0  0  0
  1  2  1  0
  2  3  2  0
  3  4  1  0
  4  5  2  0
  5  6  1  0
  6  7  1  0
  7  8  1  0
  7  9  1  0
  9 10  2  0
  9 11  1  0
 11 12  1  0
 11 13  1  0
 11 14  1  0
 14 15  2  0
 15 16  1  0
 15 17  1  0
 17 18  1  0
 18 19  1  0
 19 20  1  0
 19 21  1  0
 19 22  1  0
 17 23  2  0
 23 24  1  0
 23 25  1  0
 25 26  1  0
 25 27  2  0
 27 28  1  0
 28 29  1  0
 29 30  1  0
 29 31  1  0
 29 32  1  0
  6 33  2  0
 33 34  1  0
 33 35  1  0
 35 36  1  0
 36 37  1  0
 36 38  1  0
 35 39  2  0
 39 40  1  0
 40 41  3  0
  3 42  1  0
 42 43  2  0
 43 44  1  0
 44 45  1  0
 44 46  1  0
 44 47  1  0
 43 48  1  0
 48 49  1  0
 48 50  2  0
 50 51  1  0
 50  2  1  0
 39  4  1  0
 27 14  1  0
M  END
>  <score>  (135) 
7.42417

$$$$

     RDKit          3D

 50 51  0  0  0  0  0  0  0  0999 V2000
   26.1814    5.4180   30.8442 H   0  0  0  0  0  0  0  0  0  0  0  0
   25.3403    4.7823   31.1016 C   0  0  0  0  0  0  0  0  0  0  0  0
   25.5224    3.6772   31.9458 C   0  0  0  0  0  0  0  0  0  0  0  0
   27.2716    3.3131   32.6354 Br  0  0  0  0  0  0  0  0  0  0  0  0
   24.4397    2.8449   32.2728 C   0  0  0  0  0  0  0  0  0  0  0  0
   24.6656    1.7834   33.1209 O   0  0  0  0  0  0  0  0  0  0  0  0
   23.6874    0.7361   33.1387 C   0  0  0  0  0  0  0  0  0  0  0  0
   23.4956    0.3657   32.1260 H   0  0  0  0  0  0  0  0  0  0  0  0
   24.0632   -0.0956   33.7413 H   0  0  0  0  0  0  0  0  0  0  0  0
   22.7485    1.0820   33.5821 H   0  0  0  0  0  0  0  0  0  0  0  0
   23.1787    3.1421   31.7307 C   0  0  0  0  0  0  0  0  0  0  0  0
   22.3464    2.4939   31.9822 H   0  0  0  0  0  0  0  0  0  0  0  0
   22.9915    4.2479   30.8850 C   0  0  0  0  0  0  0  0  0  0  0  0
   21.6108    4.5418   30.3387 C   0  0  0  0  0  0  0  0  0  0  0  0
   20.9996    3.6335   30.3304 H   0  0  0  0  0  0  0  0  0  0  0  0
   21.7051    4.8854   29.3071 H   0  0  0  0  0  0  0  0  0  0  0  0
   20.9101    5.6381   31.1349 C   0  0  0  0  0  0  0  0  0  0  0  0
   19.7196    5.5573   31.3835 O   0  0  0  0  0  0  0  0  0  0  0  0
   21.5828    6.7914   31.3973 N   0  0  0  0  0  0  0  0  0  0  0  0
   22.4586    6.9318   30.9143 H   0  0  0  0  0  0  0  0  0  0  0  0
   21.0082    7.9490   31.7731 C   0  0  0  0  0  0  0  0  0  0  0  0
   21.7582    8.9622   31.3869 N   0  0  0  0  0  0  0  0  0  0  0  0
   21.3812   10.2194   31.6870 C   0  0  0  0  0  0  0  0  0  0  0  0
   22.2768   11.3806   31.2409 C   0  0  0  0  0  0  0  0  0  0  0  0
   22.4573   12.0139   32.1097 H   0  0  0  0  0  0  0  0  0  0  0  0
   23.2295   10.9541   30.9269 H   0  0  0  0  0  0  0  0  0  0  0  0
   21.7659   12.2469   30.1438 N   0  0  0  0  0  0  0  0  0  0  0  0
   21.6996   11.5611   28.8489 C   0  0  0  0  0  0  0  0  0  0  0  0
   21.0714   12.1164   28.1508 H   0  0  0  0  0  0  0  0  0  0  0  0
   21.2828   10.5594   28.9706 H   0  0  0  0  0  0  0  0  0  0  0  0
   22.6980   11.4736   28.4176 H   0  0  0  0  0  0  0  0  0  0  0  0
   22.3360   13.6020   30.0429 C   0  0  0  0  0  0  0  0  0  0  0  0
   23.3811   13.5430   29.7277 H   0  0  0  0  0  0  0  0  0  0  0  0
   21.7844   14.2020   29.3103 H   0  0  0  0  0  0  0  0  0  0  0  0
   22.2879   14.1178   31.0051 H   0  0  0  0  0  0  0  0  0  0  0  0
   20.2583   10.4448   32.4753 C   0  0  0  0  0  0  0  0  0  0  0  0
   19.9299   11.7730   32.8928 C   0  0  0  0  0  0  0  0  0  0  0  0
   19.6931   12.8660   33.2145 N   0  0  0  0  0  0  0  0  0  0  0  0
   19.5113    9.3491   32.8553 C   0  0  0  0  0  0  0  0  0  0  0  0
   18.4431    9.4763   33.6707 N   0  0  0  0  0  0  0  0  0  0  0  0
   17.8891    8.6577   33.9104 H   0  0  0  0  0  0  0  0  0  0  0  0
   18.1438   10.4076   33.9383 H   0  0  0  0  0  0  0  0  0  0  0  0
   19.8425    8.0837   32.4751 C   0  0  0  0  0  0  0  0  0  0  0  0
   19.2225    7.2467   32.7607 H   0  0  0  0  0  0  0  0  0  0  0  0
   24.0796    5.0872   30.5685 C   0  0  0  0  0  0  0  0  0  0  0  0
   23.8575    6.1779   29.7538 O   0  0  0  0  0  0  0  0  0  0  0  0
   24.9322    7.1146   29.5890 C   0  0  0  0  0  0  0  0  0  0  0  0
   24.5882    7.9611   28.9878 H   0  0  0  0  0  0  0  0  0  0  0  0
   25.7806    6.6531   29.0730 H   0  0  0  0  0  0  0  0  0  0  0  0
   25.2640    7.4980   30.5595 H   0  0  0  0  0  0  0  0  0  0  0  0
  1  2  1  0
  2  3  2  0
  3  4  1  0
  3  5  1  0
  5  6  1  0
  6  7  1  0
  7  8  1  0
  7  9  1  0
  7 10  1  0
  5 11  2  0
 11 12  1  0
 11 13  1  0
 13 14  1  0
 14 15  1  0
 14 16  1  0
 14 17  1  0
 17 18  2  0
 17 19  1  0
 19 20  1  0
 19 21  1  0
 21 22  2  0
 22 23  1  0
 23 24  1  0
 24 25  1  0
 24 26  1  0
 24 27  1  0
 27 28  1  0
 28 29  1  0
 28 30  1  0
 28 31  1  0
 27 32  1  0
 32 33  1  0
 32 34  1  0
 32 35  1  0
 23 36  2  0
 36 37  1  0
 37 38  3  0
 36 39  1  0
 39 40  1  0
 40 41  1  0
 40 42  1  0
 39 43  2  0
 43 44  1  0
 13 45  2  0
 45 46  1  0
 46 47  1  0
 47 48  1  0
 47 49  1  0
 47 50  1  0
 45  2  1  0
 43 21  1  0
M  END
>  <score>  (136) 
7.42446

$$$$

     RDKit          3D

 59 60  0  0  0  0  0  0  0  0999 V2000
   26.1499    5.4363   30.8406 H   0  0  0  0  0  0  0  0  0  0  0  0
   25.3109    4.8013   31.0989 C   0  0  0  0  0  0  0  0  0  0  0  0
   25.5072    3.7014   31.9388 C   0  0  0  0  0  0  0  0  0  0  0  0
   27.2591    3.3597   32.6309 Br  0  0  0  0  0  0  0  0  0  0  0  0
   24.4302    2.8625   32.2646 C   0  0  0  0  0  0  0  0  0  0  0  0
   24.6633    1.7943   33.1004 O   0  0  0  0  0  0  0  0  0  0  0  0
   23.6743    0.7530   33.1237 C   0  0  0  0  0  0  0  0  0  0  0  0
   24.0371   -0.0861   33.7284 H   0  0  0  0  0  0  0  0  0  0  0  0
   23.4793    0.3863   32.1098 H   0  0  0  0  0  0  0  0  0  0  0  0
   22.7379    1.1140   33.5626 H   0  0  0  0  0  0  0  0  0  0  0  0
   23.1622    3.1504   31.7287 C   0  0  0  0  0  0  0  0  0  0  0  0
   22.3366    2.4903   31.9751 H   0  0  0  0  0  0  0  0  0  0  0  0
   22.9631    4.2586   30.8863 C   0  0  0  0  0  0  0  0  0  0  0  0
   21.5867    4.5467   30.3191 C   0  0  0  0  0  0  0  0  0  0  0  0
   20.9475    3.6631   30.3742 H   0  0  0  0  0  0  0  0  0  0  0  0
   21.6848    4.8345   29.2647 H   0  0  0  0  0  0  0  0  0  0  0  0
   20.9114    5.6774   31.0726 C   0  0  0  0  0  0  0  0  0  0  0  0
   19.8630    5.5004   31.6735 O   0  0  0  0  0  0  0  0  0  0  0  0
   21.4487    6.9243   30.9841 N   0  0  0  0  0  0  0  0  0  0  0  0
   22.3298    7.0434   30.5067 H   0  0  0  0  0  0  0  0  0  0  0  0
   20.9402    8.0413   31.5288 C   0  0  0  0  0  0  0  0  0  0  0  0
   21.6740    9.0621   31.1554 N   0  0  0  0  0  0  0  0  0  0  0  0
   21.3589   10.2616   31.6212 C   0  0  0  0  0  0  0  0  0  0  0  0
   22.2363   11.3804   31.1986 C   0  0  0  0  0  0  0  0  0  0  0  0
   22.2701   12.1390   31.9812 H   0  0  0  0  0  0  0  0  0  0  0  0
   23.2552   11.0190   31.0323 H   0  0  0  0  0  0  0  0  0  0  0  0
   21.6781   11.9712   29.9177 C   0  0  0  0  0  0  0  0  0  0  0  0
   21.7055   11.2398   29.1060 H   0  0  0  0  0  0  0  0  0  0  0  0
   20.6332   12.2730   30.0454 H   0  0  0  0  0  0  0  0  0  0  0  0
   22.4927   13.1402   29.5696 N   0  0  0  0  0  0  0  0  0  0  0  0
   23.9031   12.8876   29.2058 C   0  0  0  0  0  0  0  0  0  0  0  0
   24.5277   12.9045   30.1056 H   0  0  0  0  0  0  0  0  0  0  0  0
   24.0012   11.8966   28.7535 H   0  0  0  0  0  0  0  0  0  0  0  0
   24.4135   13.9309   28.2149 C   0  0  0  0  0  0  0  0  0  0  0  0
   23.7996   13.9128   27.3082 H   0  0  0  0  0  0  0  0  0  0  0  0
   24.3683   14.9325   28.6547 H   0  0  0  0  0  0  0  0  0  0  0  0
   25.4531   13.7117   27.9422 H   0  0  0  0  0  0  0  0  0  0  0  0
   22.2304   14.3615   30.3571 C   0  0  0  0  0  0  0  0  0  0  0  0
   23.1653   14.7721   30.7462 H   0  0  0  0  0  0  0  0  0  0  0  0
   21.5988   14.1366   31.2226 H   0  0  0  0  0  0  0  0  0  0  0  0
   21.5233   15.3890   29.4799 C   0  0  0  0  0  0  0  0  0  0  0  0
   22.1640   15.6717   28.6377 H   0  0  0  0  0  0  0  0  0  0  0  0
   20.5976   14.9596   29.0852 H   0  0  0  0  0  0  0  0  0  0  0  0
   21.2772   16.2856   30.0636 H   0  0  0  0  0  0  0  0  0  0  0  0
   20.2801   10.4692   32.4657 C   0  0  0  0  0  0  0  0  0  0  0  0
   19.9576   11.7846   32.9085 C   0  0  0  0  0  0  0  0  0  0  0  0
   19.6983   12.8716   33.2223 N   0  0  0  0  0  0  0  0  0  0  0  0
   19.5496    9.3692   32.8497 C   0  0  0  0  0  0  0  0  0  0  0  0
   18.5204    9.4766   33.7284 N   0  0  0  0  0  0  0  0  0  0  0  0
   17.9293    8.6603   33.8860 H   0  0  0  0  0  0  0  0  0  0  0  0
   18.1615   10.4084   33.9117 H   0  0  0  0  0  0  0  0  0  0  0  0
   19.8666    8.1315   32.3799 C   0  0  0  0  0  0  0  0  0  0  0  0
   19.3003    7.2708   32.6921 H   0  0  0  0  0  0  0  0  0  0  0  0
   24.0473    5.1011   30.5701 C   0  0  0  0  0  0  0  0  0  0  0  0
   23.8345    6.1852   29.7455 O   0  0  0  0  0  0  0  0  0  0  0  0
   24.9308    7.1026   29.5940 C   0  0  0  0  0  0  0  0  0  0  0  0
   24.6136    7.9601   28.9931 H   0  0  0  0  0  0  0  0  0  0  0  0
   25.2606    7.4703   30.5728 H   0  0  0  0  0  0  0  0  0  0  0  0
   25.7773    6.6229   29.0884 H   0  0  0  0  0  0  0  0  0  0  0  0
  1  2  1  0
  2  3  2  0
  3  4  1  0
  3  5  1  0
  5  6  1  0
  6  7  1  0
  7  8  1  0
  7  9  1  0
  7 10  1  0
  5 11  2  0
 11 12  1  0
 11 13  1  0
 13 14  1  0
 14 15  1  0
 14 16  1  0
 14 17  1  0
 17 18  2  0
 17 19  1  0
 19 20  1  0
 19 21  1  0
 21 22  2  0
 22 23  1  0
 23 24  1  0
 24 25  1  0
 24 26  1  0
 24 27  1  0
 27 28  1  0
 27 29  1  0
 27 30  1  0
 30 31  1  0
 31 32  1  0
 31 33  1  0
 31 34  1  0
 34 35  1  0
 34 36  1  0
 34 37  1  0
 30 38  1  0
 38 39  1  0
 38 40  1  0
 38 41  1  0
 41 42  1  0
 41 43  1  0
 41 44  1  0
 23 45  2  0
 45 46  1  0
 46 47  3  0
 45 48  1  0
 48 49  1  0
 49 50  1  0
 49 51  1  0
 48 52  2  0
 52 53  1  0
 13 54  2  0
 54 55  1  0
 55 56  1  0
 56 57  1  0
 56 58  1  0
 56 59  1  0
 54  2  1  0
 52 21  1  0
M  END
>  <score>  (137) 
7.42514

$$$$

     RDKit          3D

 50 51  0  0  0  0  0  0  0  0999 V2000
   26.1106    5.4905   30.8791 H   0  0  0  0  0  0  0  0  0  0  0  0
   25.2772    4.8381   31.1152 C   0  0  0  0  0  0  0  0  0  0  0  0
   25.5013    3.7448   31.9489 C   0  0  0  0  0  0  0  0  0  0  0  0
   27.2588    3.4669   32.6630 Br  0  0  0  0  0  0  0  0  0  0  0  0
   24.4412    2.8756   32.2508 C   0  0  0  0  0  0  0  0  0  0  0  0
   24.6734    1.7817   33.0515 O   0  0  0  0  0  0  0  0  0  0  0  0
   23.6273    0.7982   33.0762 C   0  0  0  0  0  0  0  0  0  0  0  0
   23.9303   -0.0577   33.6876 H   0  0  0  0  0  0  0  0  0  0  0  0
   23.4137    0.4439   32.0614 H   0  0  0  0  0  0  0  0  0  0  0  0
   22.7131    1.2268   33.5001 H   0  0  0  0  0  0  0  0  0  0  0  0
   23.1635    3.1544   31.7298 C   0  0  0  0  0  0  0  0  0  0  0  0
   22.3381    2.4952   31.9768 H   0  0  0  0  0  0  0  0  0  0  0  0
   22.9335    4.2589   30.9044 C   0  0  0  0  0  0  0  0  0  0  0  0
   21.5343    4.5245   30.3932 C   0  0  0  0  0  0  0  0  0  0  0  0
   21.5596    4.7516   29.3259 H   0  0  0  0  0  0  0  0  0  0  0  0
   20.9014    3.6490   30.5391 H   0  0  0  0  0  0  0  0  0  0  0  0
   20.9191    5.6992   31.1258 C   0  0  0  0  0  0  0  0  0  0  0  0
   19.7714    5.6382   31.5352 O   0  0  0  0  0  0  0  0  0  0  0  0
   21.6339    6.8524   31.2488 N   0  0  0  0  0  0  0  0  0  0  0  0
   22.4816    6.9606   30.7109 H   0  0  0  0  0  0  0  0  0  0  0  0
   21.1103    7.9967   31.7177 C   0  0  0  0  0  0  0  0  0  0  0  0
   21.8098    9.0358   31.3335 N   0  0  0  0  0  0  0  0  0  0  0  0
   21.3834   10.2531   31.6683 C   0  0  0  0  0  0  0  0  0  0  0  0
   22.1916   11.4309   31.1996 C   0  0  0  0  0  0  0  0  0  0  0  0
   22.8404   11.7852   31.9854 H   0  0  0  0  0  0  0  0  0  0  0  0
   21.5207   12.2516   30.9382 H   0  0  0  0  0  0  0  0  0  0  0  0
   23.0496   11.0453   30.0150 C   0  0  0  0  0  0  0  0  0  0  0  0
   23.6818   11.8873   29.7165 H   0  0  0  0  0  0  0  0  0  0  0  0
   23.6987   10.1982   30.2694 H   0  0  0  0  0  0  0  0  0  0  0  0
   22.1149   10.6807   28.9549 N   0  0  0  0  0  0  0  0  0  0  0  0
   21.5435   11.4827   28.6897 H   0  0  0  0  0  0  0  0  0  0  0  0
   22.6749   10.0244   27.7674 C   0  0  0  0  0  0  0  0  0  0  0  0
   23.0080    9.0091   28.0008 H   0  0  0  0  0  0  0  0  0  0  0  0
   21.9068    9.9675   26.9917 H   0  0  0  0  0  0  0  0  0  0  0  0
   23.5306   10.5854   27.3795 H   0  0  0  0  0  0  0  0  0  0  0  0
   20.2536   10.4359   32.4564 C   0  0  0  0  0  0  0  0  0  0  0  0
   19.8627   11.7415   32.8707 C   0  0  0  0  0  0  0  0  0  0  0  0
   19.6006   12.8221   33.2153 N   0  0  0  0  0  0  0  0  0  0  0  0
   19.5450    9.3200   32.8322 C   0  0  0  0  0  0  0  0  0  0  0  0
   18.4146    9.4362   33.5687 N   0  0  0  0  0  0  0  0  0  0  0  0
   18.0805   10.3683   33.8059 H   0  0  0  0  0  0  0  0  0  0  0  0
   17.9072    8.5978   33.8483 H   0  0  0  0  0  0  0  0  0  0  0  0
   19.9711    8.0794   32.4701 C   0  0  0  0  0  0  0  0  0  0  0  0
   19.4367    7.1962   32.7680 H   0  0  0  0  0  0  0  0  0  0  0  0
   24.0052    5.1196   30.5922 C   0  0  0  0  0  0  0  0  0  0  0  0
   23.7954    6.2270   29.8019 O   0  0  0  0  0  0  0  0  0  0  0  0
   24.9326    7.0860   29.6240 C   0  0  0  0  0  0  0  0  0  0  0  0
   25.7449    6.5385   29.1348 H   0  0  0  0  0  0  0  0  0  0  0  0
   24.6665    7.9486   29.0066 H   0  0  0  0  0  0  0  0  0  0  0  0
   25.2879    7.4445   30.5957 H   0  0  0  0  0  0  0  0  0  0  0  0
  1  2  1  0
  2  3  2  0
  3  4  1  0
  3  5  1  0
  5  6  1  0
  6  7  1  0
  7  8  1  0
  7  9  1  0
  7 10  1  0
  5 11  2  0
 11 12  1  0
 11 13  1  0
 13 14  1  0
 14 15  1  0
 14 16  1  0
 14 17  1  0
 17 18  2  0
 17 19  1  0
 19 20  1  0
 19 21  1  0
 21 22  2  0
 22 23  1  0
 23 24  1  0
 24 25  1  0
 24 26  1  0
 24 27  1  0
 27 28  1  0
 27 29  1  0
 27 30  1  0
 30 31  1  0
 30 32  1  0
 32 33  1  0
 32 34  1  0
 32 35  1  0
 23 36  2  0
 36 37  1  0
 37 38  3  0
 36 39  1  0
 39 40  1  0
 40 41  1  0
 40 42  1  0
 39 43  2  0
 43 44  1  0
 13 45  2  0
 45 46  1  0
 46 47  1  0
 47 48  1  0
 47 49  1  0
 47 50  1  0
 45  2  1  0
 43 21  1  0
M  END
>  <score>  (138) 
7.42572

$$$$

     RDKit          3D

 53 55  0  0  0  0  0  0  0  0999 V2000
   26.0428    5.5816   30.9980 H   0  0  0  0  0  0  0  0  0  0  0  0
   25.2151    4.9110   31.2043 C   0  0  0  0  0  0  0  0  0  0  0  0
   25.4368    3.7669   31.9808 C   0  0  0  0  0  0  0  0  0  0  0  0
   27.1987    3.4310   32.6574 Br  0  0  0  0  0  0  0  0  0  0  0  0
   24.3757    2.8877   32.2538 C   0  0  0  0  0  0  0  0  0  0  0  0
   24.6010    1.7703   33.0262 O   0  0  0  0  0  0  0  0  0  0  0  0
   23.5465    0.7949   33.0633 C   0  0  0  0  0  0  0  0  0  0  0  0
   22.6336    1.2189   33.4943 H   0  0  0  0  0  0  0  0  0  0  0  0
   23.3247    0.4349   32.0536 H   0  0  0  0  0  0  0  0  0  0  0  0
   23.8514   -0.0588   33.6756 H   0  0  0  0  0  0  0  0  0  0  0  0
   23.1056    3.1909   31.7420 C   0  0  0  0  0  0  0  0  0  0  0  0
   22.2872    2.5113   31.9542 H   0  0  0  0  0  0  0  0  0  0  0  0
   22.8715    4.3386   30.9765 C   0  0  0  0  0  0  0  0  0  0  0  0
   21.4494    4.6003   30.5195 C   0  0  0  0  0  0  0  0  0  0  0  0
   21.4436    4.9024   29.4697 H   0  0  0  0  0  0  0  0  0  0  0  0
   20.8552    3.6873   30.6047 H   0  0  0  0  0  0  0  0  0  0  0  0
   20.7933    5.6853   31.3661 C   0  0  0  0  0  0  0  0  0  0  0  0
   19.6372    5.5776   31.7428 O   0  0  0  0  0  0  0  0  0  0  0  0
   21.4907    6.8337   31.5963 N   0  0  0  0  0  0  0  0  0  0  0  0
   22.3363    6.9760   31.0639 H   0  0  0  0  0  0  0  0  0  0  0  0
   20.9559    7.9727   32.0787 C   0  0  0  0  0  0  0  0  0  0  0  0
   21.7268    8.9973   31.7874 N   0  0  0  0  0  0  0  0  0  0  0  0
   21.3514   10.2656   32.0818 C   0  0  0  0  0  0  0  0  0  0  0  0
   22.2275   11.4216   31.5911 C   0  0  0  0  0  0  0  0  0  0  0  0
   22.1325   12.5570   32.0686 O   0  0  0  0  0  0  0  0  0  0  0  0
   23.1289   11.2445   30.5326 N   0  0  0  0  0  0  0  0  0  0  0  0
   23.8985   12.3174   29.9073 C   0  0  0  0  0  0  0  0  0  0  0  0
   23.3365   13.2585   29.8963 H   0  0  0  0  0  0  0  0  0  0  0  0
   24.8596   12.4743   30.4120 H   0  0  0  0  0  0  0  0  0  0  0  0
   24.1134   11.8023   28.4826 C   0  0  0  0  0  0  0  0  0  0  0  0
   24.0497   12.6015   27.7374 H   0  0  0  0  0  0  0  0  0  0  0  0
   25.0947   11.3215   28.4080 H   0  0  0  0  0  0  0  0  0  0  0  0
   23.0348   10.7446   28.2932 C   0  0  0  0  0  0  0  0  0  0  0  0
   23.2668   10.0342   27.4948 H   0  0  0  0  0  0  0  0  0  0  0  0
   22.0709   11.2170   28.0730 H   0  0  0  0  0  0  0  0  0  0  0  0
   22.9936   10.0922   29.6577 C   0  0  0  0  0  0  0  0  0  0  0  0
   23.8402    9.4131   29.8022 H   0  0  0  0  0  0  0  0  0  0  0  0
   22.0567    9.5439   29.7995 H   0  0  0  0  0  0  0  0  0  0  0  0
   20.1332   10.4558   32.7615 C   0  0  0  0  0  0  0  0  0  0  0  0
   19.6787   11.7526   33.1390 C   0  0  0  0  0  0  0  0  0  0  0  0
   19.3127   12.8000   33.4886 N   0  0  0  0  0  0  0  0  0  0  0  0
   19.3538    9.3535   33.0490 C   0  0  0  0  0  0  0  0  0  0  0  0
   18.1463    9.4551   33.6506 N   0  0  0  0  0  0  0  0  0  0  0  0
   17.7433    8.5875   34.0008 H   0  0  0  0  0  0  0  0  0  0  0  0
   17.9242   10.3304   34.1188 H   0  0  0  0  0  0  0  0  0  0  0  0
   19.7576    8.0997   32.7122 C   0  0  0  0  0  0  0  0  0  0  0  0
   19.1456    7.2423   32.9203 H   0  0  0  0  0  0  0  0  0  0  0  0
   23.9424    5.2175   30.6904 C   0  0  0  0  0  0  0  0  0  0  0  0
   23.7206    6.3492   29.9330 O   0  0  0  0  0  0  0  0  0  0  0  0
   24.8796    7.1368   29.6060 C   0  0  0  0  0  0  0  0  0  0  0  0
   25.6400    6.5261   29.1077 H   0  0  0  0  0  0  0  0  0  0  0  0
   25.3170    7.5688   30.5120 H   0  0  0  0  0  0  0  0  0  0  0  0
   24.6025    7.9514   28.9309 H   0  0  0  0  0  0  0  0  0  0  0  0
  1  2  1  0
  2  3  2  0
  3  4  1  0
  3  5  1  0
  5  6  1  0
  6  7  1  0
  7  8  1  0
  7  9  1  0
  7 10  1  0
  5 11  2  0
 11 12  1  0
 11 13  1  0
 13 14  1  0
 14 15  1  0
 14 16  1  0
 14 17  1  0
 17 18  2  0
 17 19  1  0
 19 20  1  0
 19 21  1  0
 21 22  2  0
 22 23  1  0
 23 24  1  0
 24 25  2  0
 24 26  1  0
 26 27  1  0
 27 28  1  0
 27 29  1  0
 27 30  1  0
 30 31  1  0
 30 32  1  0
 30 33  1  0
 33 34  1  0
 33 35  1  0
 33 36  1  0
 36 37  1  0
 36 38  1  0
 23 39  2  0
 39 40  1  0
 40 41  3  0
 39 42  1  0
 42 43  1  0
 43 44  1  0
 43 45  1  0
 42 46  2  0
 46 47  1  0
 13 48  2  0
 48 49  1  0
 49 50  1  0
 50 51  1  0
 50 52  1  0
 50 53  1  0
 48  2  1  0
 46 21  1  0
 36 26  1  0
M  END
>  <score>  (139) 
7.42676

$$$$

     RDKit          3D

 51 53  0  0  0  0  0  0  0  0999 V2000
   22.8194    9.9786   26.8801 H   0  0  0  0  0  0  0  0  0  0  0  0
   23.2594   10.4880   27.7324 C   0  0  0  0  0  0  0  0  0  0  0  0
   22.5420   10.5979   28.9226 C   0  0  0  0  0  0  0  0  0  0  0  0
   21.5482   10.1583   28.9823 H   0  0  0  0  0  0  0  0  0  0  0  0
   23.0836   11.2993   30.0106 C   0  0  0  0  0  0  0  0  0  0  0  0
   22.2967   11.4005   31.2478 C   0  0  0  0  0  0  0  0  0  0  0  0
   22.3411   12.4636   31.8788 O   0  0  0  0  0  0  0  0  0  0  0  0
   21.4104   10.2539   31.6858 C   0  0  0  0  0  0  0  0  0  0  0  0
   21.7274    8.9863   31.3279 N   0  0  0  0  0  0  0  0  0  0  0  0
   20.9807    7.9665   31.7231 C   0  0  0  0  0  0  0  0  0  0  0  0
   21.5614    6.8035   31.3712 N   0  0  0  0  0  0  0  0  0  0  0  0
   22.4530    6.9285   30.9204 H   0  0  0  0  0  0  0  0  0  0  0  0
   20.9018    5.6324   31.1319 C   0  0  0  0  0  0  0  0  0  0  0  0
   19.7128    5.5422   31.3798 O   0  0  0  0  0  0  0  0  0  0  0  0
   21.6110    4.5395   30.3359 C   0  0  0  0  0  0  0  0  0  0  0  0
   21.7095    4.8821   29.3050 H   0  0  0  0  0  0  0  0  0  0  0  0
   21.0067    3.6277   30.3217 H   0  0  0  0  0  0  0  0  0  0  0  0
   22.9916    4.2488   30.8828 C   0  0  0  0  0  0  0  0  0  0  0  0
   23.1788    3.1433   31.7303 C   0  0  0  0  0  0  0  0  0  0  0  0
   22.3462    2.4956   31.9812 H   0  0  0  0  0  0  0  0  0  0  0  0
   24.4394    2.8431   32.2728 C   0  0  0  0  0  0  0  0  0  0  0  0
   24.6641    1.7821   33.1227 O   0  0  0  0  0  0  0  0  0  0  0  0
   23.6884    0.7339   33.1402 C   0  0  0  0  0  0  0  0  0  0  0  0
   23.4978    0.3633   32.1289 H   0  0  0  0  0  0  0  0  0  0  0  0
   24.0669   -0.0951   33.7422 H   0  0  0  0  0  0  0  0  0  0  0  0
   22.7508    1.0777   33.5842 H   0  0  0  0  0  0  0  0  0  0  0  0
   25.5227    3.6755   31.9459 C   0  0  0  0  0  0  0  0  0  0  0  0
   27.2717    3.3084   32.6349 Br  0  0  0  0  0  0  0  0  0  0  0  0
   25.3422    4.7814   31.1007 C   0  0  0  0  0  0  0  0  0  0  0  0
   26.1853    5.4160   30.8447 H   0  0  0  0  0  0  0  0  0  0  0  0
   24.0814    5.0879   30.5678 C   0  0  0  0  0  0  0  0  0  0  0  0
   23.8607    6.1799   29.7549 O   0  0  0  0  0  0  0  0  0  0  0  0
   24.9315    7.1190   29.5876 C   0  0  0  0  0  0  0  0  0  0  0  0
   25.2621    7.5035   30.5558 H   0  0  0  0  0  0  0  0  0  0  0  0
   24.5842    7.9632   28.9866 H   0  0  0  0  0  0  0  0  0  0  0  0
   25.7783    6.6593   29.0712 H   0  0  0  0  0  0  0  0  0  0  0  0
   19.8413    8.1036   32.4604 C   0  0  0  0  0  0  0  0  0  0  0  0
   19.2331    7.2660   32.7695 H   0  0  0  0  0  0  0  0  0  0  0  0
   19.5188    9.3672   32.8497 C   0  0  0  0  0  0  0  0  0  0  0  0
   18.4399    9.4861   33.6559 N   0  0  0  0  0  0  0  0  0  0  0  0
   17.9029    8.6610   33.9098 H   0  0  0  0  0  0  0  0  0  0  0  0
   18.1428   10.4074   33.9541 H   0  0  0  0  0  0  0  0  0  0  0  0
   20.2798   10.4662   32.4847 C   0  0  0  0  0  0  0  0  0  0  0  0
   19.9336   11.7880   32.9123 C   0  0  0  0  0  0  0  0  0  0  0  0
   19.6665   12.8767   33.2249 N   0  0  0  0  0  0  0  0  0  0  0  0
   24.3482   11.9009   29.8815 C   0  0  0  0  0  0  0  0  0  0  0  0
   24.7794   12.4641   30.7049 H   0  0  0  0  0  0  0  0  0  0  0  0
   25.0446   11.8133   28.6740 C   0  0  0  0  0  0  0  0  0  0  0  0
   26.0032   12.3056   28.5519 H   0  0  0  0  0  0  0  0  0  0  0  0
   24.5051   11.1114   27.5969 C   0  0  0  0  0  0  0  0  0  0  0  0
   25.3857   11.0461   26.0915 Cl  0  0  0  0  0  0  0  0  0  0  0  0
  1  2  1  0
  2  3  2  0
  3  4  1  0
  3  5  1  0
  5  6  1  0
  6  7  2  0
  6  8  1  0
  8  9  2  0
  9 10  1  0
 10 11  1  0
 11 12  1  0
 11 13  1  0
 13 14  2  0
 13 15  1  0
 15 16  1  0
 15 17  1  0
 15 18  1  0
 18 19  2  0
 19 20  1  0
 19 21  1  0
 21 22  1  0
 22 23  1  0
 23 24  1  0
 23 25  1  0
 23 26  1  0
 21 27  2  0
 27 28  1  0
 27 29  1  0
 29 30  1  0
 29 31  2  0
 31 32  1  0
 32 33  1  0
 33 34  1  0
 33 35  1  0
 33 36  1  0
 10 37  2  0
 37 38  1  0
 37 39  1  0
 39 40  1  0
 40 41  1  0
 40 42  1  0
 39 43  2  0
 43 44  1  0
 44 45  3  0
  5 46  2  0
 46 47  1  0
 46 48  1  0
 48 49  1  0
 48 50  2  0
 50 51  1  0
 50  2  1  0
 43  8  1  0
 31 18  1  0
M  END
>  <score>  (140) 
7.42922

$$$$

     RDKit          3D

 48 50  0  0  0  0  0  0  0  0999 V2000
   20.0452   14.1788   28.5101 H   0  0  0  0  0  0  0  0  0  0  0  0
   20.6499   13.3321   28.8237 C   0  0  0  0  0  0  0  0  0  0  0  0
   21.2028   12.4292   27.9262 N   0  0  0  0  0  0  0  0  0  0  0  0
   21.8265   11.5823   28.6913 C   0  0  0  0  0  0  0  0  0  0  0  0
   22.3651   10.7008   28.3565 H   0  0  0  0  0  0  0  0  0  0  0  0
   21.6769   11.9712   30.0133 N   0  0  0  0  0  0  0  0  0  0  0  0
   22.2548   11.3369   31.2014 C   0  0  0  0  0  0  0  0  0  0  0  0
   22.3294   12.0773   31.9969 H   0  0  0  0  0  0  0  0  0  0  0  0
   23.2608   10.9590   31.0037 H   0  0  0  0  0  0  0  0  0  0  0  0
   21.3833   10.2215   31.6858 C   0  0  0  0  0  0  0  0  0  0  0  0
   21.7693    8.9893   31.3648 N   0  0  0  0  0  0  0  0  0  0  0  0
   21.0302    7.9755   31.7562 C   0  0  0  0  0  0  0  0  0  0  0  0
   21.6010    6.8235   31.3605 N   0  0  0  0  0  0  0  0  0  0  0  0
   22.4634    6.9529   30.8531 H   0  0  0  0  0  0  0  0  0  0  0  0
   20.9225    5.6662   31.1396 C   0  0  0  0  0  0  0  0  0  0  0  0
   19.7294    5.6085   31.3943 O   0  0  0  0  0  0  0  0  0  0  0  0
   21.5999    4.5566   30.3557 C   0  0  0  0  0  0  0  0  0  0  0  0
   20.9730    3.6642   30.3825 H   0  0  0  0  0  0  0  0  0  0  0  0
   21.6793    4.8930   29.3178 H   0  0  0  0  0  0  0  0  0  0  0  0
   22.9831    4.2495   30.8934 C   0  0  0  0  0  0  0  0  0  0  0  0
   23.1788    3.1405   31.7324 C   0  0  0  0  0  0  0  0  0  0  0  0
   22.3450    2.4910   31.9823 H   0  0  0  0  0  0  0  0  0  0  0  0
   24.4453    2.8513   32.2690 C   0  0  0  0  0  0  0  0  0  0  0  0
   24.6704    1.7858   33.1104 O   0  0  0  0  0  0  0  0  0  0  0  0
   23.6802    0.7450   33.1304 C   0  0  0  0  0  0  0  0  0  0  0  0
   22.7434    1.1052   33.5680 H   0  0  0  0  0  0  0  0  0  0  0  0
   24.0433   -0.0945   33.7338 H   0  0  0  0  0  0  0  0  0  0  0  0
   23.4851    0.3803   32.1163 H   0  0  0  0  0  0  0  0  0  0  0  0
   25.5239    3.6907   31.9437 C   0  0  0  0  0  0  0  0  0  0  0  0
   27.2735    3.3424   32.6373 Br  0  0  0  0  0  0  0  0  0  0  0  0
   25.3302    4.7906   31.1012 C   0  0  0  0  0  0  0  0  0  0  0  0
   26.1712    5.4258   30.8486 H   0  0  0  0  0  0  0  0  0  0  0  0
   24.0666    5.0918   30.5745 C   0  0  0  0  0  0  0  0  0  0  0  0
   23.8447    6.1840   29.7630 O   0  0  0  0  0  0  0  0  0  0  0  0
   24.9340    7.1064   29.5955 C   0  0  0  0  0  0  0  0  0  0  0  0
   25.2720    7.4828   30.5671 H   0  0  0  0  0  0  0  0  0  0  0  0
   25.7772    6.6284   29.0850 H   0  0  0  0  0  0  0  0  0  0  0  0
   24.6044    7.9579   28.9919 H   0  0  0  0  0  0  0  0  0  0  0  0
   19.8675    8.1060   32.4711 C   0  0  0  0  0  0  0  0  0  0  0  0
   19.2711    7.2582   32.7605 H   0  0  0  0  0  0  0  0  0  0  0  0
   19.5176    9.3634   32.8556 C   0  0  0  0  0  0  0  0  0  0  0  0
   18.4423    9.4857   33.6691 N   0  0  0  0  0  0  0  0  0  0  0  0
   18.1276   10.4171   33.9277 H   0  0  0  0  0  0  0  0  0  0  0  0
   17.8969    8.6561   33.8972 H   0  0  0  0  0  0  0  0  0  0  0  0
   20.2598   10.4550   32.4663 C   0  0  0  0  0  0  0  0  0  0  0  0
   19.9184   11.7766   32.8758 C   0  0  0  0  0  0  0  0  0  0  0  0
   19.6820   12.8576   33.2338 N   0  0  0  0  0  0  0  0  0  0  0  0
   20.9110   13.0760   30.0800 N   0  0  0  0  0  0  0  0  0  0  0  0
  1  2  1  0
  2  3  1  0
  3  4  2  0
  4  5  1  0
  4  6  1  0
  6  7  1  0
  7  8  1  0
  7  9  1  0
  7 10  1  0
 10 11  2  0
 11 12  1  0
 12 13  1  0
 13 14  1  0
 13 15  1  0
 15 16  2  0
 15 17  1  0
 17 18  1  0
 17 19  1  0
 17 20  1  0
 20 21  2  0
 21 22  1  0
 21 23  1  0
 23 24  1  0
 24 25  1  0
 25 26  1  0
 25 27  1  0
 25 28  1  0
 23 29  2  0
 29 30  1  0
 29 31  1  0
 31 32  1  0
 31 33  2  0
 33 34  1  0
 34 35  1  0
 35 36  1  0
 35 37  1  0
 35 38  1  0
 12 39  2  0
 39 40  1  0
 39 41  1  0
 41 42  1  0
 42 43  1  0
 42 44  1  0
 41 45  2  0
 45 46  1  0
 46 47  3  0
  6 48  1  0
 48  2  2  0
 45 10  1  0
 33 20  1  0
M  END
>  <score>  (141) 
7.42927

$$$$

     RDKit          3D

 47 48  0  0  0  0  0  0  0  0999 V2000
   26.1769    5.4218   30.8446 H   0  0  0  0  0  0  0  0  0  0  0  0
   25.3363    4.7865   31.1030 C   0  0  0  0  0  0  0  0  0  0  0  0
   25.5214    3.6818   31.9448 C   0  0  0  0  0  0  0  0  0  0  0  0
   27.2716    3.3246   32.6353 Br  0  0  0  0  0  0  0  0  0  0  0  0
   24.4400    2.8478   32.2718 C   0  0  0  0  0  0  0  0  0  0  0  0
   24.6675    1.7849   33.1162 O   0  0  0  0  0  0  0  0  0  0  0  0
   23.6849    0.7403   33.1350 C   0  0  0  0  0  0  0  0  0  0  0  0
   23.4913    0.3707   32.1225 H   0  0  0  0  0  0  0  0  0  0  0  0
   24.0552   -0.0942   33.7376 H   0  0  0  0  0  0  0  0  0  0  0  0
   22.7464    1.0898   33.5766 H   0  0  0  0  0  0  0  0  0  0  0  0
   23.1776    3.1442   31.7323 C   0  0  0  0  0  0  0  0  0  0  0  0
   22.3454    2.4939   31.9825 H   0  0  0  0  0  0  0  0  0  0  0  0
   22.9881    4.2523   30.8909 C   0  0  0  0  0  0  0  0  0  0  0  0
   21.6082    4.5528   30.3475 C   0  0  0  0  0  0  0  0  0  0  0  0
   20.9872    3.6519   30.3546 H   0  0  0  0  0  0  0  0  0  0  0  0
   21.6980    4.8928   29.3140 H   0  0  0  0  0  0  0  0  0  0  0  0
   20.9212    5.6641   31.1354 C   0  0  0  0  0  0  0  0  0  0  0  0
   19.7298    5.5902   31.3866 O   0  0  0  0  0  0  0  0  0  0  0  0
   21.6015    6.8243   31.3573 N   0  0  0  0  0  0  0  0  0  0  0  0
   22.4840    6.9337   30.8762 H   0  0  0  0  0  0  0  0  0  0  0  0
   21.0378    7.9907   31.7309 C   0  0  0  0  0  0  0  0  0  0  0  0
   21.7813    9.0066   31.3430 N   0  0  0  0  0  0  0  0  0  0  0  0
   21.4144   10.2458   31.6739 C   0  0  0  0  0  0  0  0  0  0  0  0
   22.2503   11.3977   31.1993 C   0  0  0  0  0  0  0  0  0  0  0  0
   21.6503   12.0423   30.5581 H   0  0  0  0  0  0  0  0  0  0  0  0
   22.5618   11.9996   32.0499 H   0  0  0  0  0  0  0  0  0  0  0  0
   23.4651   10.9337   30.4253 C   0  0  0  0  0  0  0  0  0  0  0  0
   24.0646   10.2373   31.0226 H   0  0  0  0  0  0  0  0  0  0  0  0
   23.1482   10.4198   29.5116 H   0  0  0  0  0  0  0  0  0  0  0  0
   24.2392   12.1239   30.0974 N   0  0  0  0  0  0  0  0  0  0  0  0
   24.9782   11.9007   29.4274 H   0  0  0  0  0  0  0  0  0  0  0  0
   24.6146   12.5565   30.9427 H   0  0  0  0  0  0  0  0  0  0  0  0
   20.2913   10.4788   32.4528 C   0  0  0  0  0  0  0  0  0  0  0  0
   19.9529   11.7997   32.8710 C   0  0  0  0  0  0  0  0  0  0  0  0
   19.6944   12.8810   33.2167 N   0  0  0  0  0  0  0  0  0  0  0  0
   19.5424    9.3859   32.8353 C   0  0  0  0  0  0  0  0  0  0  0  0
   18.4650    9.4975   33.6447 N   0  0  0  0  0  0  0  0  0  0  0  0
   17.9303    8.6651   33.8862 H   0  0  0  0  0  0  0  0  0  0  0  0
   18.1554   10.4193   33.9295 H   0  0  0  0  0  0  0  0  0  0  0  0
   19.8786    8.1254   32.4505 C   0  0  0  0  0  0  0  0  0  0  0  0
   19.2756    7.2779   32.7430 H   0  0  0  0  0  0  0  0  0  0  0  0
   24.0750    5.0925   30.5723 C   0  0  0  0  0  0  0  0  0  0  0  0
   23.8509    6.1820   29.7575 O   0  0  0  0  0  0  0  0  0  0  0  0
   24.9318    7.1121   29.5922 C   0  0  0  0  0  0  0  0  0  0  0  0
   25.2658    7.4943   30.5628 H   0  0  0  0  0  0  0  0  0  0  0  0
   24.5951    7.9604   28.9900 H   0  0  0  0  0  0  0  0  0  0  0  0
   25.7791    6.6452   29.0782 H   0  0  0  0  0  0  0  0  0  0  0  0
  1  2  1  0
  2  3  2  0
  3  4  1  0
  3  5  1  0
  5  6  1  0
  6  7  1  0
  7  8  1  0
  7  9  1  0
  7 10  1  0
  5 11  2  0
 11 12  1  0
 11 13  1  0
 13 14  1  0
 14 15  1  0
 14 16  1  0
 14 17  1  0
 17 18  2  0
 17 19  1  0
 19 20  1  0
 19 21  1  0
 21 22  2  0
 22 23  1  0
 23 24  1  0
 24 25  1  0
 24 26  1  0
 24 27  1  0
 27 28  1  0
 27 29  1  0
 27 30  1  0
 30 31  1  0
 30 32  1  0
 23 33  2  0
 33 34  1  0
 34 35  3  0
 33 36  1  0
 36 37  1  0
 37 38  1  0
 37 39  1  0
 36 40  2  0
 40 41  1  0
 13 42  2  0
 42 43  1  0
 43 44  1  0
 44 45  1  0
 44 46  1  0
 44 47  1  0
 42  2  1  0
 40 21  1  0
M  END
>  <score>  (142) 
7.42987

$$$$

     RDKit          3D

 54 56  0  0  0  0  0  0  0  0999 V2000
   26.1246    5.4799   30.8880 H   0  0  0  0  0  0  0  0  0  0  0  0
   25.2984    4.8164   31.1192 C   0  0  0  0  0  0  0  0  0  0  0  0
   25.5107    3.7156   31.9544 C   0  0  0  0  0  0  0  0  0  0  0  0
   27.2655    3.4209   32.6659 Br  0  0  0  0  0  0  0  0  0  0  0  0
   24.4473    2.8506   32.2580 C   0  0  0  0  0  0  0  0  0  0  0  0
   24.6763    1.7728   33.0812 O   0  0  0  0  0  0  0  0  0  0  0  0
   23.6501    0.7712   33.1032 C   0  0  0  0  0  0  0  0  0  0  0  0
   23.4424    0.4135   32.0894 H   0  0  0  0  0  0  0  0  0  0  0  0
   23.9732   -0.0786   33.7110 H   0  0  0  0  0  0  0  0  0  0  0  0
   22.7275    1.1759   33.5303 H   0  0  0  0  0  0  0  0  0  0  0  0
   23.1815    3.1183   31.7112 C   0  0  0  0  0  0  0  0  0  0  0  0
   22.3572    2.4577   31.9612 H   0  0  0  0  0  0  0  0  0  0  0  0
   22.9696    4.2109   30.8622 C   0  0  0  0  0  0  0  0  0  0  0  0
   21.5792    4.4524   30.3199 C   0  0  0  0  0  0  0  0  0  0  0  0
   21.6339    4.7095   29.2600 H   0  0  0  0  0  0  0  0  0  0  0  0
   20.9660    3.5527   30.4163 H   0  0  0  0  0  0  0  0  0  0  0  0
   20.9204    5.5961   31.0783 C   0  0  0  0  0  0  0  0  0  0  0  0
   19.7689    5.5106   31.4693 O   0  0  0  0  0  0  0  0  0  0  0  0
   21.6258    6.7519   31.2582 N   0  0  0  0  0  0  0  0  0  0  0  0
   22.4773    6.8746   30.7344 H   0  0  0  0  0  0  0  0  0  0  0  0
   21.1235    7.8922   31.7699 C   0  0  0  0  0  0  0  0  0  0  0  0
   21.8406    8.9387   31.4047 N   0  0  0  0  0  0  0  0  0  0  0  0
   21.4363   10.1712   31.7678 C   0  0  0  0  0  0  0  0  0  0  0  0
   22.3281   11.3795   31.4216 C   0  0  0  0  0  0  0  0  0  0  0  0
   22.3066   12.0553   32.2800 H   0  0  0  0  0  0  0  0  0  0  0  0
   23.3611   11.0376   31.2999 H   0  0  0  0  0  0  0  0  0  0  0  0
   21.9368   12.1958   30.2401 N   0  0  0  0  0  0  0  0  0  0  0  0
   22.5023   13.5427   30.0642 C   0  0  0  0  0  0  0  0  0  0  0  0
   22.1697   14.2210   30.8541 H   0  0  0  0  0  0  0  0  0  0  0  0
   23.5971   13.5093   30.0621 H   0  0  0  0  0  0  0  0  0  0  0  0
   21.9880   13.9911   28.6969 C   0  0  0  0  0  0  0  0  0  0  0  0
   22.8235   14.2181   28.0242 H   0  0  0  0  0  0  0  0  0  0  0  0
   21.3511   14.8772   28.7827 H   0  0  0  0  0  0  0  0  0  0  0  0
   21.1998   12.7885   28.1914 C   0  0  0  0  0  0  0  0  0  0  0  0
   20.1521   12.8875   28.4990 H   0  0  0  0  0  0  0  0  0  0  0  0
   21.2331   12.7077   27.1088 H   0  0  0  0  0  0  0  0  0  0  0  0
   21.8450   11.6017   28.9061 C   0  0  0  0  0  0  0  0  0  0  0  0
   22.8368   11.3592   28.4941 H   0  0  0  0  0  0  0  0  0  0  0  0
   21.2384   10.6935   28.8974 H   0  0  0  0  0  0  0  0  0  0  0  0
   20.2851   10.3328   32.5388 C   0  0  0  0  0  0  0  0  0  0  0  0
   19.8681   11.6224   32.9803 C   0  0  0  0  0  0  0  0  0  0  0  0
   19.5381   12.6694   33.3621 N   0  0  0  0  0  0  0  0  0  0  0  0
   19.5918    9.2138   32.9211 C   0  0  0  0  0  0  0  0  0  0  0  0
   18.4823    9.3135   33.6827 N   0  0  0  0  0  0  0  0  0  0  0  0
   17.9100   10.1454   33.5569 H   0  0  0  0  0  0  0  0  0  0  0  0
   18.0528    8.4437   33.9814 H   0  0  0  0  0  0  0  0  0  0  0  0
   20.0041    7.9719   32.5526 C   0  0  0  0  0  0  0  0  0  0  0  0
   19.4607    7.0952   32.8623 H   0  0  0  0  0  0  0  0  0  0  0  0
   24.0350    5.0897   30.5728 C   0  0  0  0  0  0  0  0  0  0  0  0
   23.8091    6.2009   29.7885 O   0  0  0  0  0  0  0  0  0  0  0  0
   24.9265    7.0861   29.6128 C   0  0  0  0  0  0  0  0  0  0  0  0
   25.7497    6.5670   29.1117 H   0  0  0  0  0  0  0  0  0  0  0  0
   24.6332    7.9448   29.0026 H   0  0  0  0  0  0  0  0  0  0  0  0
   25.2828    7.4541   30.5807 H   0  0  0  0  0  0  0  0  0  0  0  0
  1  2  1  0
  2  3  2  0
  3  4  1  0
  3  5  1  0
  5  6  1  0
  6  7  1  0
  7  8  1  0
  7  9  1  0
  7 10  1  0
  5 11  2  0
 11 12  1  0
 11 13  1  0
 13 14  1  0
 14 15  1  0
 14 16  1  0
 14 17  1  0
 17 18  2  0
 17 19  1  0
 19 20  1  0
 19 21  1  0
 21 22  2  0
 22 23  1  0
 23 24  1  0
 24 25  1  0
 24 26  1  0
 24 27  1  0
 27 28  1  0
 28 29  1  0
 28 30  1  0
 28 31  1  0
 31 32  1  0
 31 33  1  0
 31 34  1  0
 34 35  1  0
 34 36  1  0
 34 37  1  0
 37 38  1  0
 37 39  1  0
 23 40  2  0
 40 41  1  0
 41 42  3  0
 40 43  1  0
 43 44  1  0
 44 45  1  0
 44 46  1  0
 43 47  2  0
 47 48  1  0
 13 49  2  0
 49 50  1  0
 50 51  1  0
 51 52  1  0
 51 53  1  0
 51 54  1  0
 49  2  1  0
 47 21  1  0
 37 27  1  0
M  END
>  <score>  (143) 
7.43059

$$$$

     RDKit          3D

 49 50  0  0  0  0  0  0  0  0999 V2000
   27.6329   12.3985   29.3216 H   0  0  0  0  0  0  0  0  0  0  0  0
   26.9294   12.7717   29.8759 O   0  0  0  0  0  0  0  0  0  0  0  0
   25.9228   11.8532   29.8024 C   0  0  0  0  0  0  0  0  0  0  0  0
   26.0491   10.8132   29.1661 O   0  0  0  0  0  0  0  0  0  0  0  0
   24.6019   12.0926   30.5260 C   0  0  0  0  0  0  0  0  0  0  0  0
   24.2606   13.2587   31.1777 O   0  0  0  0  0  0  0  0  0  0  0  0
   23.3265   13.1699   31.4737 H   0  0  0  0  0  0  0  0  0  0  0  0
   23.5837   11.1543   30.6200 C   0  0  0  0  0  0  0  0  0  0  0  0
   23.7180   10.1762   30.1631 H   0  0  0  0  0  0  0  0  0  0  0  0
   22.3461   11.3951   31.3996 C   0  0  0  0  0  0  0  0  0  0  0  0
   22.1242   12.5667   31.7303 O   0  0  0  0  0  0  0  0  0  0  0  0
   21.4192   10.2603   31.7893 C   0  0  0  0  0  0  0  0  0  0  0  0
   21.7658    9.0081   31.4282 N   0  0  0  0  0  0  0  0  0  0  0  0
   21.0273    7.9776   31.7787 C   0  0  0  0  0  0  0  0  0  0  0  0
   21.5721    6.8348   31.3228 N   0  0  0  0  0  0  0  0  0  0  0  0
   22.4579    6.9434   30.8520 H   0  0  0  0  0  0  0  0  0  0  0  0
   20.8834    5.6762   31.1360 C   0  0  0  0  0  0  0  0  0  0  0  0
   19.7185    5.5981   31.4893 O   0  0  0  0  0  0  0  0  0  0  0  0
   21.5554    4.5360   30.3809 C   0  0  0  0  0  0  0  0  0  0  0  0
   20.9282    3.6441   30.4564 H   0  0  0  0  0  0  0  0  0  0  0  0
   21.6094    4.8164   29.3279 H   0  0  0  0  0  0  0  0  0  0  0  0
   22.9568    4.2568   30.9013 C   0  0  0  0  0  0  0  0  0  0  0  0
   23.1754    3.1450   31.7279 C   0  0  0  0  0  0  0  0  0  0  0  0
   22.3517    2.4827   31.9724 H   0  0  0  0  0  0  0  0  0  0  0  0
   24.4464    2.8588   32.2580 C   0  0  0  0  0  0  0  0  0  0  0  0
   24.6797    1.7774   33.0761 O   0  0  0  0  0  0  0  0  0  0  0  0
   23.6585    0.7717   33.1031 C   0  0  0  0  0  0  0  0  0  0  0  0
   22.7369    1.1718   33.5365 H   0  0  0  0  0  0  0  0  0  0  0  0
   23.4519    0.4096   32.0905 H   0  0  0  0  0  0  0  0  0  0  0  0
   23.9871   -0.0750   33.7119 H   0  0  0  0  0  0  0  0  0  0  0  0
   25.5144    3.7148   31.9476 C   0  0  0  0  0  0  0  0  0  0  0  0
   27.2704    3.4182   32.6543 Br  0  0  0  0  0  0  0  0  0  0  0  0
   25.3065    4.8135   31.1114 C   0  0  0  0  0  0  0  0  0  0  0  0
   26.1421    5.4595   30.8669 H   0  0  0  0  0  0  0  0  0  0  0  0
   24.0381    5.1060   30.5863 C   0  0  0  0  0  0  0  0  0  0  0  0
   23.8175    6.2063   29.7889 O   0  0  0  0  0  0  0  0  0  0  0  0
   24.9358    7.0884   29.6147 C   0  0  0  0  0  0  0  0  0  0  0  0
   25.2854    7.4579   30.5846 H   0  0  0  0  0  0  0  0  0  0  0  0
   25.7601    6.5710   29.1124 H   0  0  0  0  0  0  0  0  0  0  0  0
   24.6434    7.9455   29.0040 H   0  0  0  0  0  0  0  0  0  0  0  0
   19.8762    8.0822   32.5038 C   0  0  0  0  0  0  0  0  0  0  0  0
   19.2958    7.2139   32.7662 H   0  0  0  0  0  0  0  0  0  0  0  0
   19.4830    9.3328   32.8686 C   0  0  0  0  0  0  0  0  0  0  0  0
   18.3070    9.4402   33.5384 N   0  0  0  0  0  0  0  0  0  0  0  0
   17.8823    8.5964   33.9211 H   0  0  0  0  0  0  0  0  0  0  0  0
   18.0706   10.3458   33.9326 H   0  0  0  0  0  0  0  0  0  0  0  0
   20.2441   10.4445   32.5386 C   0  0  0  0  0  0  0  0  0  0  0  0
   19.8385   11.7440   32.9602 C   0  0  0  0  0  0  0  0  0  0  0  0
   19.4996   12.8021   33.3097 N   0  0  0  0  0  0  0  0  0  0  0  0
  1  2  1  0
  2  3  1  0
  3  4  2  0
  3  5  1  0
  5  6  1  0
  6  7  1  0
  5  8  2  3
  8  9  1  0
  8 10  1  0
 10 11  2  0
 10 12  1  0
 12 13  2  0
 13 14  1  0
 14 15  1  0
 15 16  1  0
 15 17  1  0
 17 18  2  0
 17 19  1  0
 19 20  1  0
 19 21  1  0
 19 22  1  0
 22 23  2  0
 23 24  1  0
 23 25  1  0
 25 26  1  0
 26 27  1  0
 27 28  1  0
 27 29  1  0
 27 30  1  0
 25 31  2  0
 31 32  1  0
 31 33  1  0
 33 34  1  0
 33 35  2  0
 35 36  1  0
 36 37  1  0
 37 38  1  0
 37 39  1  0
 37 40  1  0
 14 41  2  0
 41 42  1  0
 41 43  1  0
 43 44  1  0
 44 45  1  0
 44 46  1  0
 43 47  2  0
 47 48  1  0
 48 49  3  0
 47 12  1  0
 35 22  1  0
M  END
>  <score>  (144) 
7.43239

$$$$

     RDKit          3D

 50 52  0  0  0  0  0  0  0  0999 V2000
   25.0023   14.1890   30.2939 H   0  0  0  0  0  0  0  0  0  0  0  0
   24.2684   13.4057   30.4773 C   0  0  0  0  0  0  0  0  0  0  0  0
   24.5997   12.2786   31.2213 C   0  0  0  0  0  0  0  0  0  0  0  0
   25.5920   12.1914   31.6372 H   0  0  0  0  0  0  0  0  0  0  0  0
   23.6478   11.2795   31.4490 C   0  0  0  0  0  0  0  0  0  0  0  0
   23.9207   10.4090   32.0368 H   0  0  0  0  0  0  0  0  0  0  0  0
   22.3209   11.3927   30.9889 C   0  0  0  0  0  0  0  0  0  0  0  0
   21.3660   10.3189   31.4038 C   0  0  0  0  0  0  0  0  0  0  0  0
   21.6992    9.0733   31.0441 N   0  0  0  0  0  0  0  0  0  0  0  0
   20.9992    8.0468   31.4821 C   0  0  0  0  0  0  0  0  0  0  0  0
   21.5253    6.8752   31.0574 N   0  0  0  0  0  0  0  0  0  0  0  0
   22.3720    6.9598   30.5129 H   0  0  0  0  0  0  0  0  0  0  0  0
   20.9288    5.6501   31.1319 C   0  0  0  0  0  0  0  0  0  0  0  0
   19.8543    5.5095   31.6957 O   0  0  0  0  0  0  0  0  0  0  0  0
   21.5625    4.5088   30.3503 C   0  0  0  0  0  0  0  0  0  0  0  0
   21.6163    4.7977   29.2986 H   0  0  0  0  0  0  0  0  0  0  0  0
   20.9402    3.6136   30.4213 H   0  0  0  0  0  0  0  0  0  0  0  0
   22.9519    4.2402   30.8700 C   0  0  0  0  0  0  0  0  0  0  0  0
   23.1560    3.1439   31.7162 C   0  0  0  0  0  0  0  0  0  0  0  0
   22.3215    2.4962   31.9660 H   0  0  0  0  0  0  0  0  0  0  0  0
   24.4232    2.8677   32.2584 C   0  0  0  0  0  0  0  0  0  0  0  0
   24.6577    1.7946   33.0858 O   0  0  0  0  0  0  0  0  0  0  0  0
   23.6512    0.7737   33.1026 C   0  0  0  0  0  0  0  0  0  0  0  0
   22.7213    1.1564   33.5342 H   0  0  0  0  0  0  0  0  0  0  0  0
   23.4506    0.4113   32.0886 H   0  0  0  0  0  0  0  0  0  0  0  0
   23.9959   -0.0689   33.7090 H   0  0  0  0  0  0  0  0  0  0  0  0
   25.4913    3.7228   31.9453 C   0  0  0  0  0  0  0  0  0  0  0  0
   27.2488    3.4165   32.6390 Br  0  0  0  0  0  0  0  0  0  0  0  0
   25.2880    4.8166   31.1013 C   0  0  0  0  0  0  0  0  0  0  0  0
   26.1232    5.4648   30.8579 H   0  0  0  0  0  0  0  0  0  0  0  0
   24.0254    5.0995   30.5598 C   0  0  0  0  0  0  0  0  0  0  0  0
   23.8085    6.2018   29.7605 O   0  0  0  0  0  0  0  0  0  0  0  0
   24.9220    7.0947   29.6022 C   0  0  0  0  0  0  0  0  0  0  0  0
   25.2635    7.4549   30.5782 H   0  0  0  0  0  0  0  0  0  0  0  0
   25.7535    6.5847   29.1050 H   0  0  0  0  0  0  0  0  0  0  0  0
   24.6310    7.9574   28.9962 H   0  0  0  0  0  0  0  0  0  0  0  0
   19.9194    8.1678   32.3088 C   0  0  0  0  0  0  0  0  0  0  0  0
   19.3745    7.3019   32.6487 H   0  0  0  0  0  0  0  0  0  0  0  0
   19.5980    9.4220   32.7312 C   0  0  0  0  0  0  0  0  0  0  0  0
   18.6157    9.5079   33.6640 N   0  0  0  0  0  0  0  0  0  0  0  0
   18.0371    8.6801   33.7978 H   0  0  0  0  0  0  0  0  0  0  0  0
   18.2075   10.4253   33.8266 H   0  0  0  0  0  0  0  0  0  0  0  0
   20.2962   10.5297   32.2830 C   0  0  0  0  0  0  0  0  0  0  0  0
   19.9881   11.8241   32.7986 C   0  0  0  0  0  0  0  0  0  0  0  0
   19.7393   12.8748   33.2317 N   0  0  0  0  0  0  0  0  0  0  0  0
   22.0147   12.5168   30.1643 C   0  0  0  0  0  0  0  0  0  0  0  0
   20.8025   12.7504   29.4426 C   0  0  0  0  0  0  0  0  0  0  0  0
   19.9440   13.1059   28.7371 N   0  0  0  0  0  0  0  0  0  0  0  0
   22.9901   13.5070   29.9400 C   0  0  0  0  0  0  0  0  0  0  0  0
   22.7572   14.3728   29.3221 H   0  0  0  0  0  0  0  0  0  0  0  0
  1  2  1  0
  2  3  2  0
  3  4  1  0
  3  5  1  0
  5  6  1  0
  5  7  2  0
  7  8  1  0
  8  9  2  0
  9 10  1  0
 10 11  1  0
 11 12  1  0
 11 13  1  0
 13 14  2  0
 13 15  1  0
 15 16  1  0
 15 17  1  0
 15 18  1  0
 18 19  2  0
 19 20  1  0
 19 21  1  0
 21 22  1  0
 22 23  1  0
 23 24  1  0
 23 25  1  0
 23 26  1  0
 21 27  2  0
 27 28  1  0
 27 29  1  0
 29 30  1  0
 29 31  2  0
 31 32  1  0
 32 33  1  0
 33 34  1  0
 33 35  1  0
 33 36  1  0
 10 37  2  0
 37 38  1  0
 37 39  1  0
 39 40  1  0
 40 41  1  0
 40 42  1  0
 39 43  2  0
 43 44  1  0
 44 45  3  0
  7 46  1  0
 46 47  1  0
 47 48  3  0
 46 49  2  0
 49 50  1  0
 49  2  1  0
 43  8  1  0
 31 18  1  0
M  END
>  <score>  (145) 
7.43327

$$$$

     RDKit          3D

 52 54  0  0  0  0  0  0  0  0999 V2000
   26.1122    5.5088   30.9096 H   0  0  0  0  0  0  0  0  0  0  0  0
   25.2891    4.8410   31.1358 C   0  0  0  0  0  0  0  0  0  0  0  0
   25.5049    3.7320   31.9580 C   0  0  0  0  0  0  0  0  0  0  0  0
   27.2554    3.4391   32.6722 Br  0  0  0  0  0  0  0  0  0  0  0  0
   24.4453    2.8610   32.2551 C   0  0  0  0  0  0  0  0  0  0  0  0
   24.6723    1.7722   33.0646 O   0  0  0  0  0  0  0  0  0  0  0  0
   23.6317    0.7845   33.0903 C   0  0  0  0  0  0  0  0  0  0  0  0
   23.4199    0.4271   32.0768 H   0  0  0  0  0  0  0  0  0  0  0  0
   22.7148    1.2039   33.5167 H   0  0  0  0  0  0  0  0  0  0  0  0
   23.9416   -0.0680   33.7011 H   0  0  0  0  0  0  0  0  0  0  0  0
   23.1797    3.1323   31.7115 C   0  0  0  0  0  0  0  0  0  0  0  0
   22.3567    2.4653   31.9506 H   0  0  0  0  0  0  0  0  0  0  0  0
   22.9628    4.2335   30.8730 C   0  0  0  0  0  0  0  0  0  0  0  0
   21.5691    4.4670   30.3315 C   0  0  0  0  0  0  0  0  0  0  0  0
   21.6197    4.6624   29.2549 H   0  0  0  0  0  0  0  0  0  0  0  0
   20.9567    3.5712   30.4846 H   0  0  0  0  0  0  0  0  0  0  0  0
   20.9106    5.6468   31.0425 C   0  0  0  0  0  0  0  0  0  0  0  0
   19.7817    5.5396   31.4958 O   0  0  0  0  0  0  0  0  0  0  0  0
   21.5597    6.8452   31.1008 N   0  0  0  0  0  0  0  0  0  0  0  0
   22.3496    6.9904   30.4906 H   0  0  0  0  0  0  0  0  0  0  0  0
   20.9938    7.9794   31.5500 C   0  0  0  0  0  0  0  0  0  0  0  0
   21.5469    9.0296   30.9853 N   0  0  0  0  0  0  0  0  0  0  0  0
   21.1716   10.2521   31.3751 C   0  0  0  0  0  0  0  0  0  0  0  0
   21.9659   11.4287   30.8563 C   0  0  0  0  0  0  0  0  0  0  0  0
   21.8741   12.2443   31.5774 H   0  0  0  0  0  0  0  0  0  0  0  0
   21.5086   11.7420   29.9175 H   0  0  0  0  0  0  0  0  0  0  0  0
   23.3872   11.1119   30.6514 N   0  0  0  0  0  0  0  0  0  0  0  0
   24.1023   11.4182   29.5420 N   0  0  0  0  0  0  0  0  0  0  0  0
   25.1931   10.6970   29.7004 C   0  0  0  0  0  0  0  0  0  0  0  0
   26.2049   10.7195   28.7765 O   0  0  0  0  0  0  0  0  0  0  0  0
   27.3483    9.9174   29.1169 C   0  0  0  0  0  0  0  0  0  0  0  0
   28.0418    9.8844   28.2714 H   0  0  0  0  0  0  0  0  0  0  0  0
   27.0560    8.8899   29.3635 H   0  0  0  0  0  0  0  0  0  0  0  0
   27.8841   10.3423   29.9718 H   0  0  0  0  0  0  0  0  0  0  0  0
   25.2445    9.9317   30.8321 O   0  0  0  0  0  0  0  0  0  0  0  0
   24.0925   10.1992   31.4092 C   0  0  0  0  0  0  0  0  0  0  0  0
   23.6384    9.6694   32.4102 O   0  0  0  0  0  0  0  0  0  0  0  0
   20.1518   10.4198   32.3048 C   0  0  0  0  0  0  0  0  0  0  0  0
   19.7847   11.7002   32.8182 C   0  0  0  0  0  0  0  0  0  0  0  0
   19.5177   12.7307   33.2855 N   0  0  0  0  0  0  0  0  0  0  0  0
   19.5736    9.2928   32.8350 C   0  0  0  0  0  0  0  0  0  0  0  0
   18.5631    9.3760   33.7305 N   0  0  0  0  0  0  0  0  0  0  0  0
   18.0028   10.2241   33.6500 H   0  0  0  0  0  0  0  0  0  0  0  0
   18.0801    8.5023   33.9214 H   0  0  0  0  0  0  0  0  0  0  0  0
   20.0095    8.0494   32.4967 C   0  0  0  0  0  0  0  0  0  0  0  0
   19.6033    7.1710   32.9723 H   0  0  0  0  0  0  0  0  0  0  0  0
   24.0264    5.1173   30.5909 C   0  0  0  0  0  0  0  0  0  0  0  0
   23.8044    6.2320   29.8100 O   0  0  0  0  0  0  0  0  0  0  0  0
   24.9300    7.1065   29.6289 C   0  0  0  0  0  0  0  0  0  0  0  0
   25.7448    6.5762   29.1256 H   0  0  0  0  0  0  0  0  0  0  0  0
   24.6466    7.9685   29.0187 H   0  0  0  0  0  0  0  0  0  0  0  0
   25.2938    7.4705   30.5955 H   0  0  0  0  0  0  0  0  0  0  0  0
  1  2  1  0
  2  3  2  0
  3  4  1  0
  3  5  1  0
  5  6  1  0
  6  7  1  0
  7  8  1  0
  7  9  1  0
  7 10  1  0
  5 11  2  0
 11 12  1  0
 11 13  1  0
 13 14  1  0
 14 15  1  0
 14 16  1  0
 14 17  1  0
 17 18  2  0
 17 19  1  0
 19 20  1  0
 19 21  1  0
 21 22  2  0
 22 23  1  0
 23 24  1  0
 24 25  1  0
 24 26  1  0
 24 27  1  0
 27 28  1  0
 28 29  2  0
 29 30  1  0
 30 31  1  0
 31 32  1  0
 31 33  1  0
 31 34  1  0
 29 35  1  0
 35 36  1  0
 36 37  2  0
 23 38  2  0
 38 39  1  0
 39 40  3  0
 38 41  1  0
 41 42  1  0
 42 43  1  0
 42 44  1  0
 41 45  2  0
 45 46  1  0
 13 47  2  0
 47 48  1  0
 48 49  1  0
 49 50  1  0
 49 51  1  0
 49 52  1  0
 47  2  1  0
 45 21  1  0
 36 27  1  0
M  END
>  <score>  (146) 
7.43426

$$$$

     RDKit          3D

 51 53  0  0  0  0  0  0  0  0999 V2000
   26.1159    5.4915   30.8960 H   0  0  0  0  0  0  0  0  0  0  0  0
   25.2934    4.8233   31.1226 C   0  0  0  0  0  0  0  0  0  0  0  0
   25.5060    3.7203   31.9543 C   0  0  0  0  0  0  0  0  0  0  0  0
   27.2569    3.4267   32.6708 Br  0  0  0  0  0  0  0  0  0  0  0  0
   24.4439    2.8525   32.2544 C   0  0  0  0  0  0  0  0  0  0  0  0
   24.6704    1.7717   33.0738 O   0  0  0  0  0  0  0  0  0  0  0  0
   23.6374    0.7766   33.0967 C   0  0  0  0  0  0  0  0  0  0  0  0
   23.9537   -0.0749   33.7063 H   0  0  0  0  0  0  0  0  0  0  0  0
   23.4276    0.4197   32.0827 H   0  0  0  0  0  0  0  0  0  0  0  0
   22.7178    1.1900   33.5222 H   0  0  0  0  0  0  0  0  0  0  0  0
   23.1787    3.1201   31.7089 C   0  0  0  0  0  0  0  0  0  0  0  0
   22.3525    2.4605   31.9595 H   0  0  0  0  0  0  0  0  0  0  0  0
   22.9695    4.2140   30.8618 C   0  0  0  0  0  0  0  0  0  0  0  0
   21.5761    4.4646   30.3370 C   0  0  0  0  0  0  0  0  0  0  0  0
   21.6103    4.6757   29.2657 H   0  0  0  0  0  0  0  0  0  0  0  0
   20.9463    3.5834   30.4894 H   0  0  0  0  0  0  0  0  0  0  0  0
   20.9622    5.6483   31.0704 C   0  0  0  0  0  0  0  0  0  0  0  0
   19.8225    5.5898   31.4971 O   0  0  0  0  0  0  0  0  0  0  0  0
   21.6924    6.7921   31.2114 N   0  0  0  0  0  0  0  0  0  0  0  0
   22.5084    6.9063   30.6337 H   0  0  0  0  0  0  0  0  0  0  0  0
   21.2147    7.9452   31.6982 C   0  0  0  0  0  0  0  0  0  0  0  0
   21.8774    8.9643   31.2031 N   0  0  0  0  0  0  0  0  0  0  0  0
   21.5261   10.2208   31.5494 C   0  0  0  0  0  0  0  0  0  0  0  0
   22.1968   11.4268   30.8335 C   0  0  1  0  0  0  0  0  0  0  0  0
   21.3787   12.0572   30.4778 H   0  0  0  0  0  0  0  0  0  0  0  0
   23.1881   12.2786   31.5459 N   0  0  0  0  0  0  0  0  0  0  0  0
   22.9615   12.4154   32.5311 H   0  0  0  0  0  0  0  0  0  0  0  0
   24.5605   11.7948   31.3410 C   0  0  0  0  0  0  0  0  0  0  0  0
   25.2136   12.6141   31.0308 H   0  0  0  0  0  0  0  0  0  0  0  0
   24.9840   11.3484   32.2406 H   0  0  0  0  0  0  0  0  0  0  0  0
   24.4217   10.7426   30.2586 C   0  0  0  0  0  0  0  0  0  0  0  0
   25.2198   10.8183   29.5177 H   0  0  0  0  0  0  0  0  0  0  0  0
   24.4540    9.7544   30.7233 H   0  0  0  0  0  0  0  0  0  0  0  0
   23.0485   10.9796   29.6523 C   0  0  0  0  0  0  0  0  0  0  0  0
   23.0944   11.7883   28.9206 H   0  0  0  0  0  0  0  0  0  0  0  0
   22.6577   10.0801   29.1662 H   0  0  0  0  0  0  0  0  0  0  0  0
   20.4483   10.4218   32.4217 C   0  0  0  0  0  0  0  0  0  0  0  0
   20.0342   11.7262   32.8331 C   0  0  0  0  0  0  0  0  0  0  0  0
   19.6743   12.7569   33.2323 N   0  0  0  0  0  0  0  0  0  0  0  0
   19.7785    9.3169   32.9007 C   0  0  0  0  0  0  0  0  0  0  0  0
   18.6860    9.4353   33.6888 N   0  0  0  0  0  0  0  0  0  0  0  0
   18.2506    8.5615   33.9779 H   0  0  0  0  0  0  0  0  0  0  0  0
   18.0795   10.2195   33.4599 H   0  0  0  0  0  0  0  0  0  0  0  0
   20.1656    8.0625   32.5581 C   0  0  0  0  0  0  0  0  0  0  0  0
   19.6408    7.2051   32.9337 H   0  0  0  0  0  0  0  0  0  0  0  0
   24.0330    5.0954   30.5731 C   0  0  0  0  0  0  0  0  0  0  0  0
   23.8073    6.2102   29.7931 O   0  0  0  0  0  0  0  0  0  0  0  0
   24.9267    7.0931   29.6160 C   0  0  0  0  0  0  0  0  0  0  0  0
   25.7332    6.5784   29.0845 H   0  0  0  0  0  0  0  0  0  0  0  0
   24.6281    7.9689   29.0331 H   0  0  0  0  0  0  0  0  0  0  0  0
   25.3083    7.4356   30.5840 H   0  0  0  0  0  0  0  0  0  0  0  0
  1  2  1  0
  2  3  2  0
  3  4  1  0
  3  5  1  0
  5  6  1  0
  6  7  1  0
  7  8  1  0
  7  9  1  0
  7 10  1  0
  5 11  2  0
 11 12  1  0
 11 13  1  0
 13 14  1  0
 14 15  1  0
 14 16  1  0
 14 17  1  0
 17 18  2  0
 17 19  1  0
 19 20  1  0
 19 21  1  0
 21 22  2  0
 22 23  1  0
 23 24  1  0
 24 25  1  6
 24 26  1  0
 26 27  1  0
 26 28  1  0
 28 29  1  0
 28 30  1  0
 28 31  1  0
 31 32  1  0
 31 33  1  0
 31 34  1  0
 34 35  1  0
 34 36  1  0
 23 37  2  0
 37 38  1  0
 38 39  3  0
 37 40  1  0
 40 41  1  0
 41 42  1  0
 41 43  1  0
 40 44  2  0
 44 45  1  0
 13 46  2  0
 46 47  1  0
 47 48  1  0
 48 49  1  0
 48 50  1  0
 48 51  1  0
 46  2  1  0
 44 21  1  0
 34 24  1  0
M  END
>  <score>  (147) 
7.43509

$$$$

     RDKit          3D

 58 60  0  0  0  0  0  0  0  0999 V2000
   26.0568    5.5611   30.9846 H   0  0  0  0  0  0  0  0  0  0  0  0
   25.2383    4.8774   31.1873 C   0  0  0  0  0  0  0  0  0  0  0  0
   25.4621    3.7497   31.9878 C   0  0  0  0  0  0  0  0  0  0  0  0
   27.2121    3.4631   32.7156 Br  0  0  0  0  0  0  0  0  0  0  0  0
   24.4142    2.8493   32.2432 C   0  0  0  0  0  0  0  0  0  0  0  0
   24.6460    1.7422   33.0295 O   0  0  0  0  0  0  0  0  0  0  0  0
   23.5898    0.7701   33.0834 C   0  0  0  0  0  0  0  0  0  0  0  0
   23.3600    0.4002   32.0788 H   0  0  0  0  0  0  0  0  0  0  0  0
   23.8942   -0.0777   33.7038 H   0  0  0  0  0  0  0  0  0  0  0  0
   22.6818    1.2047   33.5138 H   0  0  0  0  0  0  0  0  0  0  0  0
   23.1511    3.1202   31.6958 C   0  0  0  0  0  0  0  0  0  0  0  0
   22.3437    2.4241   31.8958 H   0  0  0  0  0  0  0  0  0  0  0  0
   22.9131    4.2563   30.9136 C   0  0  0  0  0  0  0  0  0  0  0  0
   21.5050    4.4855   30.4075 C   0  0  0  0  0  0  0  0  0  0  0  0
   20.9221    3.5670   30.4950 H   0  0  0  0  0  0  0  0  0  0  0  0
   21.5307    4.7703   29.3547 H   0  0  0  0  0  0  0  0  0  0  0  0
   20.8005    5.5780   31.1918 C   0  0  0  0  0  0  0  0  0  0  0  0
   19.6458    5.4413   31.5606 O   0  0  0  0  0  0  0  0  0  0  0  0
   21.4381    6.7720   31.3434 N   0  0  0  0  0  0  0  0  0  0  0  0
   22.3242    6.9148   30.8847 H   0  0  0  0  0  0  0  0  0  0  0  0
   20.8648    7.8857   31.8318 C   0  0  0  0  0  0  0  0  0  0  0  0
   21.6130    8.9471   31.6130 N   0  0  0  0  0  0  0  0  0  0  0  0
   21.2316   10.1852   32.0180 C   0  0  0  0  0  0  0  0  0  0  0  0
   22.1655   11.3662   31.7241 C   0  0  0  0  0  0  0  0  0  0  0  0
   22.0448   12.4512   32.3096 O   0  0  0  0  0  0  0  0  0  0  0  0
   23.2510   11.2184   30.8460 N   0  0  0  0  0  0  0  0  0  0  0  0
   23.1058   10.3390   29.6819 C   0  0  0  0  0  0  0  0  0  0  0  0
   23.8767    9.5621   29.7212 H   0  0  0  0  0  0  0  0  0  0  0  0
   22.1240    9.8509   29.6731 H   0  0  0  0  0  0  0  0  0  0  0  0
   23.2782   11.1928   28.4108 C   0  0  0  0  0  0  0  0  0  0  0  0
   23.1951   10.5456   27.5318 H   0  0  0  0  0  0  0  0  0  0  0  0
   22.4675   11.9319   28.3779 H   0  0  0  0  0  0  0  0  0  0  0  0
   24.5853   11.8970   28.4194 N   0  0  0  0  0  0  0  0  0  0  0  0
   24.8534   12.9530   27.4248 C   0  0  0  0  0  0  0  0  0  0  0  0
   23.9654   13.5716   27.2727 H   0  0  0  0  0  0  0  0  0  0  0  0
   25.6625   13.6067   27.7576 H   0  0  0  0  0  0  0  0  0  0  0  0
   25.1464   12.5107   26.4681 H   0  0  0  0  0  0  0  0  0  0  0  0
   25.3830   11.8138   29.6641 C   0  0  0  0  0  0  0  0  0  0  0  0
   25.8342   10.8156   29.7074 H   0  0  0  0  0  0  0  0  0  0  0  0
   26.2005   12.5404   29.6477 H   0  0  0  0  0  0  0  0  0  0  0  0
   24.4967   12.0072   30.9228 C   0  0  0  0  0  0  0  0  0  0  0  0
   24.2742   13.0700   31.0502 H   0  0  0  0  0  0  0  0  0  0  0  0
   25.0709   11.6760   31.7940 H   0  0  0  0  0  0  0  0  0  0  0  0
   20.0216   10.2939   32.7280 C   0  0  0  0  0  0  0  0  0  0  0  0
   19.6105   11.5485   33.2758 C   0  0  0  0  0  0  0  0  0  0  0  0
   19.3401   12.5830   33.7316 N   0  0  0  0  0  0  0  0  0  0  0  0
   19.2600    9.1528   32.9312 C   0  0  0  0  0  0  0  0  0  0  0  0
   18.0886    9.1571   33.6166 N   0  0  0  0  0  0  0  0  0  0  0  0
   17.8465   10.0097   34.1196 H   0  0  0  0  0  0  0  0  0  0  0  0
   17.8118    8.2601   34.0193 H   0  0  0  0  0  0  0  0  0  0  0  0
   19.6651    7.9386   32.4713 C   0  0  0  0  0  0  0  0  0  0  0  0
   19.0503    7.0669   32.6275 H   0  0  0  0  0  0  0  0  0  0  0  0
   23.9725    5.1515   30.6419 C   0  0  0  0  0  0  0  0  0  0  0  0
   23.7444    6.2712   29.8688 O   0  0  0  0  0  0  0  0  0  0  0  0
   24.8829    7.1111   29.6063 C   0  0  0  0  0  0  0  0  0  0  0  0
   25.2814    7.5153   30.5425 H   0  0  0  0  0  0  0  0  0  0  0  0
   24.5954    7.9475   28.9618 H   0  0  0  0  0  0  0  0  0  0  0  0
   25.6767    6.5485   29.1025 H   0  0  0  0  0  0  0  0  0  0  0  0
  1  2  1  0
  2  3  2  0
  3  4  1  0
  3  5  1  0
  5  6  1  0
  6  7  1  0
  7  8  1  0
  7  9  1  0
  7 10  1  0
  5 11  2  0
 11 12  1  0
 11 13  1  0
 13 14  1  0
 14 15  1  0
 14 16  1  0
 14 17  1  0
 17 18  2  0
 17 19  1  0
 19 20  1  0
 19 21  1  0
 21 22  2  0
 22 23  1  0
 23 24  1  0
 24 25  2  0
 24 26  1  0
 26 27  1  0
 27 28  1  0
 27 29  1  0
 27 30  1  0
 30 31  1  0
 30 32  1  0
 30 33  1  0
 33 34  1  0
 34 35  1  0
 34 36  1  0
 34 37  1  0
 33 38  1  0
 38 39  1  0
 38 40  1  0
 38 41  1  0
 41 42  1  0
 41 43  1  0
 23 44  2  0
 44 45  1  0
 45 46  3  0
 44 47  1  0
 47 48  1  0
 48 49  1  0
 48 50  1  0
 47 51  2  0
 51 52  1  0
 13 53  2  0
 53 54  1  0
 54 55  1  0
 55 56  1  0
 55 57  1  0
 55 58  1  0
 53  2  1  0
 51 21  1  0
 41 26  1  0
M  END
>  <score>  (148) 
7.43556

$$$$

     RDKit          3D

 51 53  0  0  0  0  0  0  0  0999 V2000
   24.2180    9.7440   26.1972 H   0  0  0  0  0  0  0  0  0  0  0  0
   23.5881    9.9701   27.0494 C   0  0  0  0  0  0  0  0  0  0  0  0
   23.9286   11.2625   28.1959 S   0  0  0  0  0  0  0  0  0  0  0  0
   22.3961   10.9790   29.0177 C   0  0  0  0  0  0  0  0  0  0  0  0
   21.9414   11.8019   30.2052 C   0  0  0  0  0  0  0  0  0  0  0  0
   22.4151   12.7869   30.1700 H   0  0  0  0  0  0  0  0  0  0  0  0
   20.8631   11.9863   30.1763 H   0  0  0  0  0  0  0  0  0  0  0  0
   22.3347   11.1053   31.4302 N   0  0  0  0  0  0  0  0  0  0  0  0
   23.1538   10.5279   31.2668 H   0  0  0  0  0  0  0  0  0  0  0  0
   21.4428   10.2121   31.8724 C   0  0  0  0  0  0  0  0  0  0  0  0
   21.8813    9.0424   31.4930 N   0  0  0  0  0  0  0  0  0  0  0  0
   21.1141    8.0318   31.7869 C   0  0  0  0  0  0  0  0  0  0  0  0
   21.6353    6.8980   31.2918 N   0  0  0  0  0  0  0  0  0  0  0  0
   22.5170    7.0078   30.8073 H   0  0  0  0  0  0  0  0  0  0  0  0
   20.9359    5.7358   31.1331 C   0  0  0  0  0  0  0  0  0  0  0  0
   19.7766    5.6601   31.5064 O   0  0  0  0  0  0  0  0  0  0  0  0
   21.5717    4.5731   30.3844 C   0  0  0  0  0  0  0  0  0  0  0  0
   20.9395    3.6880   30.4971 H   0  0  0  0  0  0  0  0  0  0  0  0
   21.6230    4.8223   29.3214 H   0  0  0  0  0  0  0  0  0  0  0  0
   22.9606    4.2868   30.9050 C   0  0  0  0  0  0  0  0  0  0  0  0
   23.1607    3.1738   31.7333 C   0  0  0  0  0  0  0  0  0  0  0  0
   22.3257    2.5252   31.9830 H   0  0  0  0  0  0  0  0  0  0  0  0
   24.4307    2.8760   32.2569 C   0  0  0  0  0  0  0  0  0  0  0  0
   24.6624    1.7894   33.0672 O   0  0  0  0  0  0  0  0  0  0  0  0
   23.6415    0.7815   33.0942 C   0  0  0  0  0  0  0  0  0  0  0  0
   23.9744   -0.0644   33.7031 H   0  0  0  0  0  0  0  0  0  0  0  0
   23.4306    0.4163   32.0844 H   0  0  0  0  0  0  0  0  0  0  0  0
   22.7159    1.1762   33.5231 H   0  0  0  0  0  0  0  0  0  0  0  0
   25.5055    3.7247   31.9487 C   0  0  0  0  0  0  0  0  0  0  0  0
   27.2586    3.3885   32.6487 Br  0  0  0  0  0  0  0  0  0  0  0  0
   25.3075    4.8315   31.1167 C   0  0  0  0  0  0  0  0  0  0  0  0
   26.1472    5.4716   30.8685 H   0  0  0  0  0  0  0  0  0  0  0  0
   24.0415    5.1357   30.5910 C   0  0  0  0  0  0  0  0  0  0  0  0
   23.8218    6.2410   29.7960 O   0  0  0  0  0  0  0  0  0  0  0  0
   24.9410    7.1203   29.6051 C   0  0  0  0  0  0  0  0  0  0  0  0
   25.7625    6.6008   29.1011 H   0  0  0  0  0  0  0  0  0  0  0  0
   25.3055    7.4927   30.5680 H   0  0  0  0  0  0  0  0  0  0  0  0
   24.6428    7.9757   28.9919 H   0  0  0  0  0  0  0  0  0  0  0  0
   19.9351    8.1316   32.4803 C   0  0  0  0  0  0  0  0  0  0  0  0
   19.3292    7.2719   32.7106 H   0  0  0  0  0  0  0  0  0  0  0  0
   19.5275    9.3817   32.8246 C   0  0  0  0  0  0  0  0  0  0  0  0
   18.3357    9.4786   33.4370 N   0  0  0  0  0  0  0  0  0  0  0  0
   18.0027    8.6228   33.8626 H   0  0  0  0  0  0  0  0  0  0  0  0
   18.1449   10.3574   33.9065 H   0  0  0  0  0  0  0  0  0  0  0  0
   20.2812   10.4761   32.5378 C   0  0  0  0  0  0  0  0  0  0  0  0
   19.9110   11.8067   32.8863 C   0  0  0  0  0  0  0  0  0  0  0  0
   19.6366   12.9025   33.1644 N   0  0  0  0  0  0  0  0  0  0  0  0
   21.7345    9.8957   28.4688 C   0  0  0  0  0  0  0  0  0  0  0  0
   20.8220    9.4614   28.8486 H   0  0  0  0  0  0  0  0  0  0  0  0
   22.4086    9.3289   27.3183 C   0  0  0  0  0  0  0  0  0  0  0  0
   21.9976    8.5243   26.7170 H   0  0  0  0  0  0  0  0  0  0  0  0
  1  2  1  0
  2  3  1  0
  3  4  1  0
  4  5  1  0
  5  6  1  0
  5  7  1  0
  5  8  1  0
  8  9  1  0
  8 10  1  0
 10 11  2  0
 11 12  1  0
 12 13  1  0
 13 14  1  0
 13 15  1  0
 15 16  2  0
 15 17  1  0
 17 18  1  0
 17 19  1  0
 17 20  1  0
 20 21  2  0
 21 22  1  0
 21 23  1  0
 23 24  1  0
 24 25  1  0
 25 26  1  0
 25 27  1  0
 25 28  1  0
 23 29  2  0
 29 30  1  0
 29 31  1  0
 31 32  1  0
 31 33  2  0
 33 34  1  0
 34 35  1  0
 35 36  1  0
 35 37  1  0
 35 38  1  0
 12 39  2  0
 39 40  1  0
 39 41  1  0
 41 42  1  0
 42 43  1  0
 42 44  1  0
 41 45  2  0
 45 46  1  0
 46 47  3  0
  4 48  2  0
 48 49  1  0
 48 50  1  0
 50 51  1  0
 50  2  2  0
 45 10  1  0
 33 20  1  0
M  END
>  <score>  (149) 
7.43672

$$$$

     RDKit          3D

 42 43  0  0  0  0  0  0  0  0999 V2000
   26.1880    5.4115   30.8477 H   0  0  0  0  0  0  0  0  0  0  0  0
   25.3429    4.7808   31.1008 C   0  0  0  0  0  0  0  0  0  0  0  0
   25.5248    3.6766   31.9448 C   0  0  0  0  0  0  0  0  0  0  0  0
   27.2731    3.3074   32.6362 Br  0  0  0  0  0  0  0  0  0  0  0  0
   24.4409    2.8456   32.2718 C   0  0  0  0  0  0  0  0  0  0  0  0
   24.6648    1.7843   33.1207 O   0  0  0  0  0  0  0  0  0  0  0  0
   23.6893    0.7334   33.1411 C   0  0  0  0  0  0  0  0  0  0  0  0
   23.4960    0.3625   32.1291 H   0  0  0  0  0  0  0  0  0  0  0  0
   22.7492    1.0777   33.5833 H   0  0  0  0  0  0  0  0  0  0  0  0
   24.0681   -0.0986   33.7439 H   0  0  0  0  0  0  0  0  0  0  0  0
   23.1784    3.1421   31.7317 C   0  0  0  0  0  0  0  0  0  0  0  0
   22.3409    2.4981   31.9805 H   0  0  0  0  0  0  0  0  0  0  0  0
   22.9925    4.2484   30.8855 C   0  0  0  0  0  0  0  0  0  0  0  0
   21.6136    4.5445   30.3333 C   0  0  0  0  0  0  0  0  0  0  0  0
   21.0028    3.6373   30.3305 H   0  0  0  0  0  0  0  0  0  0  0  0
   21.7110    4.8854   29.2990 H   0  0  0  0  0  0  0  0  0  0  0  0
   20.9080    5.6444   31.1297 C   0  0  0  0  0  0  0  0  0  0  0  0
   19.7223    5.5584   31.4007 O   0  0  0  0  0  0  0  0  0  0  0  0
   21.5782    6.8063   31.3769 N   0  0  0  0  0  0  0  0  0  0  0  0
   22.4764    6.9153   30.9328 H   0  0  0  0  0  0  0  0  0  0  0  0
   20.9848    7.9793   31.6878 C   0  0  0  0  0  0  0  0  0  0  0  0
   21.6745    8.9993   31.1970 N   0  0  0  0  0  0  0  0  0  0  0  0
   21.3197   10.2695   31.4802 C   0  0  0  0  0  0  0  0  0  0  0  0
   22.1096   11.4591   30.8802 C   0  0  0  0  0  0  0  0  0  0  0  0
   21.9008   12.3231   31.5102 H   0  0  0  0  0  0  0  0  0  0  0  0
   21.7068   11.7752   29.6047 F   0  0  0  0  0  0  0  0  0  0  0  0
   23.4661   11.2657   30.8932 F   0  0  0  0  0  0  0  0  0  0  0  0
   20.2486   10.4863   32.3639 C   0  0  0  0  0  0  0  0  0  0  0  0
   19.9206   11.7962   32.8210 C   0  0  0  0  0  0  0  0  0  0  0  0
   19.7010   12.8730   33.2056 N   0  0  0  0  0  0  0  0  0  0  0  0
   19.5332    9.3928   32.8191 C   0  0  0  0  0  0  0  0  0  0  0  0
   18.5011    9.5038   33.6865 N   0  0  0  0  0  0  0  0  0  0  0  0
   17.9441    8.6750   33.8820 H   0  0  0  0  0  0  0  0  0  0  0  0
   18.1524   10.4257   33.9276 H   0  0  0  0  0  0  0  0  0  0  0  0
   19.8637    8.1259   32.4534 C   0  0  0  0  0  0  0  0  0  0  0  0
   19.2792    7.2842   32.8003 H   0  0  0  0  0  0  0  0  0  0  0  0
   24.0814    5.0875   30.5700 C   0  0  0  0  0  0  0  0  0  0  0  0
   23.8583    6.1784   29.7552 O   0  0  0  0  0  0  0  0  0  0  0  0
   24.9305    7.1179   29.5876 C   0  0  0  0  0  0  0  0  0  0  0  0
   25.2654    7.5031   30.5564 H   0  0  0  0  0  0  0  0  0  0  0  0
   24.5819    7.9630   28.9854 H   0  0  0  0  0  0  0  0  0  0  0  0
   25.7803    6.6580   29.0726 H   0  0  0  0  0  0  0  0  0  0  0  0
  1  2  1  0
  2  3  2  0
  3  4  1  0
  3  5  1  0
  5  6  1  0
  6  7  1  0
  7  8  1  0
  7  9  1  0
  7 10  1  0
  5 11  2  0
 11 12  1  0
 11 13  1  0
 13 14  1  0
 14 15  1  0
 14 16  1  0
 14 17  1  0
 17 18  2  0
 17 19  1  0
 19 20  1  0
 19 21  1  0
 21 22  2  0
 22 23  1  0
 23 24  1  0
 24 25  1  0
 24 26  1  0
 24 27  1  0
 23 28  2  0
 28 29  1  0
 29 30  3  0
 28 31  1  0
 31 32  1  0
 32 33  1  0
 32 34  1  0
 31 35  2  0
 35 36  1  0
 13 37  2  0
 37 38  1  0
 38 39  1  0
 39 40  1  0
 39 41  1  0
 39 42  1  0
 37  2  1  0
 35 21  1  0
M  END
>  <score>  (150) 
7.43726

$$$$

     RDKit          3D

 50 52  0  0  0  0  0  0  0  0999 V2000
   20.7541   12.4609   30.4040 H   0  0  0  0  0  0  0  0  0  0  0  0
   21.8291   12.4024   30.5532 C   0  0  0  0  0  0  0  0  0  0  0  0
   22.6092   13.3719   30.0606 N   0  0  0  0  0  0  0  0  0  0  0  0
   23.9044   13.2362   30.2531 C   0  0  0  0  0  0  0  0  0  0  0  0
   24.6643   14.1796   29.6796 N   0  0  0  0  0  0  0  0  0  0  0  0
   24.1220   14.9753   29.3748 H   0  0  0  0  0  0  0  0  0  0  0  0
   25.5683   14.3335   30.1018 H   0  0  0  0  0  0  0  0  0  0  0  0
   24.4937   12.2230   30.9690 C   0  0  0  0  0  0  0  0  0  0  0  0
   25.5553   12.2365   31.1250 H   0  0  0  0  0  0  0  0  0  0  0  0
   23.7124   11.1921   31.4481 C   0  0  0  0  0  0  0  0  0  0  0  0
   24.1471   10.3485   31.9892 H   0  0  0  0  0  0  0  0  0  0  0  0
   22.3406   11.2964   31.2276 C   0  0  0  0  0  0  0  0  0  0  0  0
   21.4489   10.2539   31.6583 C   0  0  0  0  0  0  0  0  0  0  0  0
   21.8381    9.0270   31.3363 N   0  0  0  0  0  0  0  0  0  0  0  0
   21.0832    8.0264   31.7083 C   0  0  0  0  0  0  0  0  0  0  0  0
   21.6282    6.8669   31.3073 N   0  0  0  0  0  0  0  0  0  0  0  0
   22.5053    6.9675   30.8141 H   0  0  0  0  0  0  0  0  0  0  0  0
   20.9279    5.7149   31.1362 C   0  0  0  0  0  0  0  0  0  0  0  0
   19.7438    5.6659   31.4278 O   0  0  0  0  0  0  0  0  0  0  0  0
   21.5870    4.5765   30.3706 C   0  0  0  0  0  0  0  0  0  0  0  0
   20.9498    3.6927   30.4295 H   0  0  0  0  0  0  0  0  0  0  0  0
   21.6629    4.8866   29.3248 H   0  0  0  0  0  0  0  0  0  0  0  0
   22.9723    4.2602   30.8986 C   0  0  0  0  0  0  0  0  0  0  0  0
   23.1743    3.1469   31.7328 C   0  0  0  0  0  0  0  0  0  0  0  0
   22.3407    2.4971   31.9822 H   0  0  0  0  0  0  0  0  0  0  0  0
   24.4451    2.8548   32.2654 C   0  0  0  0  0  0  0  0  0  0  0  0
   24.6730    1.7828   33.1004 O   0  0  0  0  0  0  0  0  0  0  0  0
   23.6737    0.7538   33.1219 C   0  0  0  0  0  0  0  0  0  0  0  0
   22.7404    1.1257   33.5542 H   0  0  0  0  0  0  0  0  0  0  0  0
   23.4733    0.3918   32.1091 H   0  0  0  0  0  0  0  0  0  0  0  0
   24.0259   -0.0891   33.7255 H   0  0  0  0  0  0  0  0  0  0  0  0
   25.5217    3.7003   31.9457 C   0  0  0  0  0  0  0  0  0  0  0  0
   27.2777    3.3666   32.6405 Br  0  0  0  0  0  0  0  0  0  0  0  0
   25.3259    4.7993   31.1029 C   0  0  0  0  0  0  0  0  0  0  0  0
   26.1695    5.4343   30.8538 H   0  0  0  0  0  0  0  0  0  0  0  0
   24.0592    5.0982   30.5784 C   0  0  0  0  0  0  0  0  0  0  0  0
   23.8387    6.1931   29.7717 O   0  0  0  0  0  0  0  0  0  0  0  0
   24.9333    7.1031   29.6013 C   0  0  0  0  0  0  0  0  0  0  0  0
   25.7713    6.6118   29.0985 H   0  0  0  0  0  0  0  0  0  0  0  0
   24.6134    7.9565   28.9953 H   0  0  0  0  0  0  0  0  0  0  0  0
   25.2759    7.4729   30.5718 H   0  0  0  0  0  0  0  0  0  0  0  0
   19.9246    8.1594   32.4238 C   0  0  0  0  0  0  0  0  0  0  0  0
   19.3366    7.3122   32.7317 H   0  0  0  0  0  0  0  0  0  0  0  0
   19.5530    9.4192   32.7788 C   0  0  0  0  0  0  0  0  0  0  0  0
   18.4638    9.5417   33.5699 N   0  0  0  0  0  0  0  0  0  0  0  0
   17.9809    8.6981   33.8567 H   0  0  0  0  0  0  0  0  0  0  0  0
   18.1587   10.4568   33.8932 H   0  0  0  0  0  0  0  0  0  0  0  0
   20.2944   10.5011   32.3872 C   0  0  0  0  0  0  0  0  0  0  0  0
   19.9490   11.8165   32.8049 C   0  0  0  0  0  0  0  0  0  0  0  0
   19.7097   12.8921   33.1808 N   0  0  0  0  0  0  0  0  0  0  0  0
  1  2  1  0
  2  3  2  0
  3  4  1  0
  4  5  1  0
  5  6  1  0
  5  7  1  0
  4  8  2  0
  8  9  1  0
  8 10  1  0
 10 11  1  0
 10 12  2  0
 12 13  1  0
 13 14  2  0
 14 15  1  0
 15 16  1  0
 16 17  1  0
 16 18  1  0
 18 19  2  0
 18 20  1  0
 20 21  1  0
 20 22  1  0
 20 23  1  0
 23 24  2  0
 24 25  1  0
 24 26  1  0
 26 27  1  0
 27 28  1  0
 28 29  1  0
 28 30  1  0
 28 31  1  0
 26 32  2  0
 32 33  1  0
 32 34  1  0
 34 35  1  0
 34 36  2  0
 36 37  1  0
 37 38  1  0
 38 39  1  0
 38 40  1  0
 38 41  1  0
 15 42  2  0
 42 43  1  0
 42 44  1  0
 44 45  1  0
 45 46  1  0
 45 47  1  0
 44 48  2  0
 48 49  1  0
 49 50  3  0
 12  2  1  0
 48 13  1  0
 36 23  1  0
M  END
>  <score>  (151) 
7.43771

$$$$

     RDKit          3D

 45 46  0  0  0  0  0  0  0  0999 V2000
   26.1634    5.4404   30.8541 H   0  0  0  0  0  0  0  0  0  0  0  0
   25.3255    4.7971   31.1040 C   0  0  0  0  0  0  0  0  0  0  0  0
   25.5226    3.6982   31.9480 C   0  0  0  0  0  0  0  0  0  0  0  0
   27.2785    3.3691   32.6431 Br  0  0  0  0  0  0  0  0  0  0  0  0
   24.4476    2.8509   32.2683 C   0  0  0  0  0  0  0  0  0  0  0  0
   24.6765    1.7817   33.1049 O   0  0  0  0  0  0  0  0  0  0  0  0
   23.6744    0.7547   33.1223 C   0  0  0  0  0  0  0  0  0  0  0  0
   23.4747    0.3940   32.1085 H   0  0  0  0  0  0  0  0  0  0  0  0
   24.0230   -0.0894   33.7252 H   0  0  0  0  0  0  0  0  0  0  0  0
   22.7409    1.1275   33.5542 H   0  0  0  0  0  0  0  0  0  0  0  0
   23.1801    3.1361   31.7283 C   0  0  0  0  0  0  0  0  0  0  0  0
   22.3499    2.4834   31.9821 H   0  0  0  0  0  0  0  0  0  0  0  0
   22.9791    4.2397   30.8845 C   0  0  0  0  0  0  0  0  0  0  0  0
   21.5909    4.5256   30.3479 C   0  0  0  0  0  0  0  0  0  0  0  0
   20.9754    3.6264   30.3886 H   0  0  0  0  0  0  0  0  0  0  0  0
   21.6666    4.8500   29.3079 H   0  0  0  0  0  0  0  0  0  0  0  0
   20.9034    5.6378   31.1226 C   0  0  0  0  0  0  0  0  0  0  0  0
   19.7168    5.5785   31.4095 O   0  0  0  0  0  0  0  0  0  0  0  0
   21.5974    6.7956   31.3081 N   0  0  0  0  0  0  0  0  0  0  0  0
   22.4576    6.9170   30.7903 H   0  0  0  0  0  0  0  0  0  0  0  0
   21.0335    7.9442   31.7167 C   0  0  0  0  0  0  0  0  0  0  0  0
   21.7455    8.9791   31.3157 N   0  0  0  0  0  0  0  0  0  0  0  0
   21.3749   10.2326   31.6705 C   0  0  0  0  0  0  0  0  0  0  0  0
   22.1992   11.4139   31.2200 C   0  0  0  0  0  0  0  0  0  0  0  0
   22.3281   12.4308   31.9034 O   0  0  0  0  0  0  0  0  0  0  0  0
   22.7428   11.4749   29.9400 N   0  0  0  0  0  0  0  0  0  0  0  0
   23.2709   12.3286   29.7408 H   0  0  0  0  0  0  0  0  0  0  0  0
   22.3095   10.6109   28.8638 N   0  0  0  0  0  0  0  0  0  0  0  0
   21.2973   10.6624   28.7007 H   0  0  0  0  0  0  0  0  0  0  0  0
   22.6132    9.6388   28.9810 H   0  0  0  0  0  0  0  0  0  0  0  0
   20.2551   10.4082   32.5016 C   0  0  0  0  0  0  0  0  0  0  0  0
   19.8631   11.6971   32.9773 C   0  0  0  0  0  0  0  0  0  0  0  0
   19.5340   12.7615   33.3112 N   0  0  0  0  0  0  0  0  0  0  0  0
   19.5375    9.2939   32.8829 C   0  0  0  0  0  0  0  0  0  0  0  0
   18.4677    9.3600   33.7112 N   0  0  0  0  0  0  0  0  0  0  0  0
   17.5875    9.4454   33.2140 H   0  0  0  0  0  0  0  0  0  0  0  0
   18.4595    8.6373   34.4267 H   0  0  0  0  0  0  0  0  0  0  0  0
   19.9010    8.0535   32.4719 C   0  0  0  0  0  0  0  0  0  0  0  0
   19.3360    7.1922   32.7891 H   0  0  0  0  0  0  0  0  0  0  0  0
   24.0610    5.0890   30.5697 C   0  0  0  0  0  0  0  0  0  0  0  0
   23.8362    6.1857   29.7657 O   0  0  0  0  0  0  0  0  0  0  0  0
   24.9329    7.0976   29.6014 C   0  0  0  0  0  0  0  0  0  0  0  0
   25.2709    7.4705   30.5732 H   0  0  0  0  0  0  0  0  0  0  0  0
   25.7747    6.6072   29.1025 H   0  0  0  0  0  0  0  0  0  0  0  0
   24.6177    7.9507   28.9932 H   0  0  0  0  0  0  0  0  0  0  0  0
  1  2  1  0
  2  3  2  0
  3  4  1  0
  3  5  1  0
  5  6  1  0
  6  7  1  0
  7  8  1  0
  7  9  1  0
  7 10  1  0
  5 11  2  0
 11 12  1  0
 11 13  1  0
 13 14  1  0
 14 15  1  0
 14 16  1  0
 14 17  1  0
 17 18  2  0
 17 19  1  0
 19 20  1  0
 19 21  1  0
 21 22  2  0
 22 23  1  0
 23 24  1  0
 24 25  2  0
 24 26  1  0
 26 27  1  0
 26 28  1  0
 28 29  1  0
 28 30  1  0
 23 31  2  0
 31 32  1  0
 32 33  3  0
 31 34  1  0
 34 35  1  0
 35 36  1  0
 35 37  1  0
 34 38  2  0
 38 39  1  0
 13 40  2  0
 40 41  1  0
 41 42  1  0
 42 43  1  0
 42 44  1  0
 42 45  1  0
 40  2  1  0
 38 21  1  0
M  END
>  <score>  (152) 
7.44888

$$$$

     RDKit          3D

 53 54  0  0  0  0  0  0  0  0999 V2000
   26.1933    5.4097   30.8469 H   0  0  0  0  0  0  0  0  0  0  0  0
   25.3463    4.7789   31.1011 C   0  0  0  0  0  0  0  0  0  0  0  0
   25.5248    3.6719   31.9462 C   0  0  0  0  0  0  0  0  0  0  0  0
   27.2740    3.2970   32.6360 Br  0  0  0  0  0  0  0  0  0  0  0  0
   24.4389    2.8425   32.2736 C   0  0  0  0  0  0  0  0  0  0  0  0
   24.6642    1.7827   33.1255 O   0  0  0  0  0  0  0  0  0  0  0  0
   23.6922    0.7306   33.1441 C   0  0  0  0  0  0  0  0  0  0  0  0
   22.7520    1.0685   33.5866 H   0  0  0  0  0  0  0  0  0  0  0  0
   24.0742   -0.0980   33.7453 H   0  0  0  0  0  0  0  0  0  0  0  0
   23.4988    0.3577   32.1347 H   0  0  0  0  0  0  0  0  0  0  0  0
   23.1777    3.1421   31.7299 C   0  0  0  0  0  0  0  0  0  0  0  0
   22.3412    2.4986   31.9805 H   0  0  0  0  0  0  0  0  0  0  0  0
   22.9939    4.2456   30.8786 C   0  0  0  0  0  0  0  0  0  0  0  0
   21.6146    4.5317   30.3248 C   0  0  0  0  0  0  0  0  0  0  0  0
   21.0181    3.6133   30.3029 H   0  0  0  0  0  0  0  0  0  0  0  0
   21.7204    4.8764   29.2941 H   0  0  0  0  0  0  0  0  0  0  0  0
   20.8931    5.6149   31.1255 C   0  0  0  0  0  0  0  0  0  0  0  0
   19.7084    5.5130   31.3884 O   0  0  0  0  0  0  0  0  0  0  0  0
   21.5542    6.7778   31.3922 N   0  0  0  0  0  0  0  0  0  0  0  0
   22.4526    6.9115   30.9551 H   0  0  0  0  0  0  0  0  0  0  0  0
   20.9686    7.9363   31.7511 C   0  0  0  0  0  0  0  0  0  0  0  0
   21.7335    8.9428   31.3678 N   0  0  0  0  0  0  0  0  0  0  0  0
   21.4182   10.2240   31.6811 C   0  0  0  0  0  0  0  0  0  0  0  0
   22.2893   11.3894   31.2050 C   0  0  0  0  0  0  0  0  0  0  0  0
   23.5172   11.3738   31.3110 O   0  0  0  0  0  0  0  0  0  0  0  0
   21.7503   12.5618   30.6623 N   0  0  0  0  0  0  0  0  0  0  0  0
   20.7580   12.5614   30.4284 H   0  0  0  0  0  0  0  0  0  0  0  0
   22.5775   13.6764   30.1808 C   0  0  0  0  0  0  0  0  0  0  0  0
   23.2953   13.9608   30.9568 H   0  0  0  0  0  0  0  0  0  0  0  0
   21.9470   14.5472   29.9828 H   0  0  0  0  0  0  0  0  0  0  0  0
   23.3498   13.3208   28.9107 C   0  0  0  0  0  0  0  0  0  0  0  0
   23.9903   12.4537   29.0978 H   0  0  0  0  0  0  0  0  0  0  0  0
   22.6508   13.0433   28.1205 H   0  0  0  0  0  0  0  0  0  0  0  0
   24.1550   14.4337   28.4975 O   0  0  0  0  0  0  0  0  0  0  0  0
   23.5237   15.2765   27.5295 C   0  0  0  0  0  0  0  0  0  0  0  0
   24.1368   16.1615   27.3334 H   0  0  0  0  0  0  0  0  0  0  0  0
   22.5451   15.6084   27.8834 H   0  0  0  0  0  0  0  0  0  0  0  0
   23.3961   14.7318   26.5915 H   0  0  0  0  0  0  0  0  0  0  0  0
   20.2686   10.4517   32.4531 C   0  0  0  0  0  0  0  0  0  0  0  0
   19.9253   11.7744   32.8746 C   0  0  0  0  0  0  0  0  0  0  0  0
   19.6915   12.8688   33.1872 N   0  0  0  0  0  0  0  0  0  0  0  0
   19.5042    9.3647   32.8404 C   0  0  0  0  0  0  0  0  0  0  0  0
   18.4320    9.4915   33.6547 N   0  0  0  0  0  0  0  0  0  0  0  0
   18.1338   10.4113   33.9628 H   0  0  0  0  0  0  0  0  0  0  0  0
   17.9050    8.6615   33.9142 H   0  0  0  0  0  0  0  0  0  0  0  0
   19.8218    8.0924   32.4712 C   0  0  0  0  0  0  0  0  0  0  0  0
   19.2158    7.2562   32.7862 H   0  0  0  0  0  0  0  0  0  0  0  0
   24.0846    5.0853   30.5661 C   0  0  0  0  0  0  0  0  0  0  0  0
   23.8625    6.1765   29.7516 O   0  0  0  0  0  0  0  0  0  0  0  0
   24.9298    7.1206   29.5858 C   0  0  0  0  0  0  0  0  0  0  0  0
   24.5780    7.9632   28.9851 H   0  0  0  0  0  0  0  0  0  0  0  0
   25.2633    7.5079   30.5519 H   0  0  0  0  0  0  0  0  0  0  0  0
   25.7810    6.6678   29.0710 H   0  0  0  0  0  0  0  0  0  0  0  0
  1  2  1  0
  2  3  2  0
  3  4  1  0
  3  5  1  0
  5  6  1  0
  6  7  1  0
  7  8  1  0
  7  9  1  0
  7 10  1  0
  5 11  2  0
 11 12  1  0
 11 13  1  0
 13 14  1  0
 14 15  1  0
 14 16  1  0
 14 17  1  0
 17 18  2  0
 17 19  1  0
 19 20  1  0
 19 21  1  0
 21 22  2  0
 22 23  1  0
 23 24  1  0
 24 25  2  0
 24 26  1  0
 26 27  1  0
 26 28  1  0
 28 29  1  0
 28 30  1  0
 28 31  1  0
 31 32  1  0
 31 33  1  0
 31 34  1  0
 34 35  1  0
 35 36  1  0
 35 37  1  0
 35 38  1  0
 23 39  2  0
 39 40  1  0
 40 41  3  0
 39 42  1  0
 42 43  1  0
 43 44  1  0
 43 45  1  0
 42 46  2  0
 46 47  1  0
 13 48  2  0
 48 49  1  0
 49 50  1  0
 50 51  1  0
 50 52  1  0
 50 53  1  0
 48  2  1  0
 46 21  1  0
M  END
>  <score>  (153) 
7.45196

$$$$

     RDKit          3D

 49 51  0  0  0  0  0  0  0  0999 V2000
   22.0689   12.8647   32.7484 H   0  0  0  0  0  0  0  0  0  0  0  0
   22.5192   12.5543   31.8073 C   0  0  0  0  0  0  0  0  0  0  0  0
   23.4228   13.2452   31.1494 N   0  0  0  0  0  0  0  0  0  0  0  0
   23.7355   12.4930   30.0524 N   0  0  0  0  0  0  0  0  0  0  0  0
   24.7281   12.8726   29.0453 C   0  0  0  0  0  0  0  0  0  0  0  0
   25.6438   12.2932   29.1703 H   0  0  0  0  0  0  0  0  0  0  0  0
   24.3425   12.6878   28.0416 H   0  0  0  0  0  0  0  0  0  0  0  0
   24.9681   13.9330   29.1390 H   0  0  0  0  0  0  0  0  0  0  0  0
   23.0291   11.3025   30.0232 C   0  0  0  0  0  0  0  0  0  0  0  0
   23.0833   10.5322   29.2563 H   0  0  0  0  0  0  0  0  0  0  0  0
   22.2611   11.2956   31.1524 C   0  0  0  0  0  0  0  0  0  0  0  0
   21.4059   10.2337   31.6545 C   0  0  0  0  0  0  0  0  0  0  0  0
   21.7717    9.0061   31.3148 N   0  0  0  0  0  0  0  0  0  0  0  0
   21.0485    7.9990   31.7236 C   0  0  0  0  0  0  0  0  0  0  0  0
   21.6093    6.8469   31.3157 N   0  0  0  0  0  0  0  0  0  0  0  0
   22.4665    6.9636   30.7934 H   0  0  0  0  0  0  0  0  0  0  0  0
   20.9161    5.6908   31.1378 C   0  0  0  0  0  0  0  0  0  0  0  0
   19.7264    5.6376   31.4097 O   0  0  0  0  0  0  0  0  0  0  0  0
   21.5863    4.5671   30.3696 C   0  0  0  0  0  0  0  0  0  0  0  0
   20.9551    3.6793   30.4219 H   0  0  0  0  0  0  0  0  0  0  0  0
   21.6584    4.8937   29.3282 H   0  0  0  0  0  0  0  0  0  0  0  0
   22.9721    4.2534   30.8993 C   0  0  0  0  0  0  0  0  0  0  0  0
   23.1769    3.1413   31.7340 C   0  0  0  0  0  0  0  0  0  0  0  0
   22.3436    2.4896   31.9833 H   0  0  0  0  0  0  0  0  0  0  0  0
   24.4488    2.8556   32.2658 C   0  0  0  0  0  0  0  0  0  0  0  0
   24.6750    1.7849   33.1018 O   0  0  0  0  0  0  0  0  0  0  0  0
   23.6749    0.7545   33.1228 C   0  0  0  0  0  0  0  0  0  0  0  0
   24.0244   -0.0912   33.7254 H   0  0  0  0  0  0  0  0  0  0  0  0
   22.7398    1.1253   33.5534 H   0  0  0  0  0  0  0  0  0  0  0  0
   23.4738    0.3934   32.1097 H   0  0  0  0  0  0  0  0  0  0  0  0
   25.5236    3.7022   31.9440 C   0  0  0  0  0  0  0  0  0  0  0  0
   27.2778    3.3683   32.6403 Br  0  0  0  0  0  0  0  0  0  0  0  0
   25.3226    4.7992   31.1016 C   0  0  0  0  0  0  0  0  0  0  0  0
   26.1642    5.4353   30.8529 H   0  0  0  0  0  0  0  0  0  0  0  0
   24.0552    5.0956   30.5776 C   0  0  0  0  0  0  0  0  0  0  0  0
   23.8353    6.1885   29.7666 O   0  0  0  0  0  0  0  0  0  0  0  0
   24.9324    7.0993   29.6024 C   0  0  0  0  0  0  0  0  0  0  0  0
   24.6167    7.9556   28.9991 H   0  0  0  0  0  0  0  0  0  0  0  0
   25.2752    7.4674   30.5741 H   0  0  0  0  0  0  0  0  0  0  0  0
   25.7734    6.6119   29.0996 H   0  0  0  0  0  0  0  0  0  0  0  0
   19.9058    8.1361   32.4664 C   0  0  0  0  0  0  0  0  0  0  0  0
   19.3171    7.2861   32.7601 H   0  0  0  0  0  0  0  0  0  0  0  0
   19.5571    9.3914   32.8558 C   0  0  0  0  0  0  0  0  0  0  0  0
   18.4782    9.5180   33.6624 N   0  0  0  0  0  0  0  0  0  0  0  0
   17.9313    8.6845   33.8758 H   0  0  0  0  0  0  0  0  0  0  0  0
   18.1529   10.4491   33.9149 H   0  0  0  0  0  0  0  0  0  0  0  0
   20.3068   10.4662   32.4622 C   0  0  0  0  0  0  0  0  0  0  0  0
   19.9643   11.7829   32.8723 C   0  0  0  0  0  0  0  0  0  0  0  0
   19.7505   12.8620   33.2348 N   0  0  0  0  0  0  0  0  0  0  0  0
  1  2  1  0
  2  3  2  0
  3  4  1  0
  4  5  1  0
  5  6  1  0
  5  7  1  0
  5  8  1  0
  4  9  1  0
  9 10  1  0
  9 11  2  0
 11 12  1  0
 12 13  2  0
 13 14  1  0
 14 15  1  0
 15 16  1  0
 15 17  1  0
 17 18  2  0
 17 19  1  0
 19 20  1  0
 19 21  1  0
 19 22  1  0
 22 23  2  0
 23 24  1  0
 23 25  1  0
 25 26  1  0
 26 27  1  0
 27 28  1  0
 27 29  1  0
 27 30  1  0
 25 31  2  0
 31 32  1  0
 31 33  1  0
 33 34  1  0
 33 35  2  0
 35 36  1  0
 36 37  1  0
 37 38  1  0
 37 39  1  0
 37 40  1  0
 14 41  2  0
 41 42  1  0
 41 43  1  0
 43 44  1  0
 44 45  1  0
 44 46  1  0
 43 47  2  0
 47 48  1  0
 48 49  3  0
 11  2  1  0
 47 12  1  0
 35 22  1  0
M  END
>  <score>  (154) 
7.45345

$$$$

     RDKit          3D

 56 57  0  0  0  0  0  0  0  0999 V2000
   26.0942    5.5410   30.9237 H   0  0  0  0  0  0  0  0  0  0  0  0
   25.2703    4.8714   31.1452 C   0  0  0  0  0  0  0  0  0  0  0  0
   25.4807    3.7514   31.9586 C   0  0  0  0  0  0  0  0  0  0  0  0
   27.2308    3.4257   32.6588 Br  0  0  0  0  0  0  0  0  0  0  0  0
   24.4147    2.8862   32.2536 C   0  0  0  0  0  0  0  0  0  0  0  0
   24.6294    1.7884   33.0542 O   0  0  0  0  0  0  0  0  0  0  0  0
   23.5814    0.8067   33.0700 C   0  0  0  0  0  0  0  0  0  0  0  0
   23.8843   -0.0493   33.6792 H   0  0  0  0  0  0  0  0  0  0  0  0
   23.3710    0.4525   32.0556 H   0  0  0  0  0  0  0  0  0  0  0  0
   22.6637    1.2270   33.4926 H   0  0  0  0  0  0  0  0  0  0  0  0
   23.1497    3.1767   31.7252 C   0  0  0  0  0  0  0  0  0  0  0  0
   22.3170    2.5226   31.9663 H   0  0  0  0  0  0  0  0  0  0  0  0
   22.9380    4.2878   30.9055 C   0  0  0  0  0  0  0  0  0  0  0  0
   21.5323    4.5377   30.4241 C   0  0  0  0  0  0  0  0  0  0  0  0
   20.9152    3.6526   30.6233 H   0  0  0  0  0  0  0  0  0  0  0  0
   21.5388    4.7071   29.3448 H   0  0  0  0  0  0  0  0  0  0  0  0
   20.9481    5.7557   31.1331 C   0  0  0  0  0  0  0  0  0  0  0  0
   19.8266    5.6986   31.6144 O   0  0  0  0  0  0  0  0  0  0  0  0
   21.6612    6.9185   31.1683 N   0  0  0  0  0  0  0  0  0  0  0  0
   22.5456    6.9554   30.6799 H   0  0  0  0  0  0  0  0  0  0  0  0
   21.1974    8.1003   31.6243 C   0  0  0  0  0  0  0  0  0  0  0  0
   21.9495    9.0986   31.2266 N   0  0  0  0  0  0  0  0  0  0  0  0
   21.5753   10.3201   31.5745 C   0  0  0  0  0  0  0  0  0  0  0  0
   22.3798   11.3441   31.1954 N   0  0  0  0  0  0  0  0  0  0  0  0
   22.2106   12.2734   31.5479 H   0  0  0  0  0  0  0  0  0  0  0  0
   23.3844   11.1874   30.3024 C   0  0  0  0  0  0  0  0  0  0  0  0
   23.4872   10.1664   29.6416 O   0  0  0  0  0  0  0  0  0  0  0  0
   24.1757   12.2583   30.2331 O   0  0  0  0  0  0  0  0  0  0  0  0
   25.0607   12.3149   29.1190 C   0  0  0  0  0  0  0  0  0  0  0  0
   25.8893   13.5707   29.3425 C   0  0  0  0  0  0  0  0  0  0  0  0
   26.3793   13.5151   30.3159 H   0  0  0  0  0  0  0  0  0  0  0  0
   26.6510   13.6800   28.5662 H   0  0  0  0  0  0  0  0  0  0  0  0
   25.2415   14.4537   29.3332 H   0  0  0  0  0  0  0  0  0  0  0  0
   24.2247   12.4320   27.8574 C   0  0  0  0  0  0  0  0  0  0  0  0
   23.6936   11.4861   27.7111 H   0  0  0  0  0  0  0  0  0  0  0  0
   23.4885   13.2366   27.9560 H   0  0  0  0  0  0  0  0  0  0  0  0
   24.8516   12.6299   26.9833 H   0  0  0  0  0  0  0  0  0  0  0  0
   25.9439   11.0659   29.0096 C   0  0  0  0  0  0  0  0  0  0  0  0
   25.3560   10.2028   28.6893 H   0  0  0  0  0  0  0  0  0  0  0  0
   26.7415   11.2244   28.2822 H   0  0  0  0  0  0  0  0  0  0  0  0
   26.3923   10.8208   29.9674 H   0  0  0  0  0  0  0  0  0  0  0  0
   20.4520   10.6000   32.3178 C   0  0  0  0  0  0  0  0  0  0  0  0
   20.0984   11.9379   32.6683 C   0  0  0  0  0  0  0  0  0  0  0  0
   19.8358   13.0408   32.9372 N   0  0  0  0  0  0  0  0  0  0  0  0
   19.6956    9.5245   32.6966 C   0  0  0  0  0  0  0  0  0  0  0  0
   18.5616    9.6735   33.3997 N   0  0  0  0  0  0  0  0  0  0  0  0
   18.3860   10.5831   33.8224 H   0  0  0  0  0  0  0  0  0  0  0  0
   18.2086    8.8268   33.8477 H   0  0  0  0  0  0  0  0  0  0  0  0
   20.0596    8.2541   32.3741 C   0  0  0  0  0  0  0  0  0  0  0  0
   19.4510    7.4209   32.6865 H   0  0  0  0  0  0  0  0  0  0  0  0
   24.0064    5.1618   30.6081 C   0  0  0  0  0  0  0  0  0  0  0  0
   23.7849    6.2823   29.8334 O   0  0  0  0  0  0  0  0  0  0  0  0
   24.9154    7.1427   29.6172 C   0  0  0  0  0  0  0  0  0  0  0  0
   24.6317    7.9921   28.9897 H   0  0  0  0  0  0  0  0  0  0  0  0
   25.2962    7.5293   30.5678 H   0  0  0  0  0  0  0  0  0  0  0  0
   25.7177    6.5939   29.1153 H   0  0  0  0  0  0  0  0  0  0  0  0
  1  2  1  0
  2  3  2  0
  3  4  1  0
  3  5  1  0
  5  6  1  0
  6  7  1  0
  7  8  1  0
  7  9  1  0
  7 10  1  0
  5 11  2  0
 11 12  1  0
 11 13  1  0
 13 14  1  0
 14 15  1  0
 14 16  1  0
 14 17  1  0
 17 18  2  0
 17 19  1  0
 19 20  1  0
 19 21  1  0
 21 22  2  0
 22 23  1  0
 23 24  1  0
 24 25  1  0
 24 26  1  0
 26 27  2  0
 26 28  1  0
 28 29  1  0
 29 30  1  0
 30 31  1  0
 30 32  1  0
 30 33  1  0
 29 34  1  0
 34 35  1  0
 34 36  1  0
 34 37  1  0
 29 38  1  0
 38 39  1  0
 38 40  1  0
 38 41  1  0
 23 42  2  0
 42 43  1  0
 43 44  3  0
 42 45  1  0
 45 46  1  0
 46 47  1  0
 46 48  1  0
 45 49  2  0
 49 50  1  0
 13 51  2  0
 51 52  1  0
 52 53  1  0
 53 54  1  0
 53 55  1  0
 53 56  1  0
 51  2  1  0
 49 21  1  0
M  END
>  <score>  (155) 
7.45467

$$$$

     RDKit          3D

 45 46  0  0  0  0  0  0  0  0999 V2000
   26.1468    5.4672   30.8789 H   0  0  0  0  0  0  0  0  0  0  0  0
   25.3134    4.8140   31.1167 C   0  0  0  0  0  0  0  0  0  0  0  0
   25.5185    3.7121   31.9524 C   0  0  0  0  0  0  0  0  0  0  0  0
   27.2750    3.4040   32.6555 Br  0  0  0  0  0  0  0  0  0  0  0  0
   24.4483    2.8565   32.2616 C   0  0  0  0  0  0  0  0  0  0  0  0
   24.6780    1.7785   33.0859 O   0  0  0  0  0  0  0  0  0  0  0  0
   23.6580    0.7682   33.1055 C   0  0  0  0  0  0  0  0  0  0  0  0
   22.7313    1.1632   33.5349 H   0  0  0  0  0  0  0  0  0  0  0  0
   23.9890   -0.0805   33.7124 H   0  0  0  0  0  0  0  0  0  0  0  0
   23.4518    0.4074   32.0913 H   0  0  0  0  0  0  0  0  0  0  0  0
   23.1809    3.1352   31.7181 C   0  0  0  0  0  0  0  0  0  0  0  0
   22.3514    2.4833   31.9723 H   0  0  0  0  0  0  0  0  0  0  0  0
   22.9746    4.2334   30.8727 C   0  0  0  0  0  0  0  0  0  0  0  0
   21.5916    4.4969   30.3222 C   0  0  0  0  0  0  0  0  0  0  0  0
   20.9593    3.6134   30.4307 H   0  0  0  0  0  0  0  0  0  0  0  0
   21.6611    4.7315   29.2572 H   0  0  0  0  0  0  0  0  0  0  0  0
   20.9493    5.6643   31.0561 C   0  0  0  0  0  0  0  0  0  0  0  0
   19.7966    5.5893   31.4529 O   0  0  0  0  0  0  0  0  0  0  0  0
   21.6527    6.8286   31.1891 N   0  0  0  0  0  0  0  0  0  0  0  0
   22.5201    6.9365   30.6776 H   0  0  0  0  0  0  0  0  0  0  0  0
   21.1098    7.9656   31.6819 C   0  0  0  0  0  0  0  0  0  0  0  0
   21.7561    9.0358   31.2730 N   0  0  0  0  0  0  0  0  0  0  0  0
   21.3466   10.2333   31.6819 C   0  0  0  0  0  0  0  0  0  0  0  0
   22.1028   11.4151   31.1943 C   0  0  0  0  0  0  0  0  0  0  0  0
   21.4697   11.9814   30.5091 H   0  0  0  0  0  0  0  0  0  0  0  0
   22.3732   12.0480   32.0392 H   0  0  0  0  0  0  0  0  0  0  0  0
   23.3566   10.9528   30.4816 C   0  0  0  0  0  0  0  0  0  0  0  0
   24.1127   12.0315   30.1604 F   0  0  0  0  0  0  0  0  0  0  0  0
   24.0765   10.1426   31.3012 F   0  0  0  0  0  0  0  0  0  0  0  0
   23.0159   10.2919   29.3451 F   0  0  0  0  0  0  0  0  0  0  0  0
   20.2404   10.3895   32.4951 C   0  0  0  0  0  0  0  0  0  0  0  0
   19.8202   11.6756   32.9458 C   0  0  0  0  0  0  0  0  0  0  0  0
   19.5414   12.7370   33.3300 N   0  0  0  0  0  0  0  0  0  0  0  0
   19.5947    9.2504   32.8996 C   0  0  0  0  0  0  0  0  0  0  0  0
   18.5171    9.3050   33.7081 N   0  0  0  0  0  0  0  0  0  0  0  0
   18.1699    8.4080   34.0404 H   0  0  0  0  0  0  0  0  0  0  0  0
   17.8563   10.0541   33.5148 H   0  0  0  0  0  0  0  0  0  0  0  0
   20.0212    8.0144   32.5160 C   0  0  0  0  0  0  0  0  0  0  0  0
   19.5305    7.1179   32.8693 H   0  0  0  0  0  0  0  0  0  0  0  0
   24.0487    5.0963   30.5762 C   0  0  0  0  0  0  0  0  0  0  0  0
   23.8199    6.2047   29.7906 O   0  0  0  0  0  0  0  0  0  0  0  0
   24.9304    7.0986   29.6160 C   0  0  0  0  0  0  0  0  0  0  0  0
   24.6275    7.9558   29.0066 H   0  0  0  0  0  0  0  0  0  0  0  0
   25.7569    6.5863   29.1110 H   0  0  0  0  0  0  0  0  0  0  0  0
   25.2847    7.4699   30.5847 H   0  0  0  0  0  0  0  0  0  0  0  0
  1  2  1  0
  2  3  2  0
  3  4  1  0
  3  5  1  0
  5  6  1  0
  6  7  1  0
  7  8  1  0
  7  9  1  0
  7 10  1  0
  5 11  2  0
 11 12  1  0
 11 13  1  0
 13 14  1  0
 14 15  1  0
 14 16  1  0
 14 17  1  0
 17 18  2  0
 17 19  1  0
 19 20  1  0
 19 21  1  0
 21 22  2  0
 22 23  1  0
 23 24  1  0
 24 25  1  0
 24 26  1  0
 24 27  1  0
 27 28  1  0
 27 29  1  0
 27 30  1  0
 23 31  2  0
 31 32  1  0
 32 33  3  0
 31 34  1  0
 34 35  1  0
 35 36  1  0
 35 37  1  0
 34 38  2  0
 38 39  1  0
 13 40  2  0
 40 41  1  0
 41 42  1  0
 42 43  1  0
 42 44  1  0
 42 45  1  0
 40  2  1  0
 38 21  1  0
M  END
>  <score>  (156) 
7.45775

$$$$

     RDKit          3D

 55 56  0  0  0  0  0  0  0  0999 V2000
   26.1481    5.4415   30.8457 H   0  0  0  0  0  0  0  0  0  0  0  0
   25.3067    4.8062   31.0993 C   0  0  0  0  0  0  0  0  0  0  0  0
   25.5045    3.7089   31.9444 C   0  0  0  0  0  0  0  0  0  0  0  0
   27.2603    3.3667   32.6348 Br  0  0  0  0  0  0  0  0  0  0  0  0
   24.4310    2.8617   32.2659 C   0  0  0  0  0  0  0  0  0  0  0  0
   24.6633    1.7935   33.1047 O   0  0  0  0  0  0  0  0  0  0  0  0
   23.6732    0.7559   33.1242 C   0  0  0  0  0  0  0  0  0  0  0  0
   22.7169    1.1363   33.4966 H   0  0  0  0  0  0  0  0  0  0  0  0
   24.0058   -0.0538   33.7818 H   0  0  0  0  0  0  0  0  0  0  0  0
   23.5271    0.3462   32.1195 H   0  0  0  0  0  0  0  0  0  0  0  0
   23.1629    3.1449   31.7254 C   0  0  0  0  0  0  0  0  0  0  0  0
   22.3349    2.4864   31.9725 H   0  0  0  0  0  0  0  0  0  0  0  0
   22.9612    4.2476   30.8771 C   0  0  0  0  0  0  0  0  0  0  0  0
   21.5817    4.5138   30.3145 C   0  0  0  0  0  0  0  0  0  0  0  0
   21.6761    4.8162   29.2681 H   0  0  0  0  0  0  0  0  0  0  0  0
   20.9668    3.6129   30.3523 H   0  0  0  0  0  0  0  0  0  0  0  0
   20.8800    5.6280   31.0780 C   0  0  0  0  0  0  0  0  0  0  0  0
   19.8230    5.4484   31.6574 O   0  0  0  0  0  0  0  0  0  0  0  0
   21.4066    6.8786   31.0042 N   0  0  0  0  0  0  0  0  0  0  0  0
   22.2957    7.0117   30.5486 H   0  0  0  0  0  0  0  0  0  0  0  0
   20.9043    7.9865   31.5720 C   0  0  0  0  0  0  0  0  0  0  0  0
   21.6896    8.9900   31.2590 N   0  0  0  0  0  0  0  0  0  0  0  0
   21.4228   10.2405   31.6933 C   0  0  0  0  0  0  0  0  0  0  0  0
   22.3653   11.3662   31.2903 C   0  0  0  0  0  0  0  0  0  0  0  0
   22.1179   12.5393   31.5794 O   0  0  0  0  0  0  0  0  0  0  0  0
   23.5659   11.1201   30.6227 N   0  0  0  0  0  0  0  0  0  0  0  0
   23.8998   10.1596   30.5816 H   0  0  0  0  0  0  0  0  0  0  0  0
   24.5471   12.1395   30.3506 C   0  0  0  0  0  0  0  0  0  0  0  0
   24.9511   12.7647   31.6646 C   0  0  0  0  0  0  0  0  0  0  0  0
   25.4684   12.0250   32.2799 H   0  0  0  0  0  0  0  0  0  0  0  0
   25.5869   13.6239   31.4628 H   0  0  0  0  0  0  0  0  0  0  0  0
   24.0688   13.1225   32.2012 H   0  0  0  0  0  0  0  0  0  0  0  0
   25.7298   11.4383   29.6866 C   0  0  0  0  0  0  0  0  0  0  0  0
   25.4906   11.1583   28.6581 H   0  0  0  0  0  0  0  0  0  0  0  0
   26.5944   12.1028   29.6752 H   0  0  0  0  0  0  0  0  0  0  0  0
   26.0058   10.5299   30.2300 H   0  0  0  0  0  0  0  0  0  0  0  0
   23.9821   13.2425   29.4644 C   0  0  0  0  0  0  0  0  0  0  0  0
   24.7807   13.9245   29.1542 H   0  0  0  0  0  0  0  0  0  0  0  0
   23.2341   13.8141   30.0205 H   0  0  0  0  0  0  0  0  0  0  0  0
   23.5073   12.8228   28.5749 H   0  0  0  0  0  0  0  0  0  0  0  0
   20.2965   10.4416   32.5098 C   0  0  0  0  0  0  0  0  0  0  0  0
   19.9328   11.7432   32.9669 C   0  0  0  0  0  0  0  0  0  0  0  0
   19.6347   12.8173   33.3031 N   0  0  0  0  0  0  0  0  0  0  0  0
   19.5342    9.3462   32.8670 C   0  0  0  0  0  0  0  0  0  0  0  0
   18.4853    9.4709   33.7177 N   0  0  0  0  0  0  0  0  0  0  0  0
   17.7967    8.7229   33.6997 H   0  0  0  0  0  0  0  0  0  0  0  0
   18.1755   10.4167   33.9302 H   0  0  0  0  0  0  0  0  0  0  0  0
   19.8067    8.1021   32.3771 C   0  0  0  0  0  0  0  0  0  0  0  0
   19.2015    7.2530   32.6492 H   0  0  0  0  0  0  0  0  0  0  0  0
   24.0437    5.0983   30.5640 C   0  0  0  0  0  0  0  0  0  0  0  0
   23.8348    6.1865   29.7436 O   0  0  0  0  0  0  0  0  0  0  0  0
   24.9271    7.1043   29.5928 C   0  0  0  0  0  0  0  0  0  0  0  0
   24.6638    7.8798   28.8685 H   0  0  0  0  0  0  0  0  0  0  0  0
   25.8252    6.5908   29.2404 H   0  0  0  0  0  0  0  0  0  0  0  0
   25.1527    7.5828   30.5485 H   0  0  0  0  0  0  0  0  0  0  0  0
  1  2  1  0
  2  3  2  0
  3  4  1  0
  3  5  1  0
  5  6  1  0
  6  7  1  0
  7  8  1  0
  7  9  1  0
  7 10  1  0
  5 11  2  0
 11 12  1  0
 11 13  1  0
 13 14  1  0
 14 15  1  0
 14 16  1  0
 14 17  1  0
 17 18  2  0
 17 19  1  0
 19 20  1  0
 19 21  1  0
 21 22  2  0
 22 23  1  0
 23 24  1  0
 24 25  2  0
 24 26  1  0
 26 27  1  0
 26 28  1  0
 28 29  1  0
 29 30  1  0
 29 31  1  0
 29 32  1  0
 28 33  1  0
 33 34  1  0
 33 35  1  0
 33 36  1  0
 28 37  1  0
 37 38  1  0
 37 39  1  0
 37 40  1  0
 23 41  2  0
 41 42  1  0
 42 43  3  0
 41 44  1  0
 44 45  1  0
 45 46  1  0
 45 47  1  0
 44 48  2  0
 48 49  1  0
 13 50  2  0
 50 51  1  0
 51 52  1  0
 52 53  1  0
 52 54  1  0
 52 55  1  0
 50  2  1  0
 48 21  1  0
M  END
>  <score>  (157) 
7.45846

$$$$

     RDKit          3D

 49 51  0  0  0  0  0  0  0  0999 V2000
   26.1765    5.4236   30.8478 H   0  0  0  0  0  0  0  0  0  0  0  0
   25.3347    4.7897   31.1029 C   0  0  0  0  0  0  0  0  0  0  0  0
   25.5225    3.6851   31.9446 C   0  0  0  0  0  0  0  0  0  0  0  0
   27.2744    3.3351   32.6371 Br  0  0  0  0  0  0  0  0  0  0  0  0
   24.4423    2.8492   32.2702 C   0  0  0  0  0  0  0  0  0  0  0  0
   24.6702    1.7843   33.1131 O   0  0  0  0  0  0  0  0  0  0  0  0
   23.6833    0.7438   33.1326 C   0  0  0  0  0  0  0  0  0  0  0  0
   22.7460    1.0973   33.5711 H   0  0  0  0  0  0  0  0  0  0  0  0
   23.4872    0.3757   32.1212 H   0  0  0  0  0  0  0  0  0  0  0  0
   24.0476   -0.0934   33.7345 H   0  0  0  0  0  0  0  0  0  0  0  0
   23.1775    3.1439   31.7324 C   0  0  0  0  0  0  0  0  0  0  0  0
   22.3449    2.4940   31.9823 H   0  0  0  0  0  0  0  0  0  0  0  0
   22.9866    4.2526   30.8894 C   0  0  0  0  0  0  0  0  0  0  0  0
   21.6050    4.5572   30.3487 C   0  0  0  0  0  0  0  0  0  0  0  0
   20.9775    3.6627   30.3747 H   0  0  0  0  0  0  0  0  0  0  0  0
   21.6910    4.8878   29.3101 H   0  0  0  0  0  0  0  0  0  0  0  0
   20.9258    5.6737   31.1308 C   0  0  0  0  0  0  0  0  0  0  0  0
   19.7369    5.6083   31.3967 O   0  0  0  0  0  0  0  0  0  0  0  0
   21.6078    6.8348   31.3414 N   0  0  0  0  0  0  0  0  0  0  0  0
   22.4911    6.9464   30.8631 H   0  0  0  0  0  0  0  0  0  0  0  0
   21.0325    7.9915   31.7351 C   0  0  0  0  0  0  0  0  0  0  0  0
   21.7376    9.0164   31.3207 N   0  0  0  0  0  0  0  0  0  0  0  0
   21.3568   10.2515   31.6613 C   0  0  0  0  0  0  0  0  0  0  0  0
   22.1157   11.4232   31.1242 C   0  0  0  0  0  0  0  0  0  0  0  0
   22.1857   12.2047   31.8815 H   0  0  0  0  0  0  0  0  0  0  0  0
   21.6194   11.8282   30.2398 H   0  0  0  0  0  0  0  0  0  0  0  0
   23.4750   10.9373   30.8322 C   0  0  0  0  0  0  0  0  0  0  0  0
   24.1755   10.2840   31.8200 N   0  0  0  0  0  0  0  0  0  0  0  0
   25.2719    9.8697   31.2457 C   0  0  0  0  0  0  0  0  0  0  0  0
   26.0213    9.2813   31.7472 H   0  0  0  0  0  0  0  0  0  0  0  0
   25.3196   10.2713   29.9194 N   0  0  0  0  0  0  0  0  0  0  0  0
   26.1031   10.1462   29.2824 H   0  0  0  0  0  0  0  0  0  0  0  0
   24.1387   10.9257   29.6464 C   0  0  0  0  0  0  0  0  0  0  0  0
   23.7796   11.3191   28.7025 H   0  0  0  0  0  0  0  0  0  0  0  0
   20.2647   10.4679   32.4742 C   0  0  0  0  0  0  0  0  0  0  0  0
   19.9243   11.7889   32.8897 C   0  0  0  0  0  0  0  0  0  0  0  0
   19.6869   12.8778   33.2163 N   0  0  0  0  0  0  0  0  0  0  0  0
   19.5359    9.3739   32.8605 C   0  0  0  0  0  0  0  0  0  0  0  0
   18.4490    9.4928   33.6451 N   0  0  0  0  0  0  0  0  0  0  0  0
   17.9225    8.6602   33.8975 H   0  0  0  0  0  0  0  0  0  0  0  0
   18.1553   10.4174   33.9384 H   0  0  0  0  0  0  0  0  0  0  0  0
   19.8868    8.1201   32.4696 C   0  0  0  0  0  0  0  0  0  0  0  0
   19.2941    7.2667   32.7444 H   0  0  0  0  0  0  0  0  0  0  0  0
   24.0721    5.0931   30.5729 C   0  0  0  0  0  0  0  0  0  0  0  0
   23.8482    6.1826   29.7575 O   0  0  0  0  0  0  0  0  0  0  0  0
   24.9297    7.1114   29.5961 C   0  0  0  0  0  0  0  0  0  0  0  0
   25.7790    6.6435   29.0889 H   0  0  0  0  0  0  0  0  0  0  0  0
   25.2612    7.4918   30.5667 H   0  0  0  0  0  0  0  0  0  0  0  0
   24.5977    7.9592   28.9920 H   0  0  0  0  0  0  0  0  0  0  0  0
  1  2  1  0
  2  3  2  0
  3  4  1  0
  3  5  1  0
  5  6  1  0
  6  7  1  0
  7  8  1  0
  7  9  1  0
  7 10  1  0
  5 11  2  0
 11 12  1  0
 11 13  1  0
 13 14  1  0
 14 15  1  0
 14 16  1  0
 14 17  1  0
 17 18  2  0
 17 19  1  0
 19 20  1  0
 19 21  1  0
 21 22  2  0
 22 23  1  0
 23 24  1  0
 24 25  1  0
 24 26  1  0
 24 27  1  0
 27 28  1  0
 28 29  2  0
 29 30  1  0
 29 31  1  0
 31 32  1  0
 31 33  1  0
 33 34  1  0
 23 35  2  0
 35 36  1  0
 36 37  3  0
 35 38  1  0
 38 39  1  0
 39 40  1  0
 39 41  1  0
 38 42  2  0
 42 43  1  0
 13 44  2  0
 44 45  1  0
 45 46  1  0
 46 47  1  0
 46 48  1  0
 46 49  1  0
 44  2  1  0
 42 21  1  0
 33 27  2  0
M  END
>  <score>  (158) 
7.46254

$$$$

     RDKit          3D

 57 59  0  0  0  0  0  0  0  0999 V2000
   26.1456    5.4828   30.8795 H   0  0  0  0  0  0  0  0  0  0  0  0
   25.3099    4.8356   31.1190 C   0  0  0  0  0  0  0  0  0  0  0  0
   25.5095    3.7295   31.9495 C   0  0  0  0  0  0  0  0  0  0  0  0
   27.2608    3.4056   32.6592 Br  0  0  0  0  0  0  0  0  0  0  0  0
   24.4371    2.8730   32.2500 C   0  0  0  0  0  0  0  0  0  0  0  0
   24.6648    1.7855   33.0596 O   0  0  0  0  0  0  0  0  0  0  0  0
   23.6370    0.7855   33.0881 C   0  0  0  0  0  0  0  0  0  0  0  0
   23.9619   -0.0624   33.6981 H   0  0  0  0  0  0  0  0  0  0  0  0
   23.4250    0.4229   32.0778 H   0  0  0  0  0  0  0  0  0  0  0  0
   22.7158    1.1901   33.5166 H   0  0  0  0  0  0  0  0  0  0  0  0
   23.1682    3.1700   31.7256 C   0  0  0  0  0  0  0  0  0  0  0  0
   22.3335    2.5194   31.9723 H   0  0  0  0  0  0  0  0  0  0  0  0
   22.9691    4.2860   30.9012 C   0  0  0  0  0  0  0  0  0  0  0  0
   21.5857    4.5873   30.3785 C   0  0  0  0  0  0  0  0  0  0  0  0
   20.9235    3.7383   30.5564 H   0  0  0  0  0  0  0  0  0  0  0  0
   21.6223    4.7593   29.2990 H   0  0  0  0  0  0  0  0  0  0  0  0
   21.0045    5.8151   31.0708 C   0  0  0  0  0  0  0  0  0  0  0  0
   19.8558    5.7799   31.4894 O   0  0  0  0  0  0  0  0  0  0  0  0
   21.7186    6.9784   31.1538 N   0  0  0  0  0  0  0  0  0  0  0  0
   22.5887    7.0801   30.6482 H   0  0  0  0  0  0  0  0  0  0  0  0
   21.1892    8.1332   31.5971 C   0  0  0  0  0  0  0  0  0  0  0  0
   21.8500    9.1622   31.1546 N   0  0  0  0  0  0  0  0  0  0  0  0
   21.4334   10.3505   31.5345 C   0  0  0  0  0  0  0  0  0  0  0  0
   22.0842   11.4229   31.0808 N   0  0  0  0  0  0  0  0  0  0  0  0
   22.3118   12.0496   31.8189 H   0  0  0  0  0  0  0  0  0  0  0  0
   23.4618   10.9659   30.2988 S   0  0  0  0  0  0  0  0  0  0  0  0
   23.0929   10.0567   29.2119 O   0  0  0  0  0  0  0  0  0  0  0  0
   24.3089   10.3621   31.3314 O   0  0  0  0  0  0  0  0  0  0  0  0
   24.0994   12.5510   29.7034 C   0  0  0  0  0  0  0  0  0  0  0  0
   23.2402   13.5015   29.1235 C   0  0  0  0  0  0  0  0  0  0  0  0
   22.1685   13.3379   29.0288 H   0  0  0  0  0  0  0  0  0  0  0  0
   23.7573   14.6926   28.6173 C   0  0  0  0  0  0  0  0  0  0  0  0
   23.0905   15.4233   28.1666 H   0  0  0  0  0  0  0  0  0  0  0  0
   25.1297   14.9516   28.6817 C   0  0  0  0  0  0  0  0  0  0  0  0
   25.6859   16.2315   28.1300 C   0  0  0  0  0  0  0  0  0  0  0  0
   26.7315   16.3545   28.4263 H   0  0  0  0  0  0  0  0  0  0  0  0
   25.1082   17.0882   28.4923 H   0  0  0  0  0  0  0  0  0  0  0  0
   25.6495   16.2207   27.0410 H   0  0  0  0  0  0  0  0  0  0  0  0
   25.9812   14.0064   29.2658 C   0  0  0  0  0  0  0  0  0  0  0  0
   27.0504   14.1892   29.3109 H   0  0  0  0  0  0  0  0  0  0  0  0
   25.4753   12.8120   29.7683 C   0  0  0  0  0  0  0  0  0  0  0  0
   26.1774   12.0898   30.1767 H   0  0  0  0  0  0  0  0  0  0  0  0
   20.3949   10.5683   32.3985 C   0  0  0  0  0  0  0  0  0  0  0  0
   20.0160   11.8704   32.8365 C   0  0  0  0  0  0  0  0  0  0  0  0
   19.7475   12.9496   33.1777 N   0  0  0  0  0  0  0  0  0  0  0  0
   19.7245    9.4610   32.8099 C   0  0  0  0  0  0  0  0  0  0  0  0
   18.6569    9.5205   33.6281 N   0  0  0  0  0  0  0  0  0  0  0  0
   18.1086    8.6684   33.7108 H   0  0  0  0  0  0  0  0  0  0  0  0
   18.2062   10.4190   33.7711 H   0  0  0  0  0  0  0  0  0  0  0  0
   20.1035    8.2223   32.4156 C   0  0  0  0  0  0  0  0  0  0  0  0
   19.5909    7.3466   32.7692 H   0  0  0  0  0  0  0  0  0  0  0  0
   24.0472    5.1356   30.5918 C   0  0  0  0  0  0  0  0  0  0  0  0
   23.8240    6.2416   29.8020 O   0  0  0  0  0  0  0  0  0  0  0  0
   24.9384    7.1259   29.6228 C   0  0  0  0  0  0  0  0  0  0  0  0
   25.7634    6.6092   29.1221 H   0  0  0  0  0  0  0  0  0  0  0  0
   25.2919    7.4952   30.5904 H   0  0  0  0  0  0  0  0  0  0  0  0
   24.6399    7.9818   29.0116 H   0  0  0  0  0  0  0  0  0  0  0  0
  1  2  1  0
  2  3  2  0
  3  4  1  0
  3  5  1  0
  5  6  1  0
  6  7  1  0
  7  8  1  0
  7  9  1  0
  7 10  1  0
  5 11  2  0
 11 12  1  0
 11 13  1  0
 13 14  1  0
 14 15  1  0
 14 16  1  0
 14 17  1  0
 17 18  2  0
 17 19  1  0
 19 20  1  0
 19 21  1  0
 21 22  2  0
 22 23  1  0
 23 24  1  0
 24 25  1  0
 24 26  1  0
 26 27  2  0
 26 28  2  0
 26 29  1  0
 29 30  2  0
 30 31  1  0
 30 32  1  0
 32 33  1  0
 32 34  2  0
 34 35  1  0
 35 36  1  0
 35 37  1  0
 35 38  1  0
 34 39  1  0
 39 40  1  0
 39 41  2  0
 41 42  1  0
 23 43  2  0
 43 44  1  0
 44 45  3  0
 43 46  1  0
 46 47  1  0
 47 48  1  0
 47 49  1  0
 46 50  2  0
 50 51  1  0
 13 52  2  0
 52 53  1  0
 53 54  1  0
 54 55  1  0
 54 56  1  0
 54 57  1  0
 52  2  1  0
 50 21  1  0
 41 29  1  0
M  END
>  <score>  (159) 
7.46299

$$$$

     RDKit          3D

 59 61  0  0  0  0  0  0  0  0999 V2000
   26.0455    5.5409   31.0137 H   0  0  0  0  0  0  0  0  0  0  0  0
   25.2376    4.8410   31.1942 C   0  0  0  0  0  0  0  0  0  0  0  0
   25.4627    3.7184   31.9992 C   0  0  0  0  0  0  0  0  0  0  0  0
   27.1977    3.4678   32.7696 Br  0  0  0  0  0  0  0  0  0  0  0  0
   24.4239    2.8026   32.2353 C   0  0  0  0  0  0  0  0  0  0  0  0
   24.6613    1.7015   33.0261 O   0  0  0  0  0  0  0  0  0  0  0  0
   23.6010    0.7373   33.1009 C   0  0  0  0  0  0  0  0  0  0  0  0
   22.7038    1.1878   33.5366 H   0  0  0  0  0  0  0  0  0  0  0  0
   23.9064   -0.1059   33.7270 H   0  0  0  0  0  0  0  0  0  0  0  0
   23.3565    0.3591   32.1030 H   0  0  0  0  0  0  0  0  0  0  0  0
   23.1650    3.0521   31.6673 C   0  0  0  0  0  0  0  0  0  0  0  0
   22.3588    2.3517   31.8639 H   0  0  0  0  0  0  0  0  0  0  0  0
   22.9328    4.1818   30.8758 C   0  0  0  0  0  0  0  0  0  0  0  0
   21.5304    4.4402   30.3765 C   0  0  0  0  0  0  0  0  0  0  0  0
   20.9207    3.5377   30.4482 H   0  0  0  0  0  0  0  0  0  0  0  0
   21.5533    4.7571   29.3313 H   0  0  0  0  0  0  0  0  0  0  0  0
   20.8988    5.5396   31.2081 C   0  0  0  0  0  0  0  0  0  0  0  0
   19.7459    5.4437   31.6064 O   0  0  0  0  0  0  0  0  0  0  0  0
   21.6115    6.6901   31.3801 N   0  0  0  0  0  0  0  0  0  0  0  0
   22.4223    6.8293   30.7945 H   0  0  0  0  0  0  0  0  0  0  0  0
   21.0058    7.8266   31.7260 C   0  0  0  0  0  0  0  0  0  0  0  0
   21.5469    8.8538   31.1316 N   0  0  0  0  0  0  0  0  0  0  0  0
   21.0105   10.0348   31.3822 C   0  0  0  0  0  0  0  0  0  0  0  0
   21.5841   11.0702   30.6671 N   0  0  0  0  0  0  0  0  0  0  0  0
   20.9229   12.3391   30.3548 C   0  0  0  0  0  0  0  0  0  0  0  0
   20.7434   12.9297   31.2556 H   0  0  0  0  0  0  0  0  0  0  0  0
   19.9829   12.2169   29.8276 H   0  0  0  0  0  0  0  0  0  0  0  0
   21.9319   13.0128   29.4467 C   0  0  0  0  0  0  0  0  0  0  0  0
   21.8428   12.6054   28.4343 H   0  0  0  0  0  0  0  0  0  0  0  0
   21.7938   14.0953   29.4117 H   0  0  0  0  0  0  0  0  0  0  0  0
   23.2778   12.6208   30.0336 C   0  0  1  0  0  0  0  0  0  0  0  0
   24.0548   12.6620   29.2619 H   0  0  0  0  0  0  0  0  0  0  0  0
   23.6505   13.5266   31.1516 N   0  0  0  0  0  0  0  0  0  0  0  0
   22.6039   13.8503   32.1461 C   0  0  0  0  0  0  0  0  0  0  0  0
   21.8107   14.4443   31.6812 H   0  0  0  0  0  0  0  0  0  0  0  0
   23.0169   14.4408   32.9675 H   0  0  0  0  0  0  0  0  0  0  0  0
   22.1665   12.9390   32.5664 H   0  0  0  0  0  0  0  0  0  0  0  0
   24.9701   13.2161   31.7102 C   0  0  0  0  0  0  0  0  0  0  0  0
   25.7344   13.4451   30.9626 H   0  0  0  0  0  0  0  0  0  0  0  0
   25.1558   13.8121   32.6083 H   0  0  0  0  0  0  0  0  0  0  0  0
   25.0477   12.1568   31.9762 H   0  0  0  0  0  0  0  0  0  0  0  0
   23.0467   11.1675   30.5009 C   0  0  0  0  0  0  0  0  0  0  0  0
   23.4171   10.4605   29.7480 H   0  0  0  0  0  0  0  0  0  0  0  0
   23.5672   10.9789   31.4462 H   0  0  0  0  0  0  0  0  0  0  0  0
   19.9630   10.2251   32.2632 C   0  0  0  0  0  0  0  0  0  0  0  0
   19.5001   11.5302   32.5824 C   0  0  0  0  0  0  0  0  0  0  0  0
   19.1786   12.6184   32.8387 N   0  0  0  0  0  0  0  0  0  0  0  0
   19.4495    9.1083   32.8561 C   0  0  0  0  0  0  0  0  0  0  0  0
   18.4288    9.1492   33.7317 N   0  0  0  0  0  0  0  0  0  0  0  0
   17.8436    9.9788   33.6890 H   0  0  0  0  0  0  0  0  0  0  0  0
   17.9903    8.2562   33.9364 H   0  0  0  0  0  0  0  0  0  0  0  0
   19.9517    7.8858   32.5842 C   0  0  0  0  0  0  0  0  0  0  0  0
   19.5521    6.9987   33.0448 H   0  0  0  0  0  0  0  0  0  0  0  0
   23.9799    5.0933   30.6257 C   0  0  0  0  0  0  0  0  0  0  0  0
   23.7293    6.2151   29.8641 O   0  0  0  0  0  0  0  0  0  0  0  0
   24.8435    7.0837   29.6086 C   0  0  0  0  0  0  0  0  0  0  0  0
   25.2436    7.4869   30.5442 H   0  0  0  0  0  0  0  0  0  0  0  0
   25.6416    6.5452   29.0877 H   0  0  0  0  0  0  0  0  0  0  0  0
   24.5232    7.9200   28.9809 H   0  0  0  0  0  0  0  0  0  0  0  0
  1  2  1  0
  2  3  2  0
  3  4  1  0
  3  5  1  0
  5  6  1  0
  6  7  1  0
  7  8  1  0
  7  9  1  0
  7 10  1  0
  5 11  2  0
 11 12  1  0
 11 13  1  0
 13 14  1  0
 14 15  1  0
 14 16  1  0
 14 17  1  0
 17 18  2  0
 17 19  1  0
 19 20  1  0
 19 21  1  0
 21 22  2  0
 22 23  1  0
 23 24  1  0
 24 25  1  0
 25 26  1  0
 25 27  1  0
 25 28  1  0
 28 29  1  0
 28 30  1  0
 28 31  1  0
 31 32  1  6
 31 33  1  0
 33 34  1  0
 34 35  1  0
 34 36  1  0
 34 37  1  0
 33 38  1  0
 38 39  1  0
 38 40  1  0
 38 41  1  0
 31 42  1  0
 42 43  1  0
 42 44  1  0
 23 45  2  0
 45 46  1  0
 46 47  3  0
 45 48  1  0
 48 49  1  0
 49 50  1  0
 49 51  1  0
 48 52  2  0
 52 53  1  0
 13 54  2  0
 54 55  1  0
 55 56  1  0
 56 57  1  0
 56 58  1  0
 56 59  1  0
 54  2  1  0
 52 21  1  0
 42 24  1  0
M  END
>  <score>  (160) 
7.46318

$$$$

     RDKit          3D

 48 49  0  0  0  0  0  0  0  0999 V2000
   26.1923    5.4080   30.8446 H   0  0  0  0  0  0  0  0  0  0  0  0
   25.3455    4.7779   31.1000 C   0  0  0  0  0  0  0  0  0  0  0  0
   25.5232    3.6721   31.9464 C   0  0  0  0  0  0  0  0  0  0  0  0
   27.2715    3.2945   32.6358 Br  0  0  0  0  0  0  0  0  0  0  0  0
   24.4368    2.8437   32.2729 C   0  0  0  0  0  0  0  0  0  0  0  0
   24.6618    1.7832   33.1235 O   0  0  0  0  0  0  0  0  0  0  0  0
   23.6909    0.7308   33.1432 C   0  0  0  0  0  0  0  0  0  0  0  0
   23.4986    0.3580   32.1338 H   0  0  0  0  0  0  0  0  0  0  0  0
   22.7518    1.0696   33.5866 H   0  0  0  0  0  0  0  0  0  0  0  0
   24.0753   -0.0962   33.7451 H   0  0  0  0  0  0  0  0  0  0  0  0
   23.1749    3.1466   31.7321 C   0  0  0  0  0  0  0  0  0  0  0  0
   22.3375    2.5035   31.9801 H   0  0  0  0  0  0  0  0  0  0  0  0
   22.9925    4.2519   30.8828 C   0  0  0  0  0  0  0  0  0  0  0  0
   21.6162    4.5449   30.3308 C   0  0  0  0  0  0  0  0  0  0  0  0
   21.0149    3.6315   30.3160 H   0  0  0  0  0  0  0  0  0  0  0  0
   21.7231    4.8829   29.2983 H   0  0  0  0  0  0  0  0  0  0  0  0
   20.9098    5.6429   31.1276 C   0  0  0  0  0  0  0  0  0  0  0  0
   19.7228    5.5500   31.3922 O   0  0  0  0  0  0  0  0  0  0  0  0
   21.5711    6.8093   31.3731 N   0  0  0  0  0  0  0  0  0  0  0  0
   22.4807    6.9269   30.9471 H   0  0  0  0  0  0  0  0  0  0  0  0
   20.9981    7.9783   31.7265 C   0  0  0  0  0  0  0  0  0  0  0  0
   21.7473    8.9937   31.3429 N   0  0  0  0  0  0  0  0  0  0  0  0
   21.3871   10.2358   31.6879 C   0  0  0  0  0  0  0  0  0  0  0  0
   22.2610   11.3733   31.2096 C   0  0  0  0  0  0  0  0  0  0  0  0
   23.2639   10.9799   31.0237 H   0  0  0  0  0  0  0  0  0  0  0  0
   22.3361   12.1318   31.9949 H   0  0  0  0  0  0  0  0  0  0  0  0
   21.7103   12.0182   29.9284 C   0  0  0  0  0  0  0  0  0  0  0  0
   21.6299   11.2593   29.1442 H   0  0  0  0  0  0  0  0  0  0  0  0
   20.7088   12.4149   30.1206 H   0  0  0  0  0  0  0  0  0  0  0  0
   22.6142   13.1487   29.4363 C   0  0  0  0  0  0  0  0  0  0  0  0
   23.6174   12.7761   29.2155 H   0  0  0  0  0  0  0  0  0  0  0  0
   22.6942   13.9392   30.1864 H   0  0  0  0  0  0  0  0  0  0  0  0
   22.2023   13.5832   28.5226 H   0  0  0  0  0  0  0  0  0  0  0  0
   20.2707   10.4736   32.4764 C   0  0  0  0  0  0  0  0  0  0  0  0
   19.9426   11.8001   32.8880 C   0  0  0  0  0  0  0  0  0  0  0  0
   19.7098   12.9024   33.1889 N   0  0  0  0  0  0  0  0  0  0  0  0
   19.5220    9.3795   32.8448 C   0  0  0  0  0  0  0  0  0  0  0  0
   18.4568    9.4986   33.6591 N   0  0  0  0  0  0  0  0  0  0  0  0
   18.1457   10.4183   33.9509 H   0  0  0  0  0  0  0  0  0  0  0  0
   17.9240    8.6687   33.8946 H   0  0  0  0  0  0  0  0  0  0  0  0
   19.8508    8.1149   32.4549 C   0  0  0  0  0  0  0  0  0  0  0  0
   19.2483    7.2728   32.7596 H   0  0  0  0  0  0  0  0  0  0  0  0
   24.0845    5.0880   30.5676 C   0  0  0  0  0  0  0  0  0  0  0  0
   23.8667    6.1781   29.7501 O   0  0  0  0  0  0  0  0  0  0  0  0
   24.9317    7.1227   29.5839 C   0  0  0  0  0  0  0  0  0  0  0  0
   25.2630    7.5077   30.5509 H   0  0  0  0  0  0  0  0  0  0  0  0
   25.7815    6.6687   29.0693 H   0  0  0  0  0  0  0  0  0  0  0  0
   24.5779    7.9647   28.9835 H   0  0  0  0  0  0  0  0  0  0  0  0
  1  2  1  0
  2  3  2  0
  3  4  1  0
  3  5  1  0
  5  6  1  0
  6  7  1  0
  7  8  1  0
  7  9  1  0
  7 10  1  0
  5 11  2  0
 11 12  1  0
 11 13  1  0
 13 14  1  0
 14 15  1  0
 14 16  1  0
 14 17  1  0
 17 18  2  0
 17 19  1  0
 19 20  1  0
 19 21  1  0
 21 22  2  0
 22 23  1  0
 23 24  1  0
 24 25  1  0
 24 26  1  0
 24 27  1  0
 27 28  1  0
 27 29  1  0
 27 30  1  0
 30 31  1  0
 30 32  1  0
 30 33  1  0
 23 34  2  0
 34 35  1  0
 35 36  3  0
 34 37  1  0
 37 38  1  0
 38 39  1  0
 38 40  1  0
 37 41  2  0
 41 42  1  0
 13 43  2  0
 43 44  1  0
 44 45  1  0
 45 46  1  0
 45 47  1  0
 45 48  1  0
 43  2  1  0
 41 21  1  0
M  END
>  <score>  (161) 
7.46611

$$$$

     RDKit          3D

 50 52  0  0  0  0  0  0  0  0999 V2000
   23.6086   10.0097   27.2606 H   0  0  0  0  0  0  0  0  0  0  0  0
   23.7667   10.5828   28.1709 C   0  0  0  0  0  0  0  0  0  0  0  0
   24.9091   11.3805   28.3142 C   0  0  0  0  0  0  0  0  0  0  0  0
   25.6379   11.4389   27.5136 H   0  0  0  0  0  0  0  0  0  0  0  0
   25.1159   12.1196   29.4834 C   0  0  0  0  0  0  0  0  0  0  0  0
   26.5463   13.0990   29.6806 Cl  0  0  0  0  0  0  0  0  0  0  0  0
   24.1637   12.0714   30.5003 C   0  0  0  0  0  0  0  0  0  0  0  0
   24.3078   12.6352   31.4135 H   0  0  0  0  0  0  0  0  0  0  0  0
   23.0188   11.2949   30.3734 C   0  0  0  0  0  0  0  0  0  0  0  0
   22.1274   11.3504   31.4082 O   0  0  0  0  0  0  0  0  0  0  0  0
   21.3939   10.2344   31.6851 C   0  0  0  0  0  0  0  0  0  0  0  0
   21.8027    9.0355   31.2586 N   0  0  0  0  0  0  0  0  0  0  0  0
   21.1351    7.9770   31.6436 C   0  0  0  0  0  0  0  0  0  0  0  0
   21.6409    6.8455   31.1232 N   0  0  0  0  0  0  0  0  0  0  0  0
   22.4913    6.9647   30.5997 H   0  0  0  0  0  0  0  0  0  0  0  0
   20.9551    5.6728   31.0155 C   0  0  0  0  0  0  0  0  0  0  0  0
   19.8200    5.5994   31.4484 O   0  0  0  0  0  0  0  0  0  0  0  0
   21.5911    4.4825   30.3186 C   0  0  0  0  0  0  0  0  0  0  0  0
   20.9555    3.6058   30.4566 H   0  0  0  0  0  0  0  0  0  0  0  0
   21.6458    4.6829   29.2490 H   0  0  0  0  0  0  0  0  0  0  0  0
   22.9740    4.2352   30.8703 C   0  0  0  0  0  0  0  0  0  0  0  0
   23.1797    3.1372   31.7148 C   0  0  0  0  0  0  0  0  0  0  0  0
   22.3535    2.4801   31.9675 H   0  0  0  0  0  0  0  0  0  0  0  0
   24.4458    2.8600   32.2571 C   0  0  0  0  0  0  0  0  0  0  0  0
   24.6754    1.7790   33.0765 O   0  0  0  0  0  0  0  0  0  0  0  0
   23.6486    0.7781   33.0980 C   0  0  0  0  0  0  0  0  0  0  0  0
   22.7261    1.1822   33.5247 H   0  0  0  0  0  0  0  0  0  0  0  0
   23.4398    0.4197   32.0851 H   0  0  0  0  0  0  0  0  0  0  0  0
   23.9695   -0.0727   33.7054 H   0  0  0  0  0  0  0  0  0  0  0  0
   25.5135    3.7203   31.9548 C   0  0  0  0  0  0  0  0  0  0  0  0
   27.2708    3.4181   32.6606 Br  0  0  0  0  0  0  0  0  0  0  0  0
   25.3059    4.8240   31.1206 C   0  0  0  0  0  0  0  0  0  0  0  0
   26.1354    5.4832   30.8875 H   0  0  0  0  0  0  0  0  0  0  0  0
   24.0428    5.1053   30.5773 C   0  0  0  0  0  0  0  0  0  0  0  0
   23.8154    6.2165   29.7930 O   0  0  0  0  0  0  0  0  0  0  0  0
   24.9335    7.0995   29.6166 C   0  0  0  0  0  0  0  0  0  0  0  0
   25.7582    6.5772   29.1211 H   0  0  0  0  0  0  0  0  0  0  0  0
   25.2875    7.4746   30.5827 H   0  0  0  0  0  0  0  0  0  0  0  0
   24.6418    7.9537   29.0000 H   0  0  0  0  0  0  0  0  0  0  0  0
   20.0603    8.0260   32.4773 C   0  0  0  0  0  0  0  0  0  0  0  0
   19.5529    7.1406   32.8133 H   0  0  0  0  0  0  0  0  0  0  0  0
   19.6417    9.2527   32.8684 C   0  0  0  0  0  0  0  0  0  0  0  0
   18.5564    9.3243   33.6627 N   0  0  0  0  0  0  0  0  0  0  0  0
   18.1465    8.4460   33.9564 H   0  0  0  0  0  0  0  0  0  0  0  0
   17.9386   10.1152   33.5135 H   0  0  0  0  0  0  0  0  0  0  0  0
   20.2874   10.3828   32.4826 C   0  0  0  0  0  0  0  0  0  0  0  0
   19.8790   11.6690   32.9403 C   0  0  0  0  0  0  0  0  0  0  0  0
   19.5805   12.7190   33.3374 N   0  0  0  0  0  0  0  0  0  0  0  0
   22.8215   10.5389   29.2063 C   0  0  0  0  0  0  0  0  0  0  0  0
   21.9267    9.9325   29.1120 H   0  0  0  0  0  0  0  0  0  0  0  0
  1  2  1  0
  2  3  2  0
  3  4  1  0
  3  5  1  0
  5  6  1  0
  5  7  2  0
  7  8  1  0
  7  9  1  0
  9 10  1  0
 10 11  1  0
 11 12  2  0
 12 13  1  0
 13 14  1  0
 14 15  1  0
 14 16  1  0
 16 17  2  0
 16 18  1  0
 18 19  1  0
 18 20  1  0
 18 21  1  0
 21 22  2  0
 22 23  1  0
 22 24  1  0
 24 25  1  0
 25 26  1  0
 26 27  1  0
 26 28  1  0
 26 29  1  0
 24 30  2  0
 30 31  1  0
 30 32  1  0
 32 33  1  0
 32 34  2  0
 34 35  1  0
 35 36  1  0
 36 37  1  0
 36 38  1  0
 36 39  1  0
 13 40  2  0
 40 41  1  0
 40 42  1  0
 42 43  1  0
 43 44  1  0
 43 45  1  0
 42 46  2  0
 46 47  1  0
 47 48  3  0
  9 49  2  0
 49 50  1  0
 49  2  1  0
 46 11  1  0
 34 21  1  0
M  END
>  <score>  (162) 
7.46664

$$$$

     RDKit          3D

 50 52  0  0  0  0  0  0  0  0999 V2000
   23.3766    9.7245   32.4168 H   0  0  0  0  0  0  0  0  0  0  0  0
   24.1147   10.2511   32.0692 O   0  0  0  0  0  0  0  0  0  0  0  0
   23.6010   11.2852   31.3470 C   0  0  0  0  0  0  0  0  0  0  0  0
   24.4157   12.3225   30.9124 C   0  0  0  0  0  0  0  0  0  0  0  0
   25.4713   12.2973   31.1386 H   0  0  0  0  0  0  0  0  0  0  0  0
   23.8742   13.4059   30.2136 C   0  0  0  0  0  0  0  0  0  0  0  0
   24.4964   14.2417   29.9082 H   0  0  0  0  0  0  0  0  0  0  0  0
   22.5056   13.4302   29.9354 C   0  0  0  0  0  0  0  0  0  0  0  0
   22.0695   14.2411   29.3606 H   0  0  0  0  0  0  0  0  0  0  0  0
   21.6827   12.3929   30.3771 C   0  0  0  0  0  0  0  0  0  0  0  0
   20.6209   12.4143   30.1430 H   0  0  0  0  0  0  0  0  0  0  0  0
   22.2362   11.3219   31.0962 C   0  0  0  0  0  0  0  0  0  0  0  0
   21.4256   10.2360   31.5945 C   0  0  0  0  0  0  0  0  0  0  0  0
   21.8050    9.0154   31.2289 N   0  0  0  0  0  0  0  0  0  0  0  0
   21.0482    8.0071   31.5782 C   0  0  0  0  0  0  0  0  0  0  0  0
   21.5516    6.8677   31.0798 N   0  0  0  0  0  0  0  0  0  0  0  0
   22.4159    6.9699   30.5704 H   0  0  0  0  0  0  0  0  0  0  0  0
   20.9393    5.6562   31.1267 C   0  0  0  0  0  0  0  0  0  0  0  0
   19.8783    5.5155   31.7148 O   0  0  0  0  0  0  0  0  0  0  0  0
   21.5618    4.5125   30.3458 C   0  0  0  0  0  0  0  0  0  0  0  0
   20.9260    3.6263   30.4182 H   0  0  0  0  0  0  0  0  0  0  0  0
   21.6213    4.7972   29.2944 H   0  0  0  0  0  0  0  0  0  0  0  0
   22.9526    4.2421   30.8671 C   0  0  0  0  0  0  0  0  0  0  0  0
   23.1553    3.1450   31.7155 C   0  0  0  0  0  0  0  0  0  0  0  0
   22.3272    2.4905   31.9680 H   0  0  0  0  0  0  0  0  0  0  0  0
   24.4216    2.8679   32.2594 C   0  0  0  0  0  0  0  0  0  0  0  0
   24.6616    1.7933   33.0834 O   0  0  0  0  0  0  0  0  0  0  0  0
   23.6535    0.7769   33.1010 C   0  0  0  0  0  0  0  0  0  0  0  0
   22.7257    1.1614   33.5321 H   0  0  0  0  0  0  0  0  0  0  0  0
   23.9950   -0.0650   33.7064 H   0  0  0  0  0  0  0  0  0  0  0  0
   23.4514    0.4148   32.0886 H   0  0  0  0  0  0  0  0  0  0  0  0
   25.4886    3.7259   31.9480 C   0  0  0  0  0  0  0  0  0  0  0  0
   27.2509    3.4227   32.6344 Br  0  0  0  0  0  0  0  0  0  0  0  0
   25.2881    4.8217   31.1030 C   0  0  0  0  0  0  0  0  0  0  0  0
   26.1192    5.4732   30.8505 H   0  0  0  0  0  0  0  0  0  0  0  0
   24.0271    5.1028   30.5589 C   0  0  0  0  0  0  0  0  0  0  0  0
   23.8087    6.2057   29.7612 O   0  0  0  0  0  0  0  0  0  0  0  0
   24.9247    7.0942   29.6081 C   0  0  0  0  0  0  0  0  0  0  0  0
   25.7575    6.5828   29.1162 H   0  0  0  0  0  0  0  0  0  0  0  0
   25.2627    7.4492   30.5860 H   0  0  0  0  0  0  0  0  0  0  0  0
   24.6392    7.9582   29.0032 H   0  0  0  0  0  0  0  0  0  0  0  0
   19.9201    8.1151   32.3481 C   0  0  0  0  0  0  0  0  0  0  0  0
   19.3225    7.2626   32.6258 H   0  0  0  0  0  0  0  0  0  0  0  0
   19.6084    9.3594   32.8076 C   0  0  0  0  0  0  0  0  0  0  0  0
   18.5826    9.4768   33.6838 N   0  0  0  0  0  0  0  0  0  0  0  0
   18.1984   10.4022   33.8530 H   0  0  0  0  0  0  0  0  0  0  0  0
   17.9896    8.6675   33.8276 H   0  0  0  0  0  0  0  0  0  0  0  0
   20.3300   10.4567   32.4145 C   0  0  0  0  0  0  0  0  0  0  0  0
   19.9790   11.7681   32.8538 C   0  0  0  0  0  0  0  0  0  0  0  0
   19.7123   12.8391   33.2201 N   0  0  0  0  0  0  0  0  0  0  0  0
  1  2  1  0
  2  3  1  0
  3  4  2  0
  4  5  1  0
  4  6  1  0
  6  7  1  0
  6  8  2  0
  8  9  1  0
  8 10  1  0
 10 11  1  0
 10 12  2  0
 12 13  1  0
 13 14  2  0
 14 15  1  0
 15 16  1  0
 16 17  1  0
 16 18  1  0
 18 19  2  0
 18 20  1  0
 20 21  1  0
 20 22  1  0
 20 23  1  0
 23 24  2  0
 24 25  1  0
 24 26  1  0
 26 27  1  0
 27 28  1  0
 28 29  1  0
 28 30  1  0
 28 31  1  0
 26 32  2  0
 32 33  1  0
 32 34  1  0
 34 35  1  0
 34 36  2  0
 36 37  1  0
 37 38  1  0
 38 39  1  0
 38 40  1  0
 38 41  1  0
 15 42  2  0
 42 43  1  0
 42 44  1  0
 44 45  1  0
 45 46  1  0
 45 47  1  0
 44 48  2  0
 48 49  1  0
 49 50  3  0
 12  3  1  0
 48 13  1  0
 36 23  1  0
M  END
>  <score>  (163) 
7.46913

$$$$

     RDKit          3D

 59 61  0  0  0  0  0  0  0  0999 V2000
   26.1357    5.4525   31.0424 H   0  0  0  0  0  0  0  0  0  0  0  0
   25.2864    4.8076   31.2404 C   0  0  0  0  0  0  0  0  0  0  0  0
   25.4779    3.6783   32.0273 C   0  0  0  0  0  0  0  0  0  0  0  0
   27.2271    3.3577   32.7423 Br  0  0  0  0  0  0  0  0  0  0  0  0
   24.3998    2.8207   32.2780 C   0  0  0  0  0  0  0  0  0  0  0  0
   24.6139    1.7093   33.0573 O   0  0  0  0  0  0  0  0  0  0  0  0
   23.5522    0.7488   33.0858 C   0  0  0  0  0  0  0  0  0  0  0  0
   22.6446    1.1896   33.5102 H   0  0  0  0  0  0  0  0  0  0  0  0
   23.3342    0.3942   32.0732 H   0  0  0  0  0  0  0  0  0  0  0  0
   23.8469   -0.1065   33.7005 H   0  0  0  0  0  0  0  0  0  0  0  0
   23.1398    3.1357   31.7340 C   0  0  0  0  0  0  0  0  0  0  0  0
   22.3077    2.4675   31.9272 H   0  0  0  0  0  0  0  0  0  0  0  0
   22.9353    4.2870   30.9593 C   0  0  0  0  0  0  0  0  0  0  0  0
   21.5346    4.5696   30.4448 C   0  0  0  0  0  0  0  0  0  0  0  0
   21.5673    4.8209   29.3827 H   0  0  0  0  0  0  0  0  0  0  0  0
   20.9047    3.6829   30.5617 H   0  0  0  0  0  0  0  0  0  0  0  0
   20.8778    5.7179   31.1909 C   0  0  0  0  0  0  0  0  0  0  0  0
   19.7497    5.5891   31.6409 O   0  0  0  0  0  0  0  0  0  0  0  0
   21.5180    6.9210   31.2567 N   0  0  0  0  0  0  0  0  0  0  0  0
   22.3649    7.0615   30.7287 H   0  0  0  0  0  0  0  0  0  0  0  0
   20.9651    8.0393   31.7386 C   0  0  0  0  0  0  0  0  0  0  0  0
   21.6693    9.0969   31.4182 N   0  0  0  0  0  0  0  0  0  0  0  0
   21.2269   10.2899   31.8062 C   0  0  0  0  0  0  0  0  0  0  0  0
   21.9702   11.4057   31.4814 O   0  0  0  0  0  0  0  0  0  0  0  0
   23.3131   11.2246   30.9526 C   0  0  0  0  0  0  0  0  0  0  0  0
   23.8540   10.5100   31.5781 H   0  0  0  0  0  0  0  0  0  0  0  0
   23.8524   12.1766   31.0115 H   0  0  0  0  0  0  0  0  0  0  0  0
   23.3242   10.7477   29.4912 C   0  0  0  0  0  0  0  0  0  0  0  0
   22.6865    9.8607   29.4171 H   0  0  0  0  0  0  0  0  0  0  0  0
   22.9001   11.5384   28.8602 H   0  0  0  0  0  0  0  0  0  0  0  0
   24.6851   10.3982   29.0040 N   0  0  0  0  0  0  0  0  0  0  0  0
   24.6691    9.3928   27.9125 C   0  0  0  0  0  0  0  0  0  0  0  0
   25.6728    9.0018   27.7138 H   0  0  0  0  0  0  0  0  0  0  0  0
   24.0101    8.5585   28.1640 H   0  0  0  0  0  0  0  0  0  0  0  0
   24.1143   10.0586   26.6733 C   0  0  0  0  0  0  0  0  0  0  0  0
   23.1373   10.4413   26.9479 H   0  0  0  0  0  0  0  0  0  0  0  0
   23.9314    9.3458   25.8702 H   0  0  0  0  0  0  0  0  0  0  0  0
   25.0137   11.1055   26.2553 O   0  0  0  0  0  0  0  0  0  0  0  0
   25.2288   12.1179   27.2648 C   0  0  0  0  0  0  0  0  0  0  0  0
   26.0506   12.7667   26.9418 H   0  0  0  0  0  0  0  0  0  0  0  0
   24.3301   12.7347   27.3420 H   0  0  0  0  0  0  0  0  0  0  0  0
   25.5666   11.5406   28.6627 C   0  0  0  0  0  0  0  0  0  0  0  0
   25.4955   12.3371   29.4109 H   0  0  0  0  0  0  0  0  0  0  0  0
   26.6031   11.1958   28.6797 H   0  0  0  0  0  0  0  0  0  0  0  0
   20.0570   10.4207   32.5377 C   0  0  0  0  0  0  0  0  0  0  0  0
   19.6084   11.6915   32.9933 C   0  0  0  0  0  0  0  0  0  0  0  0
   19.2657   12.7255   33.3930 N   0  0  0  0  0  0  0  0  0  0  0  0
   19.3729    9.2811   32.8571 C   0  0  0  0  0  0  0  0  0  0  0  0
   18.2504    9.2799   33.5976 N   0  0  0  0  0  0  0  0  0  0  0  0
   18.0163   10.1332   34.0945 H   0  0  0  0  0  0  0  0  0  0  0  0
   17.9937    8.3813   34.0062 H   0  0  0  0  0  0  0  0  0  0  0  0
   19.8144    8.0743   32.4610 C   0  0  0  0  0  0  0  0  0  0  0  0
   19.2631    7.1903   32.7310 H   0  0  0  0  0  0  0  0  0  0  0  0
   24.0302    5.1429   30.7054 C   0  0  0  0  0  0  0  0  0  0  0  0
   23.8772    6.2979   29.9684 O   0  0  0  0  0  0  0  0  0  0  0  0
   25.0794    7.0819   29.8654 C   0  0  0  0  0  0  0  0  0  0  0  0
   24.8702    8.0825   29.5054 H   0  0  0  0  0  0  0  0  0  0  0  0
   25.7911    6.5931   29.1893 H   0  0  0  0  0  0  0  0  0  0  0  0
   25.5464    7.1923   30.8482 H   0  0  0  0  0  0  0  0  0  0  0  0
  1  2  1  0
  2  3  2  0
  3  4  1  0
  3  5  1  0
  5  6  1  0
  6  7  1  0
  7  8  1  0
  7  9  1  0
  7 10  1  0
  5 11  2  0
 11 12  1  0
 11 13  1  0
 13 14  1  0
 14 15  1  0
 14 16  1  0
 14 17  1  0
 17 18  2  0
 17 19  1  0
 19 20  1  0
 19 21  1  0
 21 22  2  0
 22 23  1  0
 23 24  1  0
 24 25  1  0
 25 26  1  0
 25 27  1  0
 25 28  1  0
 28 29  1  0
 28 30  1  0
 28 31  1  0
 31 32  1  0
 32 33  1  0
 32 34  1  0
 32 35  1  0
 35 36  1  0
 35 37  1  0
 35 38  1  0
 38 39  1  0
 39 40  1  0
 39 41  1  0
 39 42  1  0
 42 43  1  0
 42 44  1  0
 23 45  2  0
 45 46  1  0
 46 47  3  0
 45 48  1  0
 48 49  1  0
 49 50  1  0
 49 51  1  0
 48 52  2  0
 52 53  1  0
 13 54  2  0
 54 55  1  0
 55 56  1  0
 56 57  1  0
 56 58  1  0
 56 59  1  0
 54  2  1  0
 52 21  1  0
 42 31  1  0
M  END
>  <score>  (164) 
7.46957

$$$$

     RDKit          3D

 47 48  0  0  0  0  0  0  0  0999 V2000
   26.1580    5.4320   30.8407 H   0  0  0  0  0  0  0  0  0  0  0  0
   25.3133    4.8039   31.0983 C   0  0  0  0  0  0  0  0  0  0  0  0
   25.5075    3.7044   31.9385 C   0  0  0  0  0  0  0  0  0  0  0  0
   27.2592    3.3536   32.6303 Br  0  0  0  0  0  0  0  0  0  0  0  0
   24.4276    2.8675   32.2627 C   0  0  0  0  0  0  0  0  0  0  0  0
   24.6604    1.7962   33.0964 O   0  0  0  0  0  0  0  0  0  0  0  0
   23.6740    0.7524   33.1234 C   0  0  0  0  0  0  0  0  0  0  0  0
   22.7367    1.1119   33.5617 H   0  0  0  0  0  0  0  0  0  0  0  0
   23.4764    0.3836   32.1109 H   0  0  0  0  0  0  0  0  0  0  0  0
   24.0403   -0.0859   33.7288 H   0  0  0  0  0  0  0  0  0  0  0  0
   23.1573    3.1594   31.7294 C   0  0  0  0  0  0  0  0  0  0  0  0
   22.3271    2.5039   31.9753 H   0  0  0  0  0  0  0  0  0  0  0  0
   22.9605    4.2730   30.8918 C   0  0  0  0  0  0  0  0  0  0  0  0
   21.5907    4.5866   30.3298 C   0  0  0  0  0  0  0  0  0  0  0  0
   21.6889    4.8552   29.2715 H   0  0  0  0  0  0  0  0  0  0  0  0
   20.9368    3.7157   30.3975 H   0  0  0  0  0  0  0  0  0  0  0  0
   20.9486    5.7449   31.0783 C   0  0  0  0  0  0  0  0  0  0  0  0
   19.8969    5.5857   31.6770 O   0  0  0  0  0  0  0  0  0  0  0  0
   21.5111    6.9871   30.9935 N   0  0  0  0  0  0  0  0  0  0  0  0
   22.3754    7.0979   30.4834 H   0  0  0  0  0  0  0  0  0  0  0  0
   21.0037    8.1083   31.5435 C   0  0  0  0  0  0  0  0  0  0  0  0
   21.7333    9.1474   31.2256 N   0  0  0  0  0  0  0  0  0  0  0  0
   21.3227   10.2972   31.6951 C   0  0  0  0  0  0  0  0  0  0  0  0
   22.1947   11.2656   31.3452 N   0  0  0  0  0  0  0  0  0  0  0  0
   23.0423   10.7851   31.0772 H   0  0  0  0  0  0  0  0  0  0  0  0
   21.7305   12.2400   30.3520 C   0  0  0  0  0  0  0  0  0  0  0  0
   22.0226   11.8807   29.3567 H   0  0  0  0  0  0  0  0  0  0  0  0
   20.6399   12.3558   30.3705 H   0  0  0  0  0  0  0  0  0  0  0  0
   22.3759   13.5904   30.6226 C   0  0  0  0  0  0  0  0  0  0  0  0
   22.0340   14.3130   29.8738 H   0  0  0  0  0  0  0  0  0  0  0  0
   23.4656   13.5048   30.5635 H   0  0  0  0  0  0  0  0  0  0  0  0
   22.0990   13.9613   31.6161 H   0  0  0  0  0  0  0  0  0  0  0  0
   20.2217   10.5066   32.4666 C   0  0  0  0  0  0  0  0  0  0  0  0
   19.9036   11.8227   32.9006 C   0  0  0  0  0  0  0  0  0  0  0  0
   19.6900   12.9211   33.2161 N   0  0  0  0  0  0  0  0  0  0  0  0
   19.5315    9.3904   32.8242 C   0  0  0  0  0  0  0  0  0  0  0  0
   18.5116    9.4795   33.6945 N   0  0  0  0  0  0  0  0  0  0  0  0
   17.9527    8.6463   33.8687 H   0  0  0  0  0  0  0  0  0  0  0  0
   18.1628   10.4094   33.9075 H   0  0  0  0  0  0  0  0  0  0  0  0
   19.8970    8.1665   32.3576 C   0  0  0  0  0  0  0  0  0  0  0  0
   19.3500    7.2832   32.6435 H   0  0  0  0  0  0  0  0  0  0  0  0
   24.0488    5.1076   30.5732 C   0  0  0  0  0  0  0  0  0  0  0  0
   23.8380    6.1923   29.7482 O   0  0  0  0  0  0  0  0  0  0  0  0
   24.9333    7.1073   29.5928 C   0  0  0  0  0  0  0  0  0  0  0  0
   24.6138    7.9636   28.9900 H   0  0  0  0  0  0  0  0  0  0  0  0
   25.2661    7.4751   30.5701 H   0  0  0  0  0  0  0  0  0  0  0  0
   25.7795    6.6254   29.0893 H   0  0  0  0  0  0  0  0  0  0  0  0
  1  2  1  0
  2  3  2  0
  3  4  1  0
  3  5  1  0
  5  6  1  0
  6  7  1  0
  7  8  1  0
  7  9  1  0
  7 10  1  0
  5 11  2  0
 11 12  1  0
 11 13  1  0
 13 14  1  0
 14 15  1  0
 14 16  1  0
 14 17  1  0
 17 18  2  0
 17 19  1  0
 19 20  1  0
 19 21  1  0
 21 22  2  0
 22 23  1  0
 23 24  1  0
 24 25  1  0
 24 26  1  0
 26 27  1  0
 26 28  1  0
 26 29  1  0
 29 30  1  0
 29 31  1  0
 29 32  1  0
 23 33  2  0
 33 34  1  0
 34 35  3  0
 33 36  1  0
 36 37  1  0
 37 38  1  0
 37 39  1  0
 36 40  2  0
 40 41  1  0
 13 42  2  0
 42 43  1  0
 43 44  1  0
 44 45  1  0
 44 46  1  0
 44 47  1  0
 42  2  1  0
 40 21  1  0
M  END
>  <score>  (165) 
7.47001

$$$$

     RDKit          3D

 53 55  0  0  0  0  0  0  0  0999 V2000
   23.8245   16.0207   26.9655 H   0  0  0  0  0  0  0  0  0  0  0  0
   23.3882   15.2046   27.5354 C   0  0  0  0  0  0  0  0  0  0  0  0
   22.3550   15.4514   28.4478 C   0  0  0  0  0  0  0  0  0  0  0  0
   21.9849   16.4635   28.5862 H   0  0  0  0  0  0  0  0  0  0  0  0
   21.7638   14.3862   29.1412 C   0  0  0  0  0  0  0  0  0  0  0  0
   20.9258   14.5666   29.8064 H   0  0  0  0  0  0  0  0  0  0  0  0
   22.2264   13.0771   28.9576 C   0  0  0  0  0  0  0  0  0  0  0  0
   21.5578   11.9167   29.6316 C   0  0  0  0  0  0  0  0  0  0  0  0
   20.5077   12.1592   29.8139 H   0  0  0  0  0  0  0  0  0  0  0  0
   21.5892   11.0444   28.9703 H   0  0  0  0  0  0  0  0  0  0  0  0
   22.4142   11.5397   31.2115 S   0  0  0  0  0  0  0  0  0  0  0  0
   21.3856   10.2114   31.7320 C   0  0  0  0  0  0  0  0  0  0  0  0
   21.7501    8.9804   31.3661 N   0  0  0  0  0  0  0  0  0  0  0  0
   20.9974    7.9665   31.7392 C   0  0  0  0  0  0  0  0  0  0  0  0
   21.5762    6.8071   31.3684 N   0  0  0  0  0  0  0  0  0  0  0  0
   22.4767    6.9331   30.9300 H   0  0  0  0  0  0  0  0  0  0  0  0
   20.9086    5.6408   31.1271 C   0  0  0  0  0  0  0  0  0  0  0  0
   19.7205    5.5596   31.3864 O   0  0  0  0  0  0  0  0  0  0  0  0
   21.6144    4.5430   30.3323 C   0  0  0  0  0  0  0  0  0  0  0  0
   21.7172    4.8829   29.2998 H   0  0  0  0  0  0  0  0  0  0  0  0
   21.0063    3.6336   30.3216 H   0  0  0  0  0  0  0  0  0  0  0  0
   22.9927    4.2490   30.8838 C   0  0  0  0  0  0  0  0  0  0  0  0
   23.1784    3.1437   31.7315 C   0  0  0  0  0  0  0  0  0  0  0  0
   22.3433    2.4981   31.9810 H   0  0  0  0  0  0  0  0  0  0  0  0
   24.4395    2.8434   32.2730 C   0  0  0  0  0  0  0  0  0  0  0  0
   24.6623    1.7823   33.1231 O   0  0  0  0  0  0  0  0  0  0  0  0
   23.6892    0.7315   33.1420 C   0  0  0  0  0  0  0  0  0  0  0  0
   24.0715   -0.0969   33.7446 H   0  0  0  0  0  0  0  0  0  0  0  0
   22.7507    1.0742   33.5862 H   0  0  0  0  0  0  0  0  0  0  0  0
   23.4987    0.3606   32.1303 H   0  0  0  0  0  0  0  0  0  0  0  0
   25.5239    3.6748   31.9458 C   0  0  0  0  0  0  0  0  0  0  0  0
   27.2716    3.3022   32.6352 Br  0  0  0  0  0  0  0  0  0  0  0  0
   25.3444    4.7797   31.1001 C   0  0  0  0  0  0  0  0  0  0  0  0
   26.1886    5.4126   30.8451 H   0  0  0  0  0  0  0  0  0  0  0  0
   24.0836    5.0872   30.5685 C   0  0  0  0  0  0  0  0  0  0  0  0
   23.8643    6.1783   29.7541 O   0  0  0  0  0  0  0  0  0  0  0  0
   24.9326    7.1201   29.5865 C   0  0  0  0  0  0  0  0  0  0  0  0
   25.2633    7.5044   30.5553 H   0  0  0  0  0  0  0  0  0  0  0  0
   24.5810    7.9635   28.9852 H   0  0  0  0  0  0  0  0  0  0  0  0
   25.7806    6.6614   29.0703 H   0  0  0  0  0  0  0  0  0  0  0  0
   19.8407    8.0971   32.4615 C   0  0  0  0  0  0  0  0  0  0  0  0
   19.2339    7.2513   32.7574 H   0  0  0  0  0  0  0  0  0  0  0  0
   19.5068    9.3633   32.8532 C   0  0  0  0  0  0  0  0  0  0  0  0
   18.4314    9.4892   33.6568 N   0  0  0  0  0  0  0  0  0  0  0  0
   18.1391   10.4123   33.9588 H   0  0  0  0  0  0  0  0  0  0  0  0
   17.8990    8.6631   33.9135 H   0  0  0  0  0  0  0  0  0  0  0  0
   20.2608   10.4586   32.4987 C   0  0  0  0  0  0  0  0  0  0  0  0
   19.9326   11.7909   32.9057 C   0  0  0  0  0  0  0  0  0  0  0  0
   19.7007   12.8958   33.1910 N   0  0  0  0  0  0  0  0  0  0  0  0
   23.3033   12.8498   28.0987 C   0  0  0  0  0  0  0  0  0  0  0  0
   23.6605   11.8338   27.9522 H   0  0  0  0  0  0  0  0  0  0  0  0
   23.8531   13.8985   27.3517 C   0  0  0  0  0  0  0  0  0  0  0  0
   24.6316   13.6915   26.6230 H   0  0  0  0  0  0  0  0  0  0  0  0
  1  2  1  0
  2  3  2  0
  3  4  1  0
  3  5  1  0
  5  6  1  0
  5  7  2  0
  7  8  1  0
  8  9  1  0
  8 10  1  0
  8 11  1  0
 11 12  1  0
 12 13  2  0
 13 14  1  0
 14 15  1  0
 15 16  1  0
 15 17  1  0
 17 18  2  0
 17 19  1  0
 19 20  1  0
 19 21  1  0
 19 22  1  0
 22 23  2  0
 23 24  1  0
 23 25  1  0
 25 26  1  0
 26 27  1  0
 27 28  1  0
 27 29  1  0
 27 30  1  0
 25 31  2  0
 31 32  1  0
 31 33  1  0
 33 34  1  0
 33 35  2  0
 35 36  1  0
 36 37  1  0
 37 38  1  0
 37 39  1  0
 37 40  1  0
 14 41  2  0
 41 42  1  0
 41 43  1  0
 43 44  1  0
 44 45  1  0
 44 46  1  0
 43 47  2  0
 47 48  1  0
 48 49  3  0
  7 50  1  0
 50 51  1  0
 50 52  2  0
 52 53  1  0
 52  2  1  0
 47 12  1  0
 35 22  1  0
M  END
>  <score>  (166) 
7.47245

$$$$

     RDKit          3D

 50 52  0  0  0  0  0  0  0  0999 V2000
   23.2790    9.4670   26.9091 H   0  0  0  0  0  0  0  0  0  0  0  0
   23.6083   10.1784   27.6604 C   0  0  0  0  0  0  0  0  0  0  0  0
   24.7717   10.8201   27.4652 N   0  0  0  0  0  0  0  0  0  0  0  0
   25.1592   11.7061   28.3954 C   0  0  0  0  0  0  0  0  0  0  0  0
   26.1042   12.2230   28.2580 H   0  0  0  0  0  0  0  0  0  0  0  0
   24.3944   11.9853   29.5362 C   0  0  0  0  0  0  0  0  0  0  0  0
   24.7692   12.7229   30.2336 H   0  0  0  0  0  0  0  0  0  0  0  0
   23.1826   11.3207   29.7771 C   0  0  0  0  0  0  0  0  0  0  0  0
   22.3587   11.5721   31.0059 C   0  0  0  0  0  0  0  0  0  0  0  0
   22.4116   12.6830   31.5469 O   0  0  0  0  0  0  0  0  0  0  0  0
   21.5498   10.4572   31.6254 C   0  0  0  0  0  0  0  0  0  0  0  0
   21.8561    9.1936   31.2710 N   0  0  0  0  0  0  0  0  0  0  0  0
   21.2124    8.1704   31.7933 C   0  0  0  0  0  0  0  0  0  0  0  0
   21.6586    7.0048   31.2992 N   0  0  0  0  0  0  0  0  0  0  0  0
   22.4564    7.0703   30.6832 H   0  0  0  0  0  0  0  0  0  0  0  0
   20.9247    5.8545   31.3012 C   0  0  0  0  0  0  0  0  0  0  0  0
   19.8242    5.8189   31.8253 O   0  0  0  0  0  0  0  0  0  0  0  0
   21.4628    4.6599   30.5382 C   0  0  0  0  0  0  0  0  0  0  0  0
   21.4349    4.8893   29.4720 H   0  0  0  0  0  0  0  0  0  0  0  0
   20.8136    3.7996   30.7176 H   0  0  0  0  0  0  0  0  0  0  0  0
   22.8768    4.3549   30.9762 C   0  0  0  0  0  0  0  0  0  0  0  0
   23.0938    3.2181   31.7637 C   0  0  0  0  0  0  0  0  0  0  0  0
   22.2634    2.5654   32.0150 H   0  0  0  0  0  0  0  0  0  0  0  0
   24.3680    2.9053   32.2581 C   0  0  0  0  0  0  0  0  0  0  0  0
   24.5942    1.8052   33.0522 O   0  0  0  0  0  0  0  0  0  0  0  0
   23.5630    0.8076   33.0687 C   0  0  0  0  0  0  0  0  0  0  0  0
   23.3598    0.4563   32.0523 H   0  0  0  0  0  0  0  0  0  0  0  0
   23.8826   -0.0462   33.6741 H   0  0  0  0  0  0  0  0  0  0  0  0
   22.6385    1.2088   33.4952 H   0  0  0  0  0  0  0  0  0  0  0  0
   25.4378    3.7617   31.9519 C   0  0  0  0  0  0  0  0  0  0  0  0
   27.2036    3.4068   32.6029 Br  0  0  0  0  0  0  0  0  0  0  0  0
   25.2259    4.8919   31.1550 C   0  0  0  0  0  0  0  0  0  0  0  0
   26.0554    5.5506   30.9253 H   0  0  0  0  0  0  0  0  0  0  0  0
   23.9543    5.2104   30.6567 C   0  0  0  0  0  0  0  0  0  0  0  0
   23.7343    6.3404   29.8952 O   0  0  0  0  0  0  0  0  0  0  0  0
   24.8894    7.1488   29.6123 C   0  0  0  0  0  0  0  0  0  0  0  0
   25.6539    6.5613   29.0915 H   0  0  0  0  0  0  0  0  0  0  0  0
   25.3201    7.5381   30.5409 H   0  0  0  0  0  0  0  0  0  0  0  0
   24.6125    7.9961   28.9776 H   0  0  0  0  0  0  0  0  0  0  0  0
   20.2231    8.2913   32.7141 C   0  0  0  0  0  0  0  0  0  0  0  0
   19.7153    7.4260   33.1063 H   0  0  0  0  0  0  0  0  0  0  0  0
   19.8959    9.5430   33.1075 C   0  0  0  0  0  0  0  0  0  0  0  0
   18.8900    9.5729   34.0104 N   0  0  0  0  0  0  0  0  0  0  0  0
   18.8667   10.3483   34.6587 H   0  0  0  0  0  0  0  0  0  0  0  0
   18.5766    8.6572   34.3290 H   0  0  0  0  0  0  0  0  0  0  0  0
   20.5368   10.6587   32.5894 C   0  0  0  0  0  0  0  0  0  0  0  0
   20.1403   11.9635   33.0039 C   0  0  0  0  0  0  0  0  0  0  0  0
   19.8072   13.0463   33.2756 N   0  0  0  0  0  0  0  0  0  0  0  0
   22.8035   10.3917   28.7920 C   0  0  0  0  0  0  0  0  0  0  0  0
   21.8739    9.8404   28.8712 H   0  0  0  0  0  0  0  0  0  0  0  0
  1  2  1  0
  2  3  2  0
  3  4  1  0
  4  5  1  0
  4  6  2  0
  6  7  1  0
  6  8  1  0
  8  9  1  0
  9 10  2  0
  9 11  1  0
 11 12  2  0
 12 13  1  0
 13 14  1  0
 14 15  1  0
 14 16  1  0
 16 17  2  0
 16 18  1  0
 18 19  1  0
 18 20  1  0
 18 21  1  0
 21 22  2  0
 22 23  1  0
 22 24  1  0
 24 25  1  0
 25 26  1  0
 26 27  1  0
 26 28  1  0
 26 29  1  0
 24 30  2  0
 30 31  1  0
 30 32  1  0
 32 33  1  0
 32 34  2  0
 34 35  1  0
 35 36  1  0
 36 37  1  0
 36 38  1  0
 36 39  1  0
 13 40  2  0
 40 41  1  0
 40 42  1  0
 42 43  1  0
 43 44  1  0
 43 45  1  0
 42 46  2  0
 46 47  1  0
 47 48  3  0
  8 49  2  0
 49 50  1  0
 49  2  1  0
 46 11  1  0
 34 21  1  0
M  END
>  <score>  (167) 
7.47345

$$$$

     RDKit          3D

 46 48  0  0  0  0  0  0  0  0999 V2000
   24.0524   14.0848   31.2771 H   0  0  0  0  0  0  0  0  0  0  0  0
   23.5271   13.1592   31.0607 C   0  0  0  0  0  0  0  0  0  0  0  0
   23.7895   12.3596   29.9741 O   0  0  0  0  0  0  0  0  0  0  0  0
   22.9834   11.2539   30.0717 C   0  0  0  0  0  0  0  0  0  0  0  0
   22.9696   10.4298   29.3598 H   0  0  0  0  0  0  0  0  0  0  0  0
   22.2159   11.3357   31.1988 C   0  0  0  0  0  0  0  0  0  0  0  0
   21.3487   10.2578   31.6384 C   0  0  0  0  0  0  0  0  0  0  0  0
   21.7369    9.0429   31.2593 N   0  0  0  0  0  0  0  0  0  0  0  0
   21.0421    8.0128   31.6790 C   0  0  0  0  0  0  0  0  0  0  0  0
   21.6112    6.8615   31.2823 N   0  0  0  0  0  0  0  0  0  0  0  0
   22.4608    6.9742   30.7482 H   0  0  0  0  0  0  0  0  0  0  0  0
   20.9157    5.6972   31.1361 C   0  0  0  0  0  0  0  0  0  0  0  0
   19.7270    5.6495   31.4175 O   0  0  0  0  0  0  0  0  0  0  0  0
   21.5797    4.5623   30.3726 C   0  0  0  0  0  0  0  0  0  0  0  0
   21.6501    4.8761   29.3265 H   0  0  0  0  0  0  0  0  0  0  0  0
   20.9483    3.6746   30.4354 H   0  0  0  0  0  0  0  0  0  0  0  0
   22.9679    4.2526   30.8999 C   0  0  0  0  0  0  0  0  0  0  0  0
   23.1768    3.1412   31.7336 C   0  0  0  0  0  0  0  0  0  0  0  0
   22.3463    2.4868   31.9830 H   0  0  0  0  0  0  0  0  0  0  0  0
   24.4490    2.8561   32.2648 C   0  0  0  0  0  0  0  0  0  0  0  0
   24.6751    1.7822   33.0972 O   0  0  0  0  0  0  0  0  0  0  0  0
   23.6696    0.7584   33.1177 C   0  0  0  0  0  0  0  0  0  0  0  0
   22.7378    1.1393   33.5476 H   0  0  0  0  0  0  0  0  0  0  0  0
   23.4692    0.4010   32.1026 H   0  0  0  0  0  0  0  0  0  0  0  0
   24.0149   -0.0883   33.7218 H   0  0  0  0  0  0  0  0  0  0  0  0
   25.5212    3.7076   31.9461 C   0  0  0  0  0  0  0  0  0  0  0  0
   27.2778    3.3835   32.6416 Br  0  0  0  0  0  0  0  0  0  0  0  0
   25.3180    4.8031   31.1024 C   0  0  0  0  0  0  0  0  0  0  0  0
   26.1569    5.4437   30.8548 H   0  0  0  0  0  0  0  0  0  0  0  0
   24.0506    5.0965   30.5790 C   0  0  0  0  0  0  0  0  0  0  0  0
   23.8326    6.1931   29.7734 O   0  0  0  0  0  0  0  0  0  0  0  0
   24.9336    7.0968   29.6050 C   0  0  0  0  0  0  0  0  0  0  0  0
   25.7688    6.5968   29.1046 H   0  0  0  0  0  0  0  0  0  0  0  0
   25.2769    7.4597   30.5786 H   0  0  0  0  0  0  0  0  0  0  0  0
   24.6218    7.9546   28.9994 H   0  0  0  0  0  0  0  0  0  0  0  0
   19.9107    8.1168   32.4489 C   0  0  0  0  0  0  0  0  0  0  0  0
   19.3484    7.2487   32.7588 H   0  0  0  0  0  0  0  0  0  0  0  0
   19.5372    9.3669   32.8456 C   0  0  0  0  0  0  0  0  0  0  0  0
   18.4822    9.4903   33.6836 N   0  0  0  0  0  0  0  0  0  0  0  0
   17.9184    8.6678   33.8727 H   0  0  0  0  0  0  0  0  0  0  0  0
   18.1307   10.4188   33.9047 H   0  0  0  0  0  0  0  0  0  0  0  0
   20.2502   10.4669   32.4546 C   0  0  0  0  0  0  0  0  0  0  0  0
   19.9093   11.7769   32.9028 C   0  0  0  0  0  0  0  0  0  0  0  0
   19.7199   12.8614   33.2719 N   0  0  0  0  0  0  0  0  0  0  0  0
   22.5378   12.6041   31.8267 C   0  0  0  0  0  0  0  0  0  0  0  0
   22.1368   12.9982   32.7587 H   0  0  0  0  0  0  0  0  0  0  0  0
  1  2  1  0
  2  3  1  0
  3  4  1  0
  4  5  1  0
  4  6  2  0
  6  7  1  0
  7  8  2  0
  8  9  1  0
  9 10  1  0
 10 11  1  0
 10 12  1  0
 12 13  2  0
 12 14  1  0
 14 15  1  0
 14 16  1  0
 14 17  1  0
 17 18  2  0
 18 19  1  0
 18 20  1  0
 20 21  1  0
 21 22  1  0
 22 23  1  0
 22 24  1  0
 22 25  1  0
 20 26  2  0
 26 27  1  0
 26 28  1  0
 28 29  1  0
 28 30  2  0
 30 31  1  0
 31 32  1  0
 32 33  1  0
 32 34  1  0
 32 35  1  0
  9 36  2  0
 36 37  1  0
 36 38  1  0
 38 39  1  0
 39 40  1  0
 39 41  1  0
 38 42  2  0
 42 43  1  0
 43 44  3  0
  6 45  1  0
 45 46  1  0
 45  2  2  0
 42  7  1  0
 30 17  1  0
M  END
>  <score>  (168) 
7.47464

$$$$

     RDKit          3D

 48 50  0  0  0  0  0  0  0  0999 V2000
   25.1715   12.2451   27.8415 H   0  0  0  0  0  0  0  0  0  0  0  0
   24.3906   11.7718   28.4317 C   0  0  0  0  0  0  0  0  0  0  0  0
   23.8788   12.2508   29.6165 O   0  0  0  0  0  0  0  0  0  0  0  0
   22.8948   11.3706   30.0296 C   0  0  0  0  0  0  0  0  0  0  0  0
   22.0438   11.4972   31.2319 C   0  0  0  0  0  0  0  0  0  0  0  0
   22.0078   12.5704   31.8489 O   0  0  0  0  0  0  0  0  0  0  0  0
   21.2827   10.3006   31.7099 C   0  0  0  0  0  0  0  0  0  0  0  0
   21.6789    9.0891   31.2591 N   0  0  0  0  0  0  0  0  0  0  0  0
   21.0572    8.0000   31.6663 C   0  0  0  0  0  0  0  0  0  0  0  0
   21.5839    6.8757   31.1399 N   0  0  0  0  0  0  0  0  0  0  0  0
   22.4178    7.0004   30.5896 H   0  0  0  0  0  0  0  0  0  0  0  0
   20.9232    5.6795   31.0854 C   0  0  0  0  0  0  0  0  0  0  0  0
   19.8113    5.5773   31.5722 O   0  0  0  0  0  0  0  0  0  0  0  0
   21.5520    4.4874   30.3710 C   0  0  0  0  0  0  0  0  0  0  0  0
   20.9359    3.6014   30.5593 H   0  0  0  0  0  0  0  0  0  0  0  0
   21.5667    4.6651   29.2921 H   0  0  0  0  0  0  0  0  0  0  0  0
   22.9507    4.2449   30.8794 C   0  0  0  0  0  0  0  0  0  0  0  0
   23.1671    3.1238   31.6888 C   0  0  0  0  0  0  0  0  0  0  0  0
   22.3495    2.4419   31.9046 H   0  0  0  0  0  0  0  0  0  0  0  0
   24.4268    2.8550   32.2384 C   0  0  0  0  0  0  0  0  0  0  0  0
   24.6583    1.7602   33.0367 O   0  0  0  0  0  0  0  0  0  0  0  0
   23.6102    0.7818   33.0814 C   0  0  0  0  0  0  0  0  0  0  0  0
   22.7007    1.2128   33.5095 H   0  0  0  0  0  0  0  0  0  0  0  0
   23.9156   -0.0671   33.6988 H   0  0  0  0  0  0  0  0  0  0  0  0
   23.3851    0.4143   32.0755 H   0  0  0  0  0  0  0  0  0  0  0  0
   25.4795    3.7427   31.9709 C   0  0  0  0  0  0  0  0  0  0  0  0
   27.2244    3.4561   32.7046 Br  0  0  0  0  0  0  0  0  0  0  0  0
   25.2652    4.8598   31.1554 C   0  0  0  0  0  0  0  0  0  0  0  0
   26.0805    5.5416   30.9456 H   0  0  0  0  0  0  0  0  0  0  0  0
   24.0074    5.1341   30.5999 C   0  0  0  0  0  0  0  0  0  0  0  0
   23.7767    6.2492   29.8204 O   0  0  0  0  0  0  0  0  0  0  0  0
   24.9130    7.1037   29.6116 C   0  0  0  0  0  0  0  0  0  0  0  0
   25.2952    7.4781   30.5678 H   0  0  0  0  0  0  0  0  0  0  0  0
   24.6340    7.9602   28.9927 H   0  0  0  0  0  0  0  0  0  0  0  0
   25.7156    6.5568   29.1048 H   0  0  0  0  0  0  0  0  0  0  0  0
   20.0220    8.0155   32.5469 C   0  0  0  0  0  0  0  0  0  0  0  0
   19.5308    7.1219   32.8864 H   0  0  0  0  0  0  0  0  0  0  0  0
   19.6004    9.2189   32.9948 C   0  0  0  0  0  0  0  0  0  0  0  0
   18.4877    9.1613   33.7569 N   0  0  0  0  0  0  0  0  0  0  0  0
   17.8085    9.8965   33.5812 H   0  0  0  0  0  0  0  0  0  0  0  0
   18.1189    8.2196   33.8537 H   0  0  0  0  0  0  0  0  0  0  0  0
   20.2060   10.3904   32.6046 C   0  0  0  0  0  0  0  0  0  0  0  0
   19.7096   11.6455   33.0715 C   0  0  0  0  0  0  0  0  0  0  0  0
   19.3148   12.6828   33.4228 N   0  0  0  0  0  0  0  0  0  0  0  0
   22.8017   10.3392   29.1292 C   0  0  0  0  0  0  0  0  0  0  0  0
   22.1003    9.5100   29.1701 H   0  0  0  0  0  0  0  0  0  0  0  0
   23.7729   10.5997   28.1016 C   0  0  0  0  0  0  0  0  0  0  0  0
   23.9542    9.9974   27.2197 H   0  0  0  0  0  0  0  0  0  0  0  0
  1  2  1  0
  2  3  1  0
  3  4  1  0
  4  5  1  0
  5  6  2  0
  5  7  1  0
  7  8  2  0
  8  9  1  0
  9 10  1  0
 10 11  1  0
 10 12  1  0
 12 13  2  0
 12 14  1  0
 14 15  1  0
 14 16  1  0
 14 17  1  0
 17 18  2  0
 18 19  1  0
 18 20  1  0
 20 21  1  0
 21 22  1  0
 22 23  1  0
 22 24  1  0
 22 25  1  0
 20 26  2  0
 26 27  1  0
 26 28  1  0
 28 29  1  0
 28 30  2  0
 30 31  1  0
 31 32  1  0
 32 33  1  0
 32 34  1  0
 32 35  1  0
  9 36  2  0
 36 37  1  0
 36 38  1  0
 38 39  1  0
 39 40  1  0
 39 41  1  0
 38 42  2  0
 42 43  1  0
 43 44  3  0
  4 45  2  0
 45 46  1  0
 45 47  1  0
 47 48  1  0
 47  2  2  0
 42  7  1  0
 30 17  1  0
M  END
>  <score>  (169) 
7.47565

$$$$

     RDKit          3D

 53 55  0  0  0  0  0  0  0  0999 V2000
   25.9630    9.2084   30.9265 H   0  0  0  0  0  0  0  0  0  0  0  0
   25.3374   10.0384   30.6189 C   0  0  0  0  0  0  0  0  0  0  0  0
   24.0587   10.1799   31.1499 C   0  0  0  0  0  0  0  0  0  0  0  0
   23.6919    9.4613   31.8724 H   0  0  0  0  0  0  0  0  0  0  0  0
   23.2399   11.2499   30.7618 C   0  0  0  0  0  0  0  0  0  0  0  0
   21.9592   11.3909   31.2292 O   0  0  0  0  0  0  0  0  0  0  0  0
   21.3299   10.2553   31.6763 C   0  0  0  0  0  0  0  0  0  0  0  0
   21.7491    9.0548   31.2664 N   0  0  0  0  0  0  0  0  0  0  0  0
   21.1145    7.9906   31.6791 C   0  0  0  0  0  0  0  0  0  0  0  0
   21.6684    6.8680   31.1994 N   0  0  0  0  0  0  0  0  0  0  0  0
   22.5287    6.9861   30.6829 H   0  0  0  0  0  0  0  0  0  0  0  0
   20.9659    5.7059   31.0721 C   0  0  0  0  0  0  0  0  0  0  0  0
   19.8094    5.6384   31.4567 O   0  0  0  0  0  0  0  0  0  0  0  0
   21.5894    4.5304   30.3438 C   0  0  0  0  0  0  0  0  0  0  0  0
   20.9477    3.6526   30.4583 H   0  0  0  0  0  0  0  0  0  0  0  0
   21.6539    4.7699   29.2802 H   0  0  0  0  0  0  0  0  0  0  0  0
   22.9727    4.2504   30.8830 C   0  0  0  0  0  0  0  0  0  0  0  0
   23.1769    3.1470   31.7229 C   0  0  0  0  0  0  0  0  0  0  0  0
   22.3453    2.4962   31.9755 H   0  0  0  0  0  0  0  0  0  0  0  0
   24.4450    2.8612   32.2609 C   0  0  0  0  0  0  0  0  0  0  0  0
   24.6748    1.7801   33.0809 O   0  0  0  0  0  0  0  0  0  0  0  0
   23.6546    0.7713   33.1028 C   0  0  0  0  0  0  0  0  0  0  0  0
   23.9879   -0.0751   33.7106 H   0  0  0  0  0  0  0  0  0  0  0  0
   23.4475    0.4090   32.0900 H   0  0  0  0  0  0  0  0  0  0  0  0
   22.7292    1.1663   33.5336 H   0  0  0  0  0  0  0  0  0  0  0  0
   25.5169    3.7147   31.9503 C   0  0  0  0  0  0  0  0  0  0  0  0
   27.2708    3.3981   32.6512 Br  0  0  0  0  0  0  0  0  0  0  0  0
   25.3152    4.8182   31.1158 C   0  0  0  0  0  0  0  0  0  0  0  0
   26.1504    5.4673   30.8721 H   0  0  0  0  0  0  0  0  0  0  0  0
   24.0500    5.1079   30.5819 C   0  0  0  0  0  0  0  0  0  0  0  0
   23.8242    6.2167   29.7960 O   0  0  0  0  0  0  0  0  0  0  0  0
   24.9364    7.1057   29.6166 C   0  0  0  0  0  0  0  0  0  0  0  0
   25.7508    6.5977   29.0899 H   0  0  0  0  0  0  0  0  0  0  0  0
   25.3065    7.4535   30.5864 H   0  0  0  0  0  0  0  0  0  0  0  0
   24.6301    7.9760   29.0282 H   0  0  0  0  0  0  0  0  0  0  0  0
   20.0340    8.0241   32.5068 C   0  0  0  0  0  0  0  0  0  0  0  0
   19.5349    7.1288   32.8380 H   0  0  0  0  0  0  0  0  0  0  0  0
   19.6150    9.2463   32.9127 C   0  0  0  0  0  0  0  0  0  0  0  0
   18.5403    9.2969   33.7197 N   0  0  0  0  0  0  0  0  0  0  0  0
   18.2193    8.4142   34.1102 H   0  0  0  0  0  0  0  0  0  0  0  0
   17.8517   10.0049   33.4834 H   0  0  0  0  0  0  0  0  0  0  0  0
   20.2497   10.3908   32.5165 C   0  0  0  0  0  0  0  0  0  0  0  0
   19.8342   11.6768   32.9631 C   0  0  0  0  0  0  0  0  0  0  0  0
   19.5042   12.7335   33.3240 N   0  0  0  0  0  0  0  0  0  0  0  0
   23.7452   12.2033   29.8753 C   0  0  0  0  0  0  0  0  0  0  0  0
   23.1085   13.0322   29.5853 H   0  0  0  0  0  0  0  0  0  0  0  0
   25.0447   12.0956   29.3652 C   0  0  0  0  0  0  0  0  0  0  0  0
   25.5873   13.1336   28.4291 C   0  0  0  0  0  0  0  0  0  0  0  0
   26.6423   13.3204   28.6476 H   0  0  0  0  0  0  0  0  0  0  0  0
   25.4964   12.7837   27.3970 H   0  0  0  0  0  0  0  0  0  0  0  0
   25.0359   14.0730   28.5352 H   0  0  0  0  0  0  0  0  0  0  0  0
   25.8203   10.9847   29.7126 C   0  0  0  0  0  0  0  0  0  0  0  0
   26.8225   10.8829   29.3115 H   0  0  0  0  0  0  0  0  0  0  0  0
  1  2  1  0
  2  3  2  0
  3  4  1  0
  3  5  1  0
  5  6  1  0
  6  7  1  0
  7  8  2  0
  8  9  1  0
  9 10  1  0
 10 11  1  0
 10 12  1  0
 12 13  2  0
 12 14  1  0
 14 15  1  0
 14 16  1  0
 14 17  1  0
 17 18  2  0
 18 19  1  0
 18 20  1  0
 20 21  1  0
 21 22  1  0
 22 23  1  0
 22 24  1  0
 22 25  1  0
 20 26  2  0
 26 27  1  0
 26 28  1  0
 28 29  1  0
 28 30  2  0
 30 31  1  0
 31 32  1  0
 32 33  1  0
 32 34  1  0
 32 35  1  0
  9 36  2  0
 36 37  1  0
 36 38  1  0
 38 39  1  0
 39 40  1  0
 39 41  1  0
 38 42  2  0
 42 43  1  0
 43 44  3  0
  5 45  2  0
 45 46  1  0
 45 47  1  0
 47 48  1  0
 48 49  1  0
 48 50  1  0
 48 51  1  0
 47 52  2  0
 52 53  1  0
 52  2  1  0
 42  7  1  0
 30 17  1  0
M  END
>  <score>  (170) 
7.4765

$$$$

     RDKit          3D

 52 54  0  0  0  0  0  0  0  0999 V2000
   24.4308   12.1700   28.5894 H   0  0  0  0  0  0  0  0  0  0  0  0
   23.4809   12.1557   29.1167 C   0  0  0  0  0  0  0  0  0  0  0  0
   23.3109   11.3663   30.2582 C   0  0  0  0  0  0  0  0  0  0  0  0
   24.1347   10.7629   30.6342 H   0  0  0  0  0  0  0  0  0  0  0  0
   22.0932   11.3855   30.9501 C   0  0  0  0  0  0  0  0  0  0  0  0
   21.9863   10.6799   32.2687 C   0  0  0  0  0  0  0  0  0  0  0  0
   21.7694   11.4133   33.0491 H   0  0  0  0  0  0  0  0  0  0  0  0
   22.9498   10.2176   32.4953 H   0  0  0  0  0  0  0  0  0  0  0  0
   20.9516    9.6057   32.3490 C   0  0  0  0  0  0  0  0  0  0  0  0
   21.3618    8.3772   32.0471 N   0  0  0  0  0  0  0  0  0  0  0  0
   20.5781    7.3712   32.3551 C   0  0  0  0  0  0  0  0  0  0  0  0
   21.2075    6.2179   32.0969 N   0  0  0  0  0  0  0  0  0  0  0  0
   22.1516    6.3993   31.7916 H   0  0  0  0  0  0  0  0  0  0  0  0
   20.5697    5.2295   31.4121 C   0  0  0  0  0  0  0  0  0  0  0  0
   19.3486    5.1726   31.4123 O   0  0  0  0  0  0  0  0  0  0  0  0
   21.3854    4.4025   30.4247 C   0  0  0  0  0  0  0  0  0  0  0  0
   20.8904    3.4447   30.2447 H   0  0  0  0  0  0  0  0  0  0  0  0
   21.4286    4.9493   29.4795 H   0  0  0  0  0  0  0  0  0  0  0  0
   22.7919    4.1728   30.9362 C   0  0  0  0  0  0  0  0  0  0  0  0
   23.0539    3.0210   31.6847 C   0  0  0  0  0  0  0  0  0  0  0  0
   22.2650    2.2943   31.8461 H   0  0  0  0  0  0  0  0  0  0  0  0
   24.3192    2.7788   32.2472 C   0  0  0  0  0  0  0  0  0  0  0  0
   24.5824    1.6584   33.0024 O   0  0  0  0  0  0  0  0  0  0  0  0
   23.5188    0.6991   33.0997 C   0  0  0  0  0  0  0  0  0  0  0  0
   23.2513    0.3226   32.1065 H   0  0  0  0  0  0  0  0  0  0  0  0
   22.6318    1.1511   33.5565 H   0  0  0  0  0  0  0  0  0  0  0  0
   23.8353   -0.1454   33.7185 H   0  0  0  0  0  0  0  0  0  0  0  0
   25.3396    3.7220   32.0386 C   0  0  0  0  0  0  0  0  0  0  0  0
   27.0872    3.4745   32.7836 Br  0  0  0  0  0  0  0  0  0  0  0  0
   25.0867    4.8708   31.2811 C   0  0  0  0  0  0  0  0  0  0  0  0
   25.8800    5.5956   31.1255 H   0  0  0  0  0  0  0  0  0  0  0  0
   23.8204    5.1152   30.7242 C   0  0  0  0  0  0  0  0  0  0  0  0
   23.5545    6.2528   29.9937 O   0  0  0  0  0  0  0  0  0  0  0  0
   24.6796    7.0743   29.6451 C   0  0  0  0  0  0  0  0  0  0  0  0
   24.3518    7.9038   29.0094 H   0  0  0  0  0  0  0  0  0  0  0  0
   25.1483    7.4875   30.5447 H   0  0  0  0  0  0  0  0  0  0  0  0
   25.4248    6.4893   29.0955 H   0  0  0  0  0  0  0  0  0  0  0  0
   19.3384    7.4953   32.9159 C   0  0  0  0  0  0  0  0  0  0  0  0
   18.7228    6.6463   33.1578 H   0  0  0  0  0  0  0  0  0  0  0  0
   18.9201    8.7550   33.2054 C   0  0  0  0  0  0  0  0  0  0  0  0
   17.7240    8.8733   33.8132 N   0  0  0  0  0  0  0  0  0  0  0  0
   17.4105    8.0493   34.3334 H   0  0  0  0  0  0  0  0  0  0  0  0
   17.4857    9.7967   34.1625 H   0  0  0  0  0  0  0  0  0  0  0  0
   19.7242    9.8402   32.9560 C   0  0  0  0  0  0  0  0  0  0  0  0
   19.3985   11.1512   33.4230 C   0  0  0  0  0  0  0  0  0  0  0  0
   19.2085   12.2227   33.8274 N   0  0  0  0  0  0  0  0  0  0  0  0
   21.0284   12.1485   30.4690 C   0  0  0  0  0  0  0  0  0  0  0  0
   20.0848   12.1580   31.0124 H   0  0  0  0  0  0  0  0  0  0  0  0
   21.1880   12.9278   29.3173 C   0  0  0  0  0  0  0  0  0  0  0  0
   19.8242   13.8356   28.7251 Cl  0  0  0  0  0  0  0  0  0  0  0  0
   22.4306   12.9617   28.6632 C   0  0  0  0  0  0  0  0  0  0  0  0
   22.7157   14.0287   27.3088 Cl  0  0  0  0  0  0  0  0  0  0  0  0
  1  2  1  0
  2  3  2  0
  3  4  1  0
  3  5  1  0
  5  6  1  0
  6  7  1  0
  6  8  1  0
  6  9  1  0
  9 10  2  0
 10 11  1  0
 11 12  1  0
 12 13  1  0
 12 14  1  0
 14 15  2  0
 14 16  1  0
 16 17  1  0
 16 18  1  0
 16 19  1  0
 19 20  2  0
 20 21  1  0
 20 22  1  0
 22 23  1  0
 23 24  1  0
 24 25  1  0
 24 26  1  0
 24 27  1  0
 22 28  2  0
 28 29  1  0
 28 30  1  0
 30 31  1  0
 30 32  2  0
 32 33  1  0
 33 34  1  0
 34 35  1  0
 34 36  1  0
 34 37  1  0
 11 38  2  0
 38 39  1  0
 38 40  1  0
 40 41  1  0
 41 42  1  0
 41 43  1  0
 40 44  2  0
 44 45  1  0
 45 46  3  0
  5 47  2  0
 47 48  1  0
 47 49  1  0
 49 50  1  0
 49 51  2  0
 51 52  1  0
 51  2  1  0
 44  9  1  0
 32 19  1  0
M  END
>  <score>  (171) 
7.47694

$$$$

     RDKit          3D

 43 44  0  0  0  0  0  0  0  0999 V2000
   26.1629    5.4288   30.8455 H   0  0  0  0  0  0  0  0  0  0  0  0
   25.3154    4.8023   31.0994 C   0  0  0  0  0  0  0  0  0  0  0  0
   25.5089    3.7036   31.9391 C   0  0  0  0  0  0  0  0  0  0  0  0
   27.2613    3.3543   32.6313 Br  0  0  0  0  0  0  0  0  0  0  0  0
   24.4294    2.8648   32.2635 C   0  0  0  0  0  0  0  0  0  0  0  0
   24.6616    1.7950   33.0976 O   0  0  0  0  0  0  0  0  0  0  0  0
   23.6752    0.7518   33.1243 C   0  0  0  0  0  0  0  0  0  0  0  0
   22.7377    1.1117   33.5618 H   0  0  0  0  0  0  0  0  0  0  0  0
   24.0410   -0.0867   33.7295 H   0  0  0  0  0  0  0  0  0  0  0  0
   23.4767    0.3830   32.1119 H   0  0  0  0  0  0  0  0  0  0  0  0
   23.1602    3.1548   31.7271 C   0  0  0  0  0  0  0  0  0  0  0  0
   22.3253    2.5042   31.9722 H   0  0  0  0  0  0  0  0  0  0  0  0
   22.9658    4.2614   30.8839 C   0  0  0  0  0  0  0  0  0  0  0  0
   21.5948    4.5598   30.3181 C   0  0  0  0  0  0  0  0  0  0  0  0
   21.6898    4.8340   29.2604 H   0  0  0  0  0  0  0  0  0  0  0  0
   20.9452    3.6854   30.3881 H   0  0  0  0  0  0  0  0  0  0  0  0
   20.9393    5.7065   31.0703 C   0  0  0  0  0  0  0  0  0  0  0  0
   19.8828    5.5456   31.6578 O   0  0  0  0  0  0  0  0  0  0  0  0
   21.4932    6.9467   30.9794 N   0  0  0  0  0  0  0  0  0  0  0  0
   22.3423    7.0663   30.4490 H   0  0  0  0  0  0  0  0  0  0  0  0
   20.9949    8.0678   31.5325 C   0  0  0  0  0  0  0  0  0  0  0  0
   21.7288    9.0990   31.2039 N   0  0  0  0  0  0  0  0  0  0  0  0
   21.3651   10.2880   31.6765 C   0  0  0  0  0  0  0  0  0  0  0  0
   22.1186   11.3764   31.3944 O   0  0  0  0  0  0  0  0  0  0  0  0
   23.2327   11.0810   30.5662 C   0  0  0  0  0  0  0  0  0  0  0  0
   23.9001   10.3494   31.0365 H   0  0  0  0  0  0  0  0  0  0  0  0
   23.9076   12.2396   30.3854 F   0  0  0  0  0  0  0  0  0  0  0  0
   22.8031   10.6022   29.3693 F   0  0  0  0  0  0  0  0  0  0  0  0
   20.2716   10.4686   32.4827 C   0  0  0  0  0  0  0  0  0  0  0  0
   19.9377   11.7788   32.9281 C   0  0  0  0  0  0  0  0  0  0  0  0
   19.6876   12.8677   33.2421 N   0  0  0  0  0  0  0  0  0  0  0  0
   19.5637    9.3641   32.8371 C   0  0  0  0  0  0  0  0  0  0  0  0
   18.5362    9.4642   33.7089 N   0  0  0  0  0  0  0  0  0  0  0  0
   18.1695   10.3934   33.8984 H   0  0  0  0  0  0  0  0  0  0  0  0
   17.9553    8.6420   33.8531 H   0  0  0  0  0  0  0  0  0  0  0  0
   19.9030    8.1401   32.3587 C   0  0  0  0  0  0  0  0  0  0  0  0
   19.3452    7.2673   32.6433 H   0  0  0  0  0  0  0  0  0  0  0  0
   24.0512    5.1044   30.5713 C   0  0  0  0  0  0  0  0  0  0  0  0
   23.8368    6.1921   29.7525 O   0  0  0  0  0  0  0  0  0  0  0  0
   24.9308    7.1079   29.5926 C   0  0  0  0  0  0  0  0  0  0  0  0
   25.2674    7.4778   30.5677 H   0  0  0  0  0  0  0  0  0  0  0  0
   24.6089    7.9631   28.9890 H   0  0  0  0  0  0  0  0  0  0  0  0
   25.7760    6.6256   29.0881 H   0  0  0  0  0  0  0  0  0  0  0  0
  1  2  1  0
  2  3  2  0
  3  4  1  0
  3  5  1  0
  5  6  1  0
  6  7  1  0
  7  8  1  0
  7  9  1  0
  7 10  1  0
  5 11  2  0
 11 12  1  0
 11 13  1  0
 13 14  1  0
 14 15  1  0
 14 16  1  0
 14 17  1  0
 17 18  2  0
 17 19  1  0
 19 20  1  0
 19 21  1  0
 21 22  2  0
 22 23  1  0
 23 24  1  0
 24 25  1  0
 25 26  1  0
 25 27  1  0
 25 28  1  0
 23 29  2  0
 29 30  1  0
 30 31  3  0
 29 32  1  0
 32 33  1  0
 33 34  1  0
 33 35  1  0
 32 36  2  0
 36 37  1  0
 13 38  2  0
 38 39  1  0
 39 40  1  0
 40 41  1  0
 40 42  1  0
 40 43  1  0
 38  2  1  0
 36 21  1  0
M  END
>  <score>  (172) 
7.48045

$$$$

     RDKit          3D

 49 51  0  0  0  0  0  0  0  0999 V2000
   20.6991   12.5145   30.4207 H   0  0  0  0  0  0  0  0  0  0  0  0
   21.7701   12.4199   30.5878 C   0  0  0  0  0  0  0  0  0  0  0  0
   22.5802   13.3591   30.1322 N   0  0  0  0  0  0  0  0  0  0  0  0
   23.8526   13.1321   30.3108 C   0  0  0  0  0  0  0  0  0  0  0  0
   24.6627   13.9868   29.7386 N   0  0  0  0  0  0  0  0  0  0  0  0
   24.1686   14.8383   29.5354 H   0  0  0  0  0  0  0  0  0  0  0  0
   25.5288   14.0160   30.2463 H   0  0  0  0  0  0  0  0  0  0  0  0
   24.4370   12.1759   30.9782 N   0  0  0  0  0  0  0  0  0  0  0  0
   23.6299   11.2266   31.4068 C   0  0  0  0  0  0  0  0  0  0  0  0
   24.0397   10.3752   31.9440 H   0  0  0  0  0  0  0  0  0  0  0  0
   22.2772   11.3185   31.2269 C   0  0  0  0  0  0  0  0  0  0  0  0
   21.4564   10.2682   31.6772 C   0  0  0  0  0  0  0  0  0  0  0  0
   21.8935    9.0587   31.3604 N   0  0  0  0  0  0  0  0  0  0  0  0
   21.1398    8.0381   31.7097 C   0  0  0  0  0  0  0  0  0  0  0  0
   21.6769    6.8622   31.3026 N   0  0  0  0  0  0  0  0  0  0  0  0
   22.5589    6.9401   30.8192 H   0  0  0  0  0  0  0  0  0  0  0  0
   20.9593    5.7154   31.1233 C   0  0  0  0  0  0  0  0  0  0  0  0
   19.7742    5.6761   31.4159 O   0  0  0  0  0  0  0  0  0  0  0  0
   21.6054    4.5696   30.3545 C   0  0  0  0  0  0  0  0  0  0  0  0
   21.6871    4.8773   29.3082 H   0  0  0  0  0  0  0  0  0  0  0  0
   20.9655    3.6880   30.4039 H   0  0  0  0  0  0  0  0  0  0  0  0
   22.9830    4.2537   30.8932 C   0  0  0  0  0  0  0  0  0  0  0  0
   23.1765    3.1435   31.7316 C   0  0  0  0  0  0  0  0  0  0  0  0
   22.3404    2.4971   31.9821 H   0  0  0  0  0  0  0  0  0  0  0  0
   24.4443    2.8539   32.2672 C   0  0  0  0  0  0  0  0  0  0  0  0
   24.6698    1.7857   33.1064 O   0  0  0  0  0  0  0  0  0  0  0  0
   23.6781    0.7473   33.1276 C   0  0  0  0  0  0  0  0  0  0  0  0
   24.0395   -0.0934   33.7314 H   0  0  0  0  0  0  0  0  0  0  0  0
   22.7413    1.1107   33.5623 H   0  0  0  0  0  0  0  0  0  0  0  0
   23.4795    0.3828   32.1143 H   0  0  0  0  0  0  0  0  0  0  0  0
   25.5234    3.6956   31.9459 C   0  0  0  0  0  0  0  0  0  0  0  0
   27.2766    3.3466   32.6393 Br  0  0  0  0  0  0  0  0  0  0  0  0
   25.3310    4.7948   31.1018 C   0  0  0  0  0  0  0  0  0  0  0  0
   26.1735    5.4296   30.8518 H   0  0  0  0  0  0  0  0  0  0  0  0
   24.0669    5.0946   30.5750 C   0  0  0  0  0  0  0  0  0  0  0  0
   23.8440    6.1900   29.7676 O   0  0  0  0  0  0  0  0  0  0  0  0
   24.9337    7.1087   29.5973 C   0  0  0  0  0  0  0  0  0  0  0  0
   24.6057    7.9603   28.9914 H   0  0  0  0  0  0  0  0  0  0  0  0
   25.2756    7.4830   30.5679 H   0  0  0  0  0  0  0  0  0  0  0  0
   25.7757    6.6246   29.0916 H   0  0  0  0  0  0  0  0  0  0  0  0
   19.9575    8.1529   32.3946 C   0  0  0  0  0  0  0  0  0  0  0  0
   19.3777    7.2869   32.6713 H   0  0  0  0  0  0  0  0  0  0  0  0
   19.5631    9.3980   32.7565 C   0  0  0  0  0  0  0  0  0  0  0  0
   18.4719    9.4609   33.5439 N   0  0  0  0  0  0  0  0  0  0  0  0
   17.6589    9.0632   33.0877 H   0  0  0  0  0  0  0  0  0  0  0  0
   18.6600    9.0466   34.4542 H   0  0  0  0  0  0  0  0  0  0  0  0
   20.2979   10.4932   32.4022 C   0  0  0  0  0  0  0  0  0  0  0  0
   19.9166   11.7943   32.8397 C   0  0  0  0  0  0  0  0  0  0  0  0
   19.6595   12.8655   33.2082 N   0  0  0  0  0  0  0  0  0  0  0  0
  1  2  1  0
  2  3  2  0
  3  4  1  0
  4  5  1  0
  5  6  1  0
  5  7  1  0
  4  8  2  0
  8  9  1  0
  9 10  1  0
  9 11  2  0
 11 12  1  0
 12 13  2  0
 13 14  1  0
 14 15  1  0
 15 16  1  0
 15 17  1  0
 17 18  2  0
 17 19  1  0
 19 20  1  0
 19 21  1  0
 19 22  1  0
 22 23  2  0
 23 24  1  0
 23 25  1  0
 25 26  1  0
 26 27  1  0
 27 28  1  0
 27 29  1  0
 27 30  1  0
 25 31  2  0
 31 32  1  0
 31 33  1  0
 33 34  1  0
 33 35  2  0
 35 36  1  0
 36 37  1  0
 37 38  1  0
 37 39  1  0
 37 40  1  0
 14 41  2  0
 41 42  1  0
 41 43  1  0
 43 44  1  0
 44 45  1  0
 44 46  1  0
 43 47  2  0
 47 48  1  0
 48 49  3  0
 11  2  1  0
 47 12  1  0
 35 22  1  0
M  END
>  <score>  (173) 
7.48094

$$$$

     RDKit          3D

 54 56  0  0  0  0  0  0  0  0999 V2000
   21.2553   14.3991   29.4202 H   0  0  0  0  0  0  0  0  0  0  0  0
   21.8554   13.6054   29.8576 C   0  0  0  0  0  0  0  0  0  0  0  0
   21.2006   12.5089   30.4181 C   0  0  0  0  0  0  0  0  0  0  0  0
   20.1151   12.4794   30.4027 H   0  0  0  0  0  0  0  0  0  0  0  0
   21.9282   11.4369   30.9551 C   0  0  0  0  0  0  0  0  0  0  0  0
   21.2088   10.2806   31.5126 C   0  0  0  0  0  0  0  0  0  0  0  0
   21.5993    9.0621   31.1292 N   0  0  0  0  0  0  0  0  0  0  0  0
   20.9320    8.0162   31.5652 C   0  0  0  0  0  0  0  0  0  0  0  0
   21.4955    6.8769   31.1105 N   0  0  0  0  0  0  0  0  0  0  0  0
   22.3374    7.0007   30.5697 H   0  0  0  0  0  0  0  0  0  0  0  0
   20.9111    5.6422   31.1488 C   0  0  0  0  0  0  0  0  0  0  0  0
   19.8414    5.4833   31.7090 O   0  0  0  0  0  0  0  0  0  0  0  0
   21.5559    4.5104   30.3596 C   0  0  0  0  0  0  0  0  0  0  0  0
   20.9362    3.6110   30.4346 H   0  0  0  0  0  0  0  0  0  0  0  0
   21.6021    4.8020   29.3081 H   0  0  0  0  0  0  0  0  0  0  0  0
   22.9498    4.2433   30.8739 C   0  0  0  0  0  0  0  0  0  0  0  0
   23.1583    3.1436   31.7151 C   0  0  0  0  0  0  0  0  0  0  0  0
   22.3256    2.4918   31.9623 H   0  0  0  0  0  0  0  0  0  0  0  0
   24.4262    2.8698   32.2559 C   0  0  0  0  0  0  0  0  0  0  0  0
   24.6610    1.7937   33.0787 O   0  0  0  0  0  0  0  0  0  0  0  0
   23.6473    0.7798   33.0975 C   0  0  0  0  0  0  0  0  0  0  0  0
   22.7199    1.1714   33.5276 H   0  0  0  0  0  0  0  0  0  0  0  0
   23.4441    0.4191   32.0830 H   0  0  0  0  0  0  0  0  0  0  0  0
   23.9843   -0.0658   33.7047 H   0  0  0  0  0  0  0  0  0  0  0  0
   25.4917    3.7293   31.9453 C   0  0  0  0  0  0  0  0  0  0  0  0
   27.2495    3.4352   32.6429 Br  0  0  0  0  0  0  0  0  0  0  0  0
   25.2856    4.8236   31.1035 C   0  0  0  0  0  0  0  0  0  0  0  0
   26.1177    5.4756   30.8616 H   0  0  0  0  0  0  0  0  0  0  0  0
   24.0222    5.1040   30.5629 C   0  0  0  0  0  0  0  0  0  0  0  0
   23.8019    6.2067   29.7657 O   0  0  0  0  0  0  0  0  0  0  0  0
   24.9234    7.0895   29.6070 C   0  0  0  0  0  0  0  0  0  0  0  0
   25.2683    7.4464   30.5841 H   0  0  0  0  0  0  0  0  0  0  0  0
   25.7513    6.5700   29.1119 H   0  0  0  0  0  0  0  0  0  0  0  0
   24.6416    7.9548   29.0002 H   0  0  0  0  0  0  0  0  0  0  0  0
   19.8418    8.0935   32.3920 C   0  0  0  0  0  0  0  0  0  0  0  0
   19.3129    7.2056   32.7031 H   0  0  0  0  0  0  0  0  0  0  0  0
   19.4920    9.3335   32.8476 C   0  0  0  0  0  0  0  0  0  0  0  0
   18.5006    9.4203   33.7698 N   0  0  0  0  0  0  0  0  0  0  0  0
   17.9080    8.6013   33.8732 H   0  0  0  0  0  0  0  0  0  0  0  0
   18.0843   10.3374   33.9129 H   0  0  0  0  0  0  0  0  0  0  0  0
   20.1542   10.4546   32.4039 C   0  0  0  0  0  0  0  0  0  0  0  0
   19.8128   11.7497   32.8904 C   0  0  0  0  0  0  0  0  0  0  0  0
   19.5770   12.8165   33.2928 N   0  0  0  0  0  0  0  0  0  0  0  0
   23.3326   11.4952   30.9410 C   0  0  0  0  0  0  0  0  0  0  0  0
   23.9093   10.6716   31.3563 H   0  0  0  0  0  0  0  0  0  0  0  0
   24.0055   12.6076   30.4093 C   0  0  0  0  0  0  0  0  0  0  0  0
   25.5024   12.6886   30.5045 C   0  0  0  0  0  0  0  0  0  0  0  0
   25.7699   12.4606   31.5399 H   0  0  0  0  0  0  0  0  0  0  0  0
   25.8436   13.7069   30.2941 H   0  0  0  0  0  0  0  0  0  0  0  0
   26.1278   11.7431   29.5673 N   0  0  0  0  0  0  0  0  0  0  0  0
   25.8829   10.7830   29.8162 H   0  0  0  0  0  0  0  0  0  0  0  0
   25.8540   11.9484   28.6024 H   0  0  0  0  0  0  0  0  0  0  0  0
   23.2562   13.6562   29.8459 C   0  0  0  0  0  0  0  0  0  0  0  0
   23.7609   14.5009   29.3838 H   0  0  0  0  0  0  0  0  0  0  0  0
  1  2  1  0
  2  3  2  0
  3  4  1  0
  3  5  1  0
  5  6  1  0
  6  7  2  0
  7  8  1  0
  8  9  1  0
  9 10  1  0
  9 11  1  0
 11 12  2  0
 11 13  1  0
 13 14  1  0
 13 15  1  0
 13 16  1  0
 16 17  2  0
 17 18  1  0
 17 19  1  0
 19 20  1  0
 20 21  1  0
 21 22  1  0
 21 23  1  0
 21 24  1  0
 19 25  2  0
 25 26  1  0
 25 27  1  0
 27 28  1  0
 27 29  2  0
 29 30  1  0
 30 31  1  0
 31 32  1  0
 31 33  1  0
 31 34  1  0
  8 35  2  0
 35 36  1  0
 35 37  1  0
 37 38  1  0
 38 39  1  0
 38 40  1  0
 37 41  2  0
 41 42  1  0
 42 43  3  0
  5 44  2  0
 44 45  1  0
 44 46  1  0
 46 47  1  0
 47 48  1  0
 47 49  1  0
 47 50  1  0
 50 51  1  0
 50 52  1  0
 46 53  2  0
 53 54  1  0
 53  2  1  0
 41  6  1  0
 29 16  1  0
M  END
>  <score>  (174) 
7.48539

$$$$

     RDKit          3D

 59 61  0  0  0  0  0  0  0  0999 V2000
   26.0508    5.5542   31.0267 H   0  0  0  0  0  0  0  0  0  0  0  0
   25.2277    4.8749   31.2205 C   0  0  0  0  0  0  0  0  0  0  0  0
   25.4445    3.7377   32.0080 C   0  0  0  0  0  0  0  0  0  0  0  0
   27.1897    3.4373   32.7373 Br  0  0  0  0  0  0  0  0  0  0  0  0
   24.3933    2.8387   32.2541 C   0  0  0  0  0  0  0  0  0  0  0  0
   24.6280    1.7154   33.0136 O   0  0  0  0  0  0  0  0  0  0  0  0
   23.5560    0.7622   33.0755 C   0  0  0  0  0  0  0  0  0  0  0  0
   23.3097    0.3921   32.0746 H   0  0  0  0  0  0  0  0  0  0  0  0
   23.8480   -0.0891   33.6959 H   0  0  0  0  0  0  0  0  0  0  0  0
   22.6619    1.2187   33.5115 H   0  0  0  0  0  0  0  0  0  0  0  0
   23.1280    3.1216   31.7159 C   0  0  0  0  0  0  0  0  0  0  0  0
   22.3131    2.4307   31.9087 H   0  0  0  0  0  0  0  0  0  0  0  0
   22.9016    4.2680   30.9471 C   0  0  0  0  0  0  0  0  0  0  0  0
   21.4991    4.5511   30.4619 C   0  0  0  0  0  0  0  0  0  0  0  0
   20.8733    3.6618   30.5899 H   0  0  0  0  0  0  0  0  0  0  0  0
   21.5159    4.8094   29.3992 H   0  0  0  0  0  0  0  0  0  0  0  0
   20.8864    5.7092   31.2418 C   0  0  0  0  0  0  0  0  0  0  0  0
   19.7330    5.6353   31.6286 O   0  0  0  0  0  0  0  0  0  0  0  0
   21.5930    6.8736   31.3880 N   0  0  0  0  0  0  0  0  0  0  0  0
   22.4695    6.9695   30.8993 H   0  0  0  0  0  0  0  0  0  0  0  0
   21.0509    8.0341   31.8108 C   0  0  0  0  0  0  0  0  0  0  0  0
   21.7951    9.0832   31.5020 N   0  0  0  0  0  0  0  0  0  0  0  0
   21.3655   10.3210   31.8225 C   0  0  0  0  0  0  0  0  0  0  0  0
   22.3036   11.5180   31.6195 C   0  0  0  0  0  0  0  0  0  0  0  0
   23.3208   11.1330   31.4950 H   0  0  0  0  0  0  0  0  0  0  0  0
   22.2351   12.1029   32.5349 H   0  0  0  0  0  0  0  0  0  0  0  0
   22.0116   12.4955   30.5452 N   0  0  0  0  0  0  0  0  0  0  0  0
   22.7041   13.8107   30.6286 C   0  0  0  0  0  0  0  0  0  0  0  0
   23.7592   13.6917   30.3576 H   0  0  0  0  0  0  0  0  0  0  0  0
   22.6653   14.2120   31.6473 H   0  0  0  0  0  0  0  0  0  0  0  0
   22.0358   14.8026   29.6523 C   0  0  0  0  0  0  0  0  0  0  0  0
   21.0043   14.9619   29.9784 H   0  0  0  0  0  0  0  0  0  0  0  0
   22.5347   15.7720   29.6600 H   0  0  0  0  0  0  0  0  0  0  0  0
   22.0242   14.2666   28.2754 N   0  0  0  0  0  0  0  0  0  0  0  0
   23.2999   14.3132   27.5361 C   0  0  0  0  0  0  0  0  0  0  0  0
   23.7013   15.3301   27.5483 H   0  0  0  0  0  0  0  0  0  0  0  0
   24.0419   13.6381   27.9766 H   0  0  0  0  0  0  0  0  0  0  0  0
   23.1452   14.0202   26.4935 H   0  0  0  0  0  0  0  0  0  0  0  0
   21.3192   12.9675   28.2434 C   0  0  0  0  0  0  0  0  0  0  0  0
   20.2819   13.0927   28.5765 H   0  0  0  0  0  0  0  0  0  0  0  0
   21.2894   12.5870   27.2262 H   0  0  0  0  0  0  0  0  0  0  0  0
   22.0363   11.9719   29.1647 C   0  0  0  0  0  0  0  0  0  0  0  0
   21.5547   10.9936   29.1105 H   0  0  0  0  0  0  0  0  0  0  0  0
   23.0742   11.8575   28.8328 H   0  0  0  0  0  0  0  0  0  0  0  0
   20.1502   10.4895   32.4849 C   0  0  0  0  0  0  0  0  0  0  0  0
   19.6989   11.7802   32.8953 C   0  0  0  0  0  0  0  0  0  0  0  0
   19.3672   12.8434   33.2305 N   0  0  0  0  0  0  0  0  0  0  0  0
   19.4199    9.3659   32.7921 C   0  0  0  0  0  0  0  0  0  0  0  0
   18.2472    9.4433   33.4564 N   0  0  0  0  0  0  0  0  0  0  0  0
   18.0142   10.3529   33.8462 H   0  0  0  0  0  0  0  0  0  0  0  0
   17.9645    8.6057   33.9568 H   0  0  0  0  0  0  0  0  0  0  0  0
   19.8617    8.1228   32.4774 C   0  0  0  0  0  0  0  0  0  0  0  0
   19.2818    7.2567   32.7559 H   0  0  0  0  0  0  0  0  0  0  0  0
   23.9618    5.1578   30.6830 C   0  0  0  0  0  0  0  0  0  0  0  0
   23.7122    6.2837   29.9295 O   0  0  0  0  0  0  0  0  0  0  0  0
   24.8366    7.1177   29.6136 C   0  0  0  0  0  0  0  0  0  0  0  0
   25.6020    6.5485   29.0759 H   0  0  0  0  0  0  0  0  0  0  0  0
   24.5108    7.9440   28.9756 H   0  0  0  0  0  0  0  0  0  0  0  0
   25.2788    7.5378   30.5232 H   0  0  0  0  0  0  0  0  0  0  0  0
  1  2  1  0
  2  3  2  0
  3  4  1  0
  3  5  1  0
  5  6  1  0
  6  7  1  0
  7  8  1  0
  7  9  1  0
  7 10  1  0
  5 11  2  0
 11 12  1  0
 11 13  1  0
 13 14  1  0
 14 15  1  0
 14 16  1  0
 14 17  1  0
 17 18  2  0
 17 19  1  0
 19 20  1  0
 19 21  1  0
 21 22  2  0
 22 23  1  0
 23 24  1  0
 24 25  1  0
 24 26  1  0
 24 27  1  0
 27 28  1  0
 28 29  1  0
 28 30  1  0
 28 31  1  0
 31 32  1  0
 31 33  1  0
 31 34  1  0
 34 35  1  0
 35 36  1  0
 35 37  1  0
 35 38  1  0
 34 39  1  0
 39 40  1  0
 39 41  1  0
 39 42  1  0
 42 43  1  0
 42 44  1  0
 23 45  2  0
 45 46  1  0
 46 47  3  0
 45 48  1  0
 48 49  1  0
 49 50  1  0
 49 51  1  0
 48 52  2  0
 52 53  1  0
 13 54  2  0
 54 55  1  0
 55 56  1  0
 56 57  1  0
 56 58  1  0
 56 59  1  0
 54  2  1  0
 52 21  1  0
 42 27  1  0
M  END
>  <score>  (175) 
7.48923

$$$$

     RDKit          3D

 52 54  0  0  0  0  0  0  0  0999 V2000
   20.8434   14.4073   29.5227 H   0  0  0  0  0  0  0  0  0  0  0  0
   21.4322   13.5637   29.8548 C   0  0  0  0  0  0  0  0  0  0  0  0
   20.8125   12.4863   30.4817 C   0  0  0  0  0  0  0  0  0  0  0  0
   19.7363   12.5326   30.6234 H   0  0  0  0  0  0  0  0  0  0  0  0
   21.5692   11.3670   30.8780 C   0  0  0  0  0  0  0  0  0  0  0  0
   20.9260   10.1856   31.4925 C   0  0  0  0  0  0  0  0  0  0  0  0
   21.4368    8.9820   31.1932 N   0  0  0  0  0  0  0  0  0  0  0  0
   20.8314    7.9034   31.6443 C   0  0  0  0  0  0  0  0  0  0  0  0
   21.4573    6.7678   31.2771 N   0  0  0  0  0  0  0  0  0  0  0  0
   22.3343    6.9028   30.7979 H   0  0  0  0  0  0  0  0  0  0  0  0
   20.8443    5.5572   31.1604 C   0  0  0  0  0  0  0  0  0  0  0  0
   19.6922    5.4154   31.5439 O   0  0  0  0  0  0  0  0  0  0  0  0
   21.5504    4.4525   30.3878 C   0  0  0  0  0  0  0  0  0  0  0  0
   20.9783    3.5261   30.4785 H   0  0  0  0  0  0  0  0  0  0  0  0
   21.5759    4.7238   29.3323 H   0  0  0  0  0  0  0  0  0  0  0  0
   22.9584    4.2390   30.8939 C   0  0  0  0  0  0  0  0  0  0  0  0
   23.1911    3.1172   31.6914 C   0  0  0  0  0  0  0  0  0  0  0  0
   22.3771    2.4312   31.9005 H   0  0  0  0  0  0  0  0  0  0  0  0
   24.4517    2.8489   32.2418 C   0  0  0  0  0  0  0  0  0  0  0  0
   24.6692    1.7451   33.0351 O   0  0  0  0  0  0  0  0  0  0  0  0
   23.6020    0.7834   33.0766 C   0  0  0  0  0  0  0  0  0  0  0  0
   23.3754    0.4230   32.0673 H   0  0  0  0  0  0  0  0  0  0  0  0
   23.8887   -0.0721   33.6952 H   0  0  0  0  0  0  0  0  0  0  0  0
   22.6967    1.2307   33.5004 H   0  0  0  0  0  0  0  0  0  0  0  0
   25.5034    3.7418   31.9773 C   0  0  0  0  0  0  0  0  0  0  0  0
   27.2495    3.4585   32.7137 Br  0  0  0  0  0  0  0  0  0  0  0  0
   25.2816    4.8606   31.1658 C   0  0  0  0  0  0  0  0  0  0  0  0
   26.1029    5.5385   30.9583 H   0  0  0  0  0  0  0  0  0  0  0  0
   24.0161    5.1330   30.6177 C   0  0  0  0  0  0  0  0  0  0  0  0
   23.7890    6.2517   29.8446 O   0  0  0  0  0  0  0  0  0  0  0  0
   24.9255    7.1016   29.6144 C   0  0  0  0  0  0  0  0  0  0  0  0
   25.7220    6.5488   29.1051 H   0  0  0  0  0  0  0  0  0  0  0  0
   24.6416    7.9528   28.9888 H   0  0  0  0  0  0  0  0  0  0  0  0
   25.3156    7.4826   30.5639 H   0  0  0  0  0  0  0  0  0  0  0  0
   19.7100    7.9348   32.4225 C   0  0  0  0  0  0  0  0  0  0  0  0
   19.2511    7.0363   32.7969 H   0  0  0  0  0  0  0  0  0  0  0  0
   19.2224    9.1511   32.7620 C   0  0  0  0  0  0  0  0  0  0  0  0
   18.1809    9.1646   33.6089 N   0  0  0  0  0  0  0  0  0  0  0  0
   18.0627   10.0258   34.1284 H   0  0  0  0  0  0  0  0  0  0  0  0
   18.0036    8.2833   34.0830 H   0  0  0  0  0  0  0  0  0  0  0  0
   19.8077   10.3072   32.3157 C   0  0  0  0  0  0  0  0  0  0  0  0
   19.3168   11.5887   32.7126 C   0  0  0  0  0  0  0  0  0  0  0  0
   18.9541   12.6465   33.0259 N   0  0  0  0  0  0  0  0  0  0  0  0
   22.9561   11.3789   30.6554 C   0  0  0  0  0  0  0  0  0  0  0  0
   23.5360   10.5087   30.9620 H   0  0  0  0  0  0  0  0  0  0  0  0
   23.5936   12.5075   30.1113 C   0  0  0  0  0  0  0  0  0  0  0  0
   25.0989   12.6151   30.1746 C   0  0  0  0  0  0  0  0  0  0  0  0
   25.5643   13.7503   29.5858 F   0  0  0  0  0  0  0  0  0  0  0  0
   25.7101   11.5429   29.6023 F   0  0  0  0  0  0  0  0  0  0  0  0
   25.4091   12.6683   31.4961 F   0  0  0  0  0  0  0  0  0  0  0  0
   22.8108   13.5860   29.6761 C   0  0  0  0  0  0  0  0  0  0  0  0
   23.2739   14.4612   29.2282 H   0  0  0  0  0  0  0  0  0  0  0  0
  1  2  1  0
  2  3  2  0
  3  4  1  0
  3  5  1  0
  5  6  1  0
  6  7  2  0
  7  8  1  0
  8  9  1  0
  9 10  1  0
  9 11  1  0
 11 12  2  0
 11 13  1  0
 13 14  1  0
 13 15  1  0
 13 16  1  0
 16 17  2  0
 17 18  1  0
 17 19  1  0
 19 20  1  0
 20 21  1  0
 21 22  1  0
 21 23  1  0
 21 24  1  0
 19 25  2  0
 25 26  1  0
 25 27  1  0
 27 28  1  0
 27 29  2  0
 29 30  1  0
 30 31  1  0
 31 32  1  0
 31 33  1  0
 31 34  1  0
  8 35  2  0
 35 36  1  0
 35 37  1  0
 37 38  1  0
 38 39  1  0
 38 40  1  0
 37 41  2  0
 41 42  1  0
 42 43  3  0
  5 44  2  0
 44 45  1  0
 44 46  1  0
 46 47  1  0
 47 48  1  0
 47 49  1  0
 47 50  1  0
 46 51  2  0
 51 52  1  0
 51  2  1  0
 41  6  1  0
 29 16  1  0
M  END
>  <score>  (176) 
7.49252

$$$$

     RDKit          3D

 48 49  0  0  0  0  0  0  0  0999 V2000
   23.0304   14.9976   29.5314 H   0  0  0  0  0  0  0  0  0  0  0  0
   22.3686   14.4428   29.9671 O   0  0  0  0  0  0  0  0  0  0  0  0
   22.6217   13.2156   29.4686 C   0  0  0  0  0  0  0  0  0  0  0  0
   23.5108   12.9899   28.6706 O   0  0  0  0  0  0  0  0  0  0  0  0
   21.7402   12.0547   29.9352 C   0  0  0  0  0  0  0  0  0  0  0  0
   20.7344   12.4454   30.1077 H   0  0  0  0  0  0  0  0  0  0  0  0
   21.6833   11.3344   29.1163 H   0  0  0  0  0  0  0  0  0  0  0  0
   22.2639   11.3606   31.2229 C   0  0  0  0  0  0  0  0  0  0  0  0
   22.3384   12.0959   32.0288 H   0  0  0  0  0  0  0  0  0  0  0  0
   23.2645   10.9569   31.0489 H   0  0  0  0  0  0  0  0  0  0  0  0
   21.3846   10.2216   31.6947 C   0  0  0  0  0  0  0  0  0  0  0  0
   21.7499    8.9822   31.3564 N   0  0  0  0  0  0  0  0  0  0  0  0
   20.9984    7.9716   31.7414 C   0  0  0  0  0  0  0  0  0  0  0  0
   21.5762    6.8093   31.3664 N   0  0  0  0  0  0  0  0  0  0  0  0
   22.4795    6.9312   30.9341 H   0  0  0  0  0  0  0  0  0  0  0  0
   20.9054    5.6422   31.1240 C   0  0  0  0  0  0  0  0  0  0  0  0
   19.7194    5.5461   31.3914 O   0  0  0  0  0  0  0  0  0  0  0  0
   21.6139    4.5444   30.3320 C   0  0  0  0  0  0  0  0  0  0  0  0
   21.0067    3.6345   30.3217 H   0  0  0  0  0  0  0  0  0  0  0  0
   21.7157    4.8842   29.2992 H   0  0  0  0  0  0  0  0  0  0  0  0
   22.9937    4.2512   30.8834 C   0  0  0  0  0  0  0  0  0  0  0  0
   23.1775    3.1450   31.7308 C   0  0  0  0  0  0  0  0  0  0  0  0
   22.3419    2.5002   31.9802 H   0  0  0  0  0  0  0  0  0  0  0  0
   24.4382    2.8429   32.2729 C   0  0  0  0  0  0  0  0  0  0  0  0
   24.6640    1.7828   33.1230 O   0  0  0  0  0  0  0  0  0  0  0  0
   23.6901    0.7319   33.1421 C   0  0  0  0  0  0  0  0  0  0  0  0
   22.7515    1.0730   33.5862 H   0  0  0  0  0  0  0  0  0  0  0  0
   23.4986    0.3597   32.1315 H   0  0  0  0  0  0  0  0  0  0  0  0
   24.0710   -0.0966   33.7441 H   0  0  0  0  0  0  0  0  0  0  0  0
   25.5236    3.6726   31.9456 C   0  0  0  0  0  0  0  0  0  0  0  0
   27.2723    3.3028   32.6351 Br  0  0  0  0  0  0  0  0  0  0  0  0
   25.3453    4.7794   31.1017 C   0  0  0  0  0  0  0  0  0  0  0  0
   26.1914    5.4101   30.8465 H   0  0  0  0  0  0  0  0  0  0  0  0
   24.0846    5.0883   30.5688 C   0  0  0  0  0  0  0  0  0  0  0  0
   23.8620    6.1783   29.7544 O   0  0  0  0  0  0  0  0  0  0  0  0
   24.9317    7.1192   29.5865 C   0  0  0  0  0  0  0  0  0  0  0  0
   25.7799    6.6621   29.0697 H   0  0  0  0  0  0  0  0  0  0  0  0
   24.5810    7.9618   28.9853 H   0  0  0  0  0  0  0  0  0  0  0  0
   25.2636    7.5057   30.5540 H   0  0  0  0  0  0  0  0  0  0  0  0
   19.8494    8.1093   32.4667 C   0  0  0  0  0  0  0  0  0  0  0  0
   19.2437    7.2667   32.7595 H   0  0  0  0  0  0  0  0  0  0  0  0
   19.5172    9.3723   32.8536 C   0  0  0  0  0  0  0  0  0  0  0  0
   18.4412    9.4919   33.6593 N   0  0  0  0  0  0  0  0  0  0  0  0
   17.9065    8.6637   33.9057 H   0  0  0  0  0  0  0  0  0  0  0  0
   18.1392   10.4127   33.9542 H   0  0  0  0  0  0  0  0  0  0  0  0
   20.2669   10.4652   32.4783 C   0  0  0  0  0  0  0  0  0  0  0  0
   19.9442   11.7937   32.8853 C   0  0  0  0  0  0  0  0  0  0  0  0
   19.7057   12.8929   33.1924 N   0  0  0  0  0  0  0  0  0  0  0  0
  1  2  1  0
  2  3  1  0
  3  4  2  0
  3  5  1  0
  5  6  1  0
  5  7  1  0
  5  8  1  0
  8  9  1  0
  8 10  1  0
  8 11  1  0
 11 12  2  0
 12 13  1  0
 13 14  1  0
 14 15  1  0
 14 16  1  0
 16 17  2  0
 16 18  1  0
 18 19  1  0
 18 20  1  0
 18 21  1  0
 21 22  2  0
 22 23  1  0
 22 24  1  0
 24 25  1  0
 25 26  1  0
 26 27  1  0
 26 28  1  0
 26 29  1  0
 24 30  2  0
 30 31  1  0
 30 32  1  0
 32 33  1  0
 32 34  2  0
 34 35  1  0
 35 36  1  0
 36 37  1  0
 36 38  1  0
 36 39  1  0
 13 40  2  0
 40 41  1  0
 40 42  1  0
 42 43  1  0
 43 44  1  0
 43 45  1  0
 42 46  2  0
 46 47  1  0
 47 48  3  0
 46 11  1  0
 34 21  1  0
M  END
>  <score>  (177) 
7.49344

$$$$

     RDKit          3D

 60 62  0  0  0  0  0  0  0  0999 V2000
   26.1346    5.4860   30.8895 H   0  0  0  0  0  0  0  0  0  0  0  0
   25.3092    4.8204   31.1156 C   0  0  0  0  0  0  0  0  0  0  0  0
   25.5159    3.7151   31.9472 C   0  0  0  0  0  0  0  0  0  0  0  0
   27.2663    3.4146   32.6648 Br  0  0  0  0  0  0  0  0  0  0  0  0
   24.4477    2.8553   32.2510 C   0  0  0  0  0  0  0  0  0  0  0  0
   24.6698    1.7792   33.0778 O   0  0  0  0  0  0  0  0  0  0  0  0
   23.6429    0.7775   33.0981 C   0  0  0  0  0  0  0  0  0  0  0  0
   23.9658   -0.0731   33.7060 H   0  0  0  0  0  0  0  0  0  0  0  0
   23.4363    0.4203   32.0837 H   0  0  0  0  0  0  0  0  0  0  0  0
   22.7191    1.1812   33.5244 H   0  0  0  0  0  0  0  0  0  0  0  0
   23.1834    3.1322   31.7082 C   0  0  0  0  0  0  0  0  0  0  0  0
   22.3527    2.4797   31.9607 H   0  0  0  0  0  0  0  0  0  0  0  0
   22.9812    4.2305   30.8654 C   0  0  0  0  0  0  0  0  0  0  0  0
   21.5948    4.4903   30.3360 C   0  0  0  0  0  0  0  0  0  0  0  0
   20.9672    3.6027   30.4514 H   0  0  0  0  0  0  0  0  0  0  0  0
   21.6357    4.7438   29.2748 H   0  0  0  0  0  0  0  0  0  0  0  0
   20.9622    5.6451   31.0865 C   0  0  0  0  0  0  0  0  0  0  0  0
   19.8131    5.5559   31.4801 O   0  0  0  0  0  0  0  0  0  0  0  0
   21.6510    6.8056   31.2601 N   0  0  0  0  0  0  0  0  0  0  0  0
   22.5531    6.9185   30.8281 H   0  0  0  0  0  0  0  0  0  0  0  0
   21.1102    7.9486   31.6906 C   0  0  0  0  0  0  0  0  0  0  0  0
   21.8991    8.9481   31.4047 N   0  0  0  0  0  0  0  0  0  0  0  0
   21.5103   10.1416   31.7999 C   0  0  0  0  0  0  0  0  0  0  0  0
   22.3119   11.1979   31.4618 N   0  0  0  0  0  0  0  0  0  0  0  0
   21.8110   12.0753   31.5335 H   0  0  0  0  0  0  0  0  0  0  0  0
   23.4026   11.0820   30.4464 C   0  0  0  0  0  0  0  0  0  0  0  0
   24.1897   10.4086   30.8053 H   0  0  0  0  0  0  0  0  0  0  0  0
   22.9921   10.6456   29.5310 H   0  0  0  0  0  0  0  0  0  0  0  0
   24.0601   12.4352   30.0807 C   0  0  0  0  0  0  0  0  0  0  0  0
   23.2762   13.0859   29.6815 H   0  0  0  0  0  0  0  0  0  0  0  0
   24.4465   12.9056   30.9931 H   0  0  0  0  0  0  0  0  0  0  0  0
   25.1663   12.3110   29.0829 N   0  0  0  0  0  0  0  0  0  0  0  0
   26.3734   11.6405   29.5986 C   0  0  0  0  0  0  0  0  0  0  0  0
   26.8088   12.3128   30.3449 H   0  0  0  0  0  0  0  0  0  0  0  0
   26.1059   10.6768   30.0533 H   0  0  0  0  0  0  0  0  0  0  0  0
   27.4442   11.4223   28.5255 C   0  0  0  0  0  0  0  0  0  0  0  0
   28.3276   10.9670   28.9864 H   0  0  0  0  0  0  0  0  0  0  0  0
   27.0706   10.7358   27.7597 H   0  0  0  0  0  0  0  0  0  0  0  0
   27.8053   12.6818   27.9361 O   0  0  0  0  0  0  0  0  0  0  0  0
   26.6604   13.3443   27.3705 C   0  0  0  0  0  0  0  0  0  0  0  0
   26.2649   12.7415   26.5474 H   0  0  0  0  0  0  0  0  0  0  0  0
   26.9731   14.3080   26.9607 H   0  0  0  0  0  0  0  0  0  0  0  0
   25.5491   13.5759   28.4151 C   0  0  0  0  0  0  0  0  0  0  0  0
   25.9107   14.2882   29.1660 H   0  0  0  0  0  0  0  0  0  0  0  0
   24.6748   14.0154   27.9244 H   0  0  0  0  0  0  0  0  0  0  0  0
   20.3476   10.3827   32.4831 C   0  0  0  0  0  0  0  0  0  0  0  0
   19.9480   11.6903   32.8839 C   0  0  0  0  0  0  0  0  0  0  0  0
   19.6076   12.7548   33.2009 N   0  0  0  0  0  0  0  0  0  0  0  0
   19.5657    9.3033   32.7312 C   0  0  0  0  0  0  0  0  0  0  0  0
   18.4170    9.3932   33.4120 N   0  0  0  0  0  0  0  0  0  0  0  0
   17.9647    8.4988   33.5711 H   0  0  0  0  0  0  0  0  0  0  0  0
   18.3916   10.0932   34.1522 H   0  0  0  0  0  0  0  0  0  0  0  0
   19.9213    8.0614   32.3425 C   0  0  0  0  0  0  0  0  0  0  0  0
   19.3045    7.2118   32.5802 H   0  0  0  0  0  0  0  0  0  0  0  0
   24.0479    5.1020   30.5719 C   0  0  0  0  0  0  0  0  0  0  0  0
   23.8191    6.2168   29.7936 O   0  0  0  0  0  0  0  0  0  0  0  0
   24.9372    7.0993   29.6141 C   0  0  0  0  0  0  0  0  0  0  0  0
   25.2971    7.4690   30.5806 H   0  0  0  0  0  0  0  0  0  0  0  0
   25.7569    6.5760   29.1113 H   0  0  0  0  0  0  0  0  0  0  0  0
   24.6437    7.9573   29.0025 H   0  0  0  0  0  0  0  0  0  0  0  0
  1  2  1  0
  2  3  2  0
  3  4  1  0
  3  5  1  0
  5  6  1  0
  6  7  1  0
  7  8  1  0
  7  9  1  0
  7 10  1  0
  5 11  2  0
 11 12  1  0
 11 13  1  0
 13 14  1  0
 14 15  1  0
 14 16  1  0
 14 17  1  0
 17 18  2  0
 17 19  1  0
 19 20  1  0
 19 21  1  0
 21 22  2  0
 22 23  1  0
 23 24  1  0
 24 25  1  0
 24 26  1  0
 26 27  1  0
 26 28  1  0
 26 29  1  0
 29 30  1  0
 29 31  1  0
 29 32  1  0
 32 33  1  0
 33 34  1  0
 33 35  1  0
 33 36  1  0
 36 37  1  0
 36 38  1  0
 36 39  1  0
 39 40  1  0
 40 41  1  0
 40 42  1  0
 40 43  1  0
 43 44  1  0
 43 45  1  0
 23 46  2  0
 46 47  1  0
 47 48  3  0
 46 49  1  0
 49 50  1  0
 50 51  1  0
 50 52  1  0
 49 53  2  0
 53 54  1  0
 13 55  2  0
 55 56  1  0
 56 57  1  0
 57 58  1  0
 57 59  1  0
 57 60  1  0
 55  2  1  0
 53 21  1  0
 43 32  1  0
M  END
>  <score>  (178) 
7.49497

$$$$

     RDKit          3D

 50 52  0  0  0  0  0  0  0  0999 V2000
   26.1273    5.4601   30.8462 H   0  0  0  0  0  0  0  0  0  0  0  0
   25.2933    4.8147   31.0996 C   0  0  0  0  0  0  0  0  0  0  0  0
   25.4977    3.7209   31.9439 C   0  0  0  0  0  0  0  0  0  0  0  0
   27.2566    3.4122   32.6349 Br  0  0  0  0  0  0  0  0  0  0  0  0
   24.4300    2.8658   32.2608 C   0  0  0  0  0  0  0  0  0  0  0  0
   24.6665    1.7927   33.0896 O   0  0  0  0  0  0  0  0  0  0  0  0
   23.6605    0.7709   33.1087 C   0  0  0  0  0  0  0  0  0  0  0  0
   23.4600    0.4105   32.0944 H   0  0  0  0  0  0  0  0  0  0  0  0
   22.7300    1.1526   33.5399 H   0  0  0  0  0  0  0  0  0  0  0  0
   24.0041   -0.0733   33.7138 H   0  0  0  0  0  0  0  0  0  0  0  0
   23.1615    3.1411   31.7190 C   0  0  0  0  0  0  0  0  0  0  0  0
   22.3366    2.4812   31.9704 H   0  0  0  0  0  0  0  0  0  0  0  0
   22.9519    4.2431   30.8753 C   0  0  0  0  0  0  0  0  0  0  0  0
   21.5619    4.5240   30.3460 C   0  0  0  0  0  0  0  0  0  0  0  0
   21.6301    4.8076   29.2917 H   0  0  0  0  0  0  0  0  0  0  0  0
   20.9237    3.6414   30.4181 H   0  0  0  0  0  0  0  0  0  0  0  0
   20.9181    5.6647   31.1177 C   0  0  0  0  0  0  0  0  0  0  0  0
   19.8629    5.5195   31.7128 O   0  0  0  0  0  0  0  0  0  0  0  0
   21.5022    6.8875   31.0171 N   0  0  0  0  0  0  0  0  0  0  0  0
   22.3899    6.9706   30.5439 H   0  0  0  0  0  0  0  0  0  0  0  0
   21.0232    8.0341   31.5231 C   0  0  0  0  0  0  0  0  0  0  0  0
   21.7626    9.0312   31.1043 N   0  0  0  0  0  0  0  0  0  0  0  0
   21.4790   10.2808   31.4943 C   0  0  0  0  0  0  0  0  0  0  0  0
   22.2509   11.4259   30.8062 C   0  0  1  0  0  0  0  0  0  0  0  0
   21.4989   12.1271   30.4452 H   0  0  0  0  0  0  0  0  0  0  0  0
   23.1877   12.1566   31.6242 O   0  0  0  0  0  0  0  0  0  0  0  0
   24.5363   11.7186   31.3935 C   0  0  0  0  0  0  0  0  0  0  0  0
   25.1769   12.5769   31.1632 H   0  0  0  0  0  0  0  0  0  0  0  0
   24.9483   11.2379   32.2796 H   0  0  0  0  0  0  0  0  0  0  0  0
   24.4860   10.7331   30.2385 C   0  0  0  0  0  0  0  0  0  0  0  0
   24.5655    9.7049   30.5950 H   0  0  0  0  0  0  0  0  0  0  0  0
   25.3051   10.8993   29.5365 H   0  0  0  0  0  0  0  0  0  0  0  0
   23.1232   10.9721   29.6221 C   0  0  0  0  0  0  0  0  0  0  0  0
   22.7455   10.0928   29.0882 H   0  0  0  0  0  0  0  0  0  0  0  0
   23.1995   11.7781   28.8948 H   0  0  0  0  0  0  0  0  0  0  0  0
   20.4245   10.4969   32.3973 C   0  0  0  0  0  0  0  0  0  0  0  0
   20.0562   11.7971   32.8515 C   0  0  0  0  0  0  0  0  0  0  0  0
   19.6967   12.8304   33.2422 N   0  0  0  0  0  0  0  0  0  0  0  0
   19.6866    9.4128   32.8325 C   0  0  0  0  0  0  0  0  0  0  0  0
   18.6614    9.5122   33.7232 N   0  0  0  0  0  0  0  0  0  0  0  0
   18.0602    8.6954   33.8051 H   0  0  0  0  0  0  0  0  0  0  0  0
   18.2443   10.4316   33.8567 H   0  0  0  0  0  0  0  0  0  0  0  0
   19.9524    8.1659   32.3601 C   0  0  0  0  0  0  0  0  0  0  0  0
   19.3639    7.3193   32.6687 H   0  0  0  0  0  0  0  0  0  0  0  0
   24.0302    5.0974   30.5623 C   0  0  0  0  0  0  0  0  0  0  0  0
   23.8170    6.1938   29.7549 O   0  0  0  0  0  0  0  0  0  0  0  0
   24.9291    7.0905   29.6050 C   0  0  0  0  0  0  0  0  0  0  0  0
   25.2859    7.4204   30.5863 H   0  0  0  0  0  0  0  0  0  0  0  0
   24.6275    7.9715   29.0309 H   0  0  0  0  0  0  0  0  0  0  0  0
   25.7551    6.5982   29.0803 H   0  0  0  0  0  0  0  0  0  0  0  0
  1  2  1  0
  2  3  2  0
  3  4  1  0
  3  5  1  0
  5  6  1  0
  6  7  1  0
  7  8  1  0
  7  9  1  0
  7 10  1  0
  5 11  2  0
 11 12  1  0
 11 13  1  0
 13 14  1  0
 14 15  1  0
 14 16  1  0
 14 17  1  0
 17 18  2  0
 17 19  1  0
 19 20  1  0
 19 21  1  0
 21 22  2  0
 22 23  1  0
 23 24  1  0
 24 25  1  6
 24 26  1  0
 26 27  1  0
 27 28  1  0
 27 29  1  0
 27 30  1  0
 30 31  1  0
 30 32  1  0
 30 33  1  0
 33 34  1  0
 33 35  1  0
 23 36  2  0
 36 37  1  0
 37 38  3  0
 36 39  1  0
 39 40  1  0
 40 41  1  0
 40 42  1  0
 39 43  2  0
 43 44  1  0
 13 45  2  0
 45 46  1  0
 46 47  1  0
 47 48  1  0
 47 49  1  0
 47 50  1  0
 45  2  1  0
 43 21  1  0
 33 24  1  0
M  END
>  <score>  (179) 
7.49621

$$$$

     RDKit          3D

 58 60  0  0  0  0  0  0  0  0999 V2000
   23.6328   14.6585   27.3591 H   0  0  0  0  0  0  0  0  0  0  0  0
   24.0162   14.1355   28.2270 C   0  0  0  0  0  0  0  0  0  0  0  0
   23.2864   13.0993   28.8187 C   0  0  0  0  0  0  0  0  0  0  0  0
   22.3217   12.8351   28.3948 H   0  0  0  0  0  0  0  0  0  0  0  0
   23.8422   12.3688   29.8867 C   0  0  0  0  0  0  0  0  0  0  0  0
   23.2450   11.0756   30.3760 C   0  0  0  0  0  0  0  0  0  0  0  0
   22.9168   10.4946   29.5063 H   0  0  0  0  0  0  0  0  0  0  0  0
   24.0290   10.4956   30.8797 H   0  0  0  0  0  0  0  0  0  0  0  0
   22.1232   11.2588   31.3081 N   0  0  0  0  0  0  0  0  0  0  0  0
   21.8283   12.1888   31.5739 H   0  0  0  0  0  0  0  0  0  0  0  0
   21.3231   10.2155   31.6940 C   0  0  0  0  0  0  0  0  0  0  0  0
   21.6716    9.0260   31.2415 N   0  0  0  0  0  0  0  0  0  0  0  0
   20.9396    8.0042   31.5933 C   0  0  0  0  0  0  0  0  0  0  0  0
   21.4469    6.8778   31.0641 N   0  0  0  0  0  0  0  0  0  0  0  0
   22.2994    7.0084   30.5393 H   0  0  0  0  0  0  0  0  0  0  0  0
   20.8847    5.6386   31.1215 C   0  0  0  0  0  0  0  0  0  0  0  0
   19.8204    5.4682   31.6955 O   0  0  0  0  0  0  0  0  0  0  0  0
   21.5538    4.5080   30.3516 C   0  0  0  0  0  0  0  0  0  0  0  0
   21.6026    4.7892   29.2967 H   0  0  0  0  0  0  0  0  0  0  0  0
   20.9495    3.6004   30.4302 H   0  0  0  0  0  0  0  0  0  0  0  0
   22.9482    4.2526   30.8773 C   0  0  0  0  0  0  0  0  0  0  0  0
   23.1589    3.1490   31.7150 C   0  0  0  0  0  0  0  0  0  0  0  0
   22.3301    2.4929   31.9627 H   0  0  0  0  0  0  0  0  0  0  0  0
   24.4266    2.8694   32.2525 C   0  0  0  0  0  0  0  0  0  0  0  0
   24.6572    1.7934   33.0777 O   0  0  0  0  0  0  0  0  0  0  0  0
   23.6422    0.7801   33.0978 C   0  0  0  0  0  0  0  0  0  0  0  0
   22.7140    1.1702   33.5268 H   0  0  0  0  0  0  0  0  0  0  0  0
   23.4393    0.4191   32.0841 H   0  0  0  0  0  0  0  0  0  0  0  0
   23.9777   -0.0661   33.7050 H   0  0  0  0  0  0  0  0  0  0  0  0
   25.4941    3.7265   31.9429 C   0  0  0  0  0  0  0  0  0  0  0  0
   27.2482    3.4230   32.6508 Br  0  0  0  0  0  0  0  0  0  0  0  0
   25.2872    4.8265   31.1062 C   0  0  0  0  0  0  0  0  0  0  0  0
   26.1194    5.4799   30.8684 H   0  0  0  0  0  0  0  0  0  0  0  0
   24.0226    5.1125   30.5682 C   0  0  0  0  0  0  0  0  0  0  0  0
   23.8045    6.2160   29.7712 O   0  0  0  0  0  0  0  0  0  0  0  0
   24.9252    7.0992   29.6047 C   0  0  0  0  0  0  0  0  0  0  0  0
   24.6385    7.9615   28.9963 H   0  0  0  0  0  0  0  0  0  0  0  0
   25.2746    7.4620   30.5775 H   0  0  0  0  0  0  0  0  0  0  0  0
   25.7519    6.5814   29.1065 H   0  0  0  0  0  0  0  0  0  0  0  0
   19.8436    8.0905   32.4055 C   0  0  0  0  0  0  0  0  0  0  0  0
   19.2728    7.2201   32.6782 H   0  0  0  0  0  0  0  0  0  0  0  0
   19.5259    9.3274   32.8807 C   0  0  0  0  0  0  0  0  0  0  0  0
   18.4953    9.4247   33.7430 N   0  0  0  0  0  0  0  0  0  0  0  0
   17.8962    8.6084   33.8387 H   0  0  0  0  0  0  0  0  0  0  0  0
   18.1063   10.3518   33.8925 H   0  0  0  0  0  0  0  0  0  0  0  0
   20.2477   10.4306   32.5160 C   0  0  0  0  0  0  0  0  0  0  0  0
   19.9395   11.7457   32.9686 C   0  0  0  0  0  0  0  0  0  0  0  0
   19.7384   12.8417   33.3003 N   0  0  0  0  0  0  0  0  0  0  0  0
   25.0855   12.7644   30.4026 C   0  0  0  0  0  0  0  0  0  0  0  0
   25.5174   12.2348   31.2448 H   0  0  0  0  0  0  0  0  0  0  0  0
   25.8158   13.7806   29.7858 C   0  0  0  0  0  0  0  0  0  0  0  0
   26.8128   14.0413   30.1202 H   0  0  0  0  0  0  0  0  0  0  0  0
   25.2985   14.4495   28.6804 C   0  0  0  0  0  0  0  0  0  0  0  0
   26.0660   15.3604   28.0185 O   0  0  0  0  0  0  0  0  0  0  0  0
   25.6209   16.7103   28.1688 C   0  0  0  0  0  0  0  0  0  0  0  0
   25.7020   17.2206   27.2099 H   0  0  0  0  0  0  0  0  0  0  0  0
   24.5836   16.7869   28.5107 H   0  0  0  0  0  0  0  0  0  0  0  0
   26.2653   17.2217   28.8846 H   0  0  0  0  0  0  0  0  0  0  0  0
  1  2  1  0
  2  3  2  0
  3  4  1  0
  3  5  1  0
  5  6  1  0
  6  7  1  0
  6  8  1  0
  6  9  1  0
  9 10  1  0
  9 11  1  0
 11 12  2  0
 12 13  1  0
 13 14  1  0
 14 15  1  0
 14 16  1  0
 16 17  2  0
 16 18  1  0
 18 19  1  0
 18 20  1  0
 18 21  1  0
 21 22  2  0
 22 23  1  0
 22 24  1  0
 24 25  1  0
 25 26  1  0
 26 27  1  0
 26 28  1  0
 26 29  1  0
 24 30  2  0
 30 31  1  0
 30 32  1  0
 32 33  1  0
 32 34  2  0
 34 35  1  0
 35 36  1  0
 36 37  1  0
 36 38  1  0
 36 39  1  0
 13 40  2  0
 40 41  1  0
 40 42  1  0
 42 43  1  0
 43 44  1  0
 43 45  1  0
 42 46  2  0
 46 47  1  0
 47 48  3  0
  5 49  2  0
 49 50  1  0
 49 51  1  0
 51 52  1  0
 51 53  2  0
 53 54  1  0
 54 55  1  0
 55 56  1  0
 55 57  1  0
 55 58  1  0
 53  2  1  0
 46 11  1  0
 34 21  1  0
M  END
>  <score>  (180) 
7.49643

$$$$

     RDKit          3D

 54 56  0  0  0  0  0  0  0  0999 V2000
   26.1684    5.4344   30.8490 H   0  0  0  0  0  0  0  0  0  0  0  0
   25.3253    4.8000   31.1001 C   0  0  0  0  0  0  0  0  0  0  0  0
   25.5212    3.7033   31.9454 C   0  0  0  0  0  0  0  0  0  0  0  0
   27.2758    3.3624   32.6402 Br  0  0  0  0  0  0  0  0  0  0  0  0
   24.4432    2.8593   32.2647 C   0  0  0  0  0  0  0  0  0  0  0  0
   24.6702    1.7866   33.0985 O   0  0  0  0  0  0  0  0  0  0  0  0
   23.6714    0.7565   33.1200 C   0  0  0  0  0  0  0  0  0  0  0  0
   23.4704    0.3943   32.1080 H   0  0  0  0  0  0  0  0  0  0  0  0
   24.0234   -0.0870   33.7232 H   0  0  0  0  0  0  0  0  0  0  0  0
   22.7375    1.1272   33.5512 H   0  0  0  0  0  0  0  0  0  0  0  0
   23.1712    3.1529   31.7354 C   0  0  0  0  0  0  0  0  0  0  0  0
   22.3357    2.5050   31.9857 H   0  0  0  0  0  0  0  0  0  0  0  0
   22.9732    4.2679   30.9026 C   0  0  0  0  0  0  0  0  0  0  0  0
   21.5946    4.6023   30.3816 C   0  0  0  0  0  0  0  0  0  0  0  0
   21.6657    4.8985   29.3327 H   0  0  0  0  0  0  0  0  0  0  0  0
   20.9437    3.7319   30.4549 H   0  0  0  0  0  0  0  0  0  0  0  0
   20.9650    5.7585   31.1419 C   0  0  0  0  0  0  0  0  0  0  0  0
   19.7769    5.7234   31.4235 O   0  0  0  0  0  0  0  0  0  0  0  0
   21.6711    6.9134   31.3174 N   0  0  0  0  0  0  0  0  0  0  0  0
   22.5313    7.0312   30.8002 H   0  0  0  0  0  0  0  0  0  0  0  0
   21.1007    8.0644   31.7252 C   0  0  0  0  0  0  0  0  0  0  0  0
   21.8257    9.0940   31.3702 N   0  0  0  0  0  0  0  0  0  0  0  0
   21.3566   10.2742   31.7014 C   0  0  0  0  0  0  0  0  0  0  0  0
   22.2106   11.2443   31.2927 N   0  0  0  0  0  0  0  0  0  0  0  0
   23.0556   10.7732   30.9846 H   0  0  0  0  0  0  0  0  0  0  0  0
   21.7405   12.2567   30.3386 C   0  0  0  0  0  0  0  0  0  0  0  0
   20.6461   12.3658   30.3397 H   0  0  0  0  0  0  0  0  0  0  0  0
   22.2310   11.8635   28.9563 C   0  0  0  0  0  0  0  0  0  0  0  0
   23.2138   11.3864   29.0438 H   0  0  0  0  0  0  0  0  0  0  0  0
   21.5478   11.1586   28.4751 H   0  0  0  0  0  0  0  0  0  0  0  0
   22.3695   13.1640   28.1676 C   0  0  0  0  0  0  0  0  0  0  0  0
   23.2948   13.1564   27.5847 H   0  0  0  0  0  0  0  0  0  0  0  0
   21.5239   13.2789   27.4844 H   0  0  0  0  0  0  0  0  0  0  0  0
   22.3947   14.2974   29.1869 C   0  0  0  0  0  0  0  0  0  0  0  0
   21.5075   14.9271   29.0635 H   0  0  0  0  0  0  0  0  0  0  0  0
   23.2823   14.9251   29.0620 H   0  0  0  0  0  0  0  0  0  0  0  0
   22.3921   13.6180   30.5585 C   0  0  0  0  0  0  0  0  0  0  0  0
   23.4239   13.4824   30.9020 H   0  0  0  0  0  0  0  0  0  0  0  0
   21.8524   14.2086   31.3042 H   0  0  0  0  0  0  0  0  0  0  0  0
   20.2154   10.4947   32.4228 C   0  0  0  0  0  0  0  0  0  0  0  0
   19.8750   11.8124   32.8368 C   0  0  0  0  0  0  0  0  0  0  0  0
   19.6726   12.8919   33.2076 N   0  0  0  0  0  0  0  0  0  0  0  0
   19.5085    9.3948   32.8034 C   0  0  0  0  0  0  0  0  0  0  0  0
   18.4233    9.4969   33.6014 N   0  0  0  0  0  0  0  0  0  0  0  0
   18.1198   10.4137   33.9236 H   0  0  0  0  0  0  0  0  0  0  0  0
   17.9370    8.6496   33.8839 H   0  0  0  0  0  0  0  0  0  0  0  0
   19.9210    8.1533   32.4264 C   0  0  0  0  0  0  0  0  0  0  0  0
   19.3640    7.2761   32.7060 H   0  0  0  0  0  0  0  0  0  0  0  0
   24.0596    5.1015   30.5772 C   0  0  0  0  0  0  0  0  0  0  0  0
   23.8428    6.1945   29.7658 O   0  0  0  0  0  0  0  0  0  0  0  0
   24.9366    7.1054   29.5996 C   0  0  0  0  0  0  0  0  0  0  0  0
   25.2774    7.4719   30.5711 H   0  0  0  0  0  0  0  0  0  0  0  0
   24.6176    7.9597   28.9957 H   0  0  0  0  0  0  0  0  0  0  0  0
   25.7755    6.6162   29.0981 H   0  0  0  0  0  0  0  0  0  0  0  0
  1  2  1  0
  2  3  2  0
  3  4  1  0
  3  5  1  0
  5  6  1  0
  6  7  1  0
  7  8  1  0
  7  9  1  0
  7 10  1  0
  5 11  2  0
 11 12  1  0
 11 13  1  0
 13 14  1  0
 14 15  1  0
 14 16  1  0
 14 17  1  0
 17 18  2  0
 17 19  1  0
 19 20  1  0
 19 21  1  0
 21 22  2  0
 22 23  1  0
 23 24  1  0
 24 25  1  0
 24 26  1  0
 26 27  1  0
 26 28  1  0
 28 29  1  0
 28 30  1  0
 28 31  1  0
 31 32  1  0
 31 33  1  0
 31 34  1  0
 34 35  1  0
 34 36  1  0
 34 37  1  0
 37 38  1  0
 37 39  1  0
 23 40  2  0
 40 41  1  0
 41 42  3  0
 40 43  1  0
 43 44  1  0
 44 45  1  0
 44 46  1  0
 43 47  2  0
 47 48  1  0
 13 49  2  0
 49 50  1  0
 50 51  1  0
 51 52  1  0
 51 53  1  0
 51 54  1  0
 49  2  1  0
 47 21  1  0
 37 26  1  0
M  END
>  <score>  (181) 
7.49677

$$$$

     RDKit          3D

 61 63  0  0  0  0  0  0  0  0999 V2000
   26.1727    5.4306   30.8533 H   0  0  0  0  0  0  0  0  0  0  0  0
   25.3276    4.7978   31.1024 C   0  0  0  0  0  0  0  0  0  0  0  0
   25.5229    3.6983   31.9450 C   0  0  0  0  0  0  0  0  0  0  0  0
   27.2774    3.3601   32.6390 Br  0  0  0  0  0  0  0  0  0  0  0  0
   24.4453    2.8543   32.2662 C   0  0  0  0  0  0  0  0  0  0  0  0
   24.6727    1.7836   33.1028 O   0  0  0  0  0  0  0  0  0  0  0  0
   23.6759    0.7520   33.1240 C   0  0  0  0  0  0  0  0  0  0  0  0
   22.7421    1.1193   33.5568 H   0  0  0  0  0  0  0  0  0  0  0  0
   24.0298   -0.0897   33.7266 H   0  0  0  0  0  0  0  0  0  0  0  0
   23.4758    0.3887   32.1127 H   0  0  0  0  0  0  0  0  0  0  0  0
   23.1747    3.1469   31.7330 C   0  0  0  0  0  0  0  0  0  0  0  0
   22.3397    2.4986   31.9823 H   0  0  0  0  0  0  0  0  0  0  0  0
   22.9752    4.2587   30.8956 C   0  0  0  0  0  0  0  0  0  0  0  0
   21.5928    4.5769   30.3645 C   0  0  0  0  0  0  0  0  0  0  0  0
   20.9538    3.6949   30.4234 H   0  0  0  0  0  0  0  0  0  0  0  0
   21.6695    4.8892   29.3197 H   0  0  0  0  0  0  0  0  0  0  0  0
   20.9376    5.7147   31.1259 C   0  0  0  0  0  0  0  0  0  0  0  0
   19.7534    5.6572   31.4140 O   0  0  0  0  0  0  0  0  0  0  0  0
   21.6345    6.8710   31.2991 N   0  0  0  0  0  0  0  0  0  0  0  0
   22.5106    6.9715   30.8109 H   0  0  0  0  0  0  0  0  0  0  0  0
   21.0856    8.0215   31.7149 C   0  0  0  0  0  0  0  0  0  0  0  0
   21.8221    9.0392   31.3460 N   0  0  0  0  0  0  0  0  0  0  0  0
   21.4133   10.2569   31.6980 C   0  0  0  0  0  0  0  0  0  0  0  0
   22.1346   11.3642   31.3294 O   0  0  0  0  0  0  0  0  0  0  0  0
   23.2955   11.1598   30.5140 C   0  0  0  0  0  0  0  0  0  0  0  0
   23.0244   10.6553   29.5809 H   0  0  0  0  0  0  0  0  0  0  0  0
   24.0239   10.5308   31.0380 H   0  0  0  0  0  0  0  0  0  0  0  0
   23.9166   12.5221   30.1997 C   0  0  0  0  0  0  0  0  0  0  0  0
   24.8491   12.3754   29.6515 H   0  0  0  0  0  0  0  0  0  0  0  0
   24.1574   13.0389   31.1315 H   0  0  0  0  0  0  0  0  0  0  0  0
   22.9517   13.3816   29.3774 C   0  0  0  0  0  0  0  0  0  0  0  0
   22.6501   12.8365   28.4759 H   0  0  0  0  0  0  0  0  0  0  0  0
   22.0515   13.5663   29.9736 H   0  0  0  0  0  0  0  0  0  0  0  0
   23.5471   14.6788   28.9963 N   0  0  0  0  0  0  0  0  0  0  0  0
   24.7440   14.7175   28.1400 C   0  0  0  0  0  0  0  0  0  0  0  0
   25.6488   14.6008   28.7461 H   0  0  0  0  0  0  0  0  0  0  0  0
   24.7138   13.9271   27.3801 H   0  0  0  0  0  0  0  0  0  0  0  0
   24.7366   16.0884   27.4579 C   0  0  0  0  0  0  0  0  0  0  0  0
   24.7356   15.9724   26.3690 H   0  0  0  0  0  0  0  0  0  0  0  0
   25.6193   16.6710   27.7411 H   0  0  0  0  0  0  0  0  0  0  0  0
   23.4668   16.7976   27.9140 C   0  0  0  0  0  0  0  0  0  0  0  0
   23.7146   17.5801   28.6353 H   0  0  0  0  0  0  0  0  0  0  0  0
   22.9387   17.2588   27.0733 H   0  0  0  0  0  0  0  0  0  0  0  0
   22.6126   15.7315   28.5798 C   0  0  0  0  0  0  0  0  0  0  0  0
   22.0730   16.1434   29.4384 H   0  0  0  0  0  0  0  0  0  0  0  0
   21.8924   15.3339   27.8639 H   0  0  0  0  0  0  0  0  0  0  0  0
   20.2824   10.4563   32.4566 C   0  0  0  0  0  0  0  0  0  0  0  0
   19.9285   11.7705   32.8673 C   0  0  0  0  0  0  0  0  0  0  0  0
   19.6944   12.8487   33.2247 N   0  0  0  0  0  0  0  0  0  0  0  0
   19.5545    9.3699   32.8280 C   0  0  0  0  0  0  0  0  0  0  0  0
   18.4685    9.4935   33.6152 N   0  0  0  0  0  0  0  0  0  0  0  0
   18.1600   10.4176   33.9054 H   0  0  0  0  0  0  0  0  0  0  0  0
   17.9474    8.6578   33.8654 H   0  0  0  0  0  0  0  0  0  0  0  0
   19.9319    8.1309   32.4387 C   0  0  0  0  0  0  0  0  0  0  0  0
   19.3507    7.2711   32.7147 H   0  0  0  0  0  0  0  0  0  0  0  0
   24.0614    5.0977   30.5775 C   0  0  0  0  0  0  0  0  0  0  0  0
   23.8413    6.1913   29.7687 O   0  0  0  0  0  0  0  0  0  0  0  0
   24.9336    7.1042   29.6005 C   0  0  0  0  0  0  0  0  0  0  0  0
   24.6123    7.9568   28.9969 H   0  0  0  0  0  0  0  0  0  0  0  0
   25.2753    7.4748   30.5697 H   0  0  0  0  0  0  0  0  0  0  0  0
   25.7723    6.6187   29.0958 H   0  0  0  0  0  0  0  0  0  0  0  0
  1  2  1  0
  2  3  2  0
  3  4  1  0
  3  5  1  0
  5  6  1  0
  6  7  1  0
  7  8  1  0
  7  9  1  0
  7 10  1  0
  5 11  2  0
 11 12  1  0
 11 13  1  0
 13 14  1  0
 14 15  1  0
 14 16  1  0
 14 17  1  0
 17 18  2  0
 17 19  1  0
 19 20  1  0
 19 21  1  0
 21 22  2  0
 22 23  1  0
 23 24  1  0
 24 25  1  0
 25 26  1  0
 25 27  1  0
 25 28  1  0
 28 29  1  0
 28 30  1  0
 28 31  1  0
 31 32  1  0
 31 33  1  0
 31 34  1  0
 34 35  1  0
 35 36  1  0
 35 37  1  0
 35 38  1  0
 38 39  1  0
 38 40  1  0
 38 41  1  0
 41 42  1  0
 41 43  1  0
 41 44  1  0
 44 45  1  0
 44 46  1  0
 23 47  2  0
 47 48  1  0
 48 49  3  0
 47 50  1  0
 50 51  1  0
 51 52  1  0
 51 53  1  0
 50 54  2  0
 54 55  1  0
 13 56  2  0
 56 57  1  0
 57 58  1  0
 58 59  1  0
 58 60  1  0
 58 61  1  0
 56  2  1  0
 54 21  1  0
 44 34  1  0
M  END
>  <score>  (182) 
7.49992

$$$$

     RDKit          3D

 51 52  0  0  0  0  0  0  0  0999 V2000
   26.1571    5.4335   30.8421 H   0  0  0  0  0  0  0  0  0  0  0  0
   25.3114    4.8055   31.0985 C   0  0  0  0  0  0  0  0  0  0  0  0
   25.5070    3.7069   31.9390 C   0  0  0  0  0  0  0  0  0  0  0  0
   27.2602    3.3569   32.6310 Br  0  0  0  0  0  0  0  0  0  0  0  0
   24.4272    2.8680   32.2625 C   0  0  0  0  0  0  0  0  0  0  0  0
   24.6612    1.7970   33.0954 O   0  0  0  0  0  0  0  0  0  0  0  0
   23.6733    0.7539   33.1223 C   0  0  0  0  0  0  0  0  0  0  0  0
   22.7358    1.1145   33.5588 H   0  0  0  0  0  0  0  0  0  0  0  0
   23.4741    0.3855   32.1104 H   0  0  0  0  0  0  0  0  0  0  0  0
   24.0378   -0.0854   33.7275 H   0  0  0  0  0  0  0  0  0  0  0  0
   23.1571    3.1574   31.7287 C   0  0  0  0  0  0  0  0  0  0  0  0
   22.3253    2.5038   31.9748 H   0  0  0  0  0  0  0  0  0  0  0  0
   22.9605    4.2690   30.8888 C   0  0  0  0  0  0  0  0  0  0  0  0
   21.5906    4.5778   30.3287 C   0  0  0  0  0  0  0  0  0  0  0  0
   21.6856    4.8493   29.2706 H   0  0  0  0  0  0  0  0  0  0  0  0
   20.9385    3.7053   30.3960 H   0  0  0  0  0  0  0  0  0  0  0  0
   20.9462    5.7313   31.0845 C   0  0  0  0  0  0  0  0  0  0  0  0
   19.8920    5.5705   31.6763 O   0  0  0  0  0  0  0  0  0  0  0  0
   21.5059    6.9716   31.0040 N   0  0  0  0  0  0  0  0  0  0  0  0
   22.3680    7.0902   30.4929 H   0  0  0  0  0  0  0  0  0  0  0  0
   20.9967    8.0920   31.5549 C   0  0  0  0  0  0  0  0  0  0  0  0
   21.7333    9.1219   31.2405 N   0  0  0  0  0  0  0  0  0  0  0  0
   21.3269   10.2759   31.7031 C   0  0  0  0  0  0  0  0  0  0  0  0
   22.2128   11.2306   31.3463 N   0  0  0  0  0  0  0  0  0  0  0  0
   23.0381   10.7219   31.0446 H   0  0  0  0  0  0  0  0  0  0  0  0
   21.7624   12.2734   30.3980 C   0  0  0  0  0  0  0  0  0  0  0  0
   20.6726   12.3863   30.4172 H   0  0  0  0  0  0  0  0  0  0  0  0
   22.0513   11.9565   29.3887 H   0  0  0  0  0  0  0  0  0  0  0  0
   22.4133   13.6282   30.7153 C   0  0  0  0  0  0  0  0  0  0  0  0
   23.5000   13.5052   30.6664 H   0  0  0  0  0  0  0  0  0  0  0  0
   22.1594   13.9171   31.7428 H   0  0  0  0  0  0  0  0  0  0  0  0
   22.0207   14.6528   29.7749 O   0  0  0  0  0  0  0  0  0  0  0  0
   20.9098   15.4579   30.2014 C   0  0  0  0  0  0  0  0  0  0  0  0
   20.6896   16.2223   29.4462 H   0  0  0  0  0  0  0  0  0  0  0  0
   20.0190   14.8357   30.3591 H   0  0  0  0  0  0  0  0  0  0  0  0
   21.1429   15.9767   31.1363 H   0  0  0  0  0  0  0  0  0  0  0  0
   20.2200   10.4910   32.4702 C   0  0  0  0  0  0  0  0  0  0  0  0
   19.9047   11.8094   32.8979 C   0  0  0  0  0  0  0  0  0  0  0  0
   19.6998   12.9110   33.2052 N   0  0  0  0  0  0  0  0  0  0  0  0
   19.5217    9.3813   32.8287 C   0  0  0  0  0  0  0  0  0  0  0  0
   18.5004    9.4733   33.6995 N   0  0  0  0  0  0  0  0  0  0  0  0
   18.1480   10.4054   33.9140 H   0  0  0  0  0  0  0  0  0  0  0  0
   17.9401    8.6424   33.8743 H   0  0  0  0  0  0  0  0  0  0  0  0
   19.8848    8.1530   32.3634 C   0  0  0  0  0  0  0  0  0  0  0  0
   19.3367    7.2731   32.6440 H   0  0  0  0  0  0  0  0  0  0  0  0
   24.0470    5.1072   30.5718 C   0  0  0  0  0  0  0  0  0  0  0  0
   23.8347    6.1931   29.7491 O   0  0  0  0  0  0  0  0  0  0  0  0
   24.9325    7.1064   29.5934 C   0  0  0  0  0  0  0  0  0  0  0  0
   25.7783    6.6227   29.0917 H   0  0  0  0  0  0  0  0  0  0  0  0
   25.2677    7.4733   30.5698 H   0  0  0  0  0  0  0  0  0  0  0  0
   24.6151    7.9633   28.9903 H   0  0  0  0  0  0  0  0  0  0  0  0
  1  2  1  0
  2  3  2  0
  3  4  1  0
  3  5  1  0
  5  6  1  0
  6  7  1  0
  7  8  1  0
  7  9  1  0
  7 10  1  0
  5 11  2  0
 11 12  1  0
 11 13  1  0
 13 14  1  0
 14 15  1  0
 14 16  1  0
 14 17  1  0
 17 18  2  0
 17 19  1  0
 19 20  1  0
 19 21  1  0
 21 22  2  0
 22 23  1  0
 23 24  1  0
 24 25  1  0
 24 26  1  0
 26 27  1  0
 26 28  1  0
 26 29  1  0
 29 30  1  0
 29 31  1  0
 29 32  1  0
 32 33  1  0
 33 34  1  0
 33 35  1  0
 33 36  1  0
 23 37  2  0
 37 38  1  0
 38 39  3  0
 37 40  1  0
 40 41  1  0
 41 42  1  0
 41 43  1  0
 40 44  2  0
 44 45  1  0
 13 46  2  0
 46 47  1  0
 47 48  1  0
 48 49  1  0
 48 50  1  0
 48 51  1  0
 46  2  1  0
 44 21  1  0
M  END
>  <score>  (183) 
7.50033

$$$$

     RDKit          3D

 55 57  0  0  0  0  0  0  0  0999 V2000
   25.6271   10.0308   25.2866 H   0  0  0  0  0  0  0  0  0  0  0  0
   25.0011   10.0745   26.1709 C   0  0  0  0  0  0  0  0  0  0  0  0
   25.5415   10.5195   27.3836 C   0  0  0  0  0  0  0  0  0  0  0  0
   26.5893   10.8005   27.4773 H   0  0  0  0  0  0  0  0  0  0  0  0
   24.7129   10.5979   28.5009 C   0  0  0  0  0  0  0  0  0  0  0  0
   25.1031   10.9228   29.4555 H   0  0  0  0  0  0  0  0  0  0  0  0
   23.3706   10.2381   28.4243 C   0  0  0  0  0  0  0  0  0  0  0  0
   22.5704   10.3417   29.5502 N   0  0  0  0  0  0  0  0  0  0  0  0
   21.7069    9.8110   29.5753 H   0  0  0  0  0  0  0  0  0  0  0  0
   22.7192   11.3284   30.5082 C   0  0  0  0  0  0  0  0  0  0  0  0
   23.8987   12.4883   30.4879 S   0  0  0  0  0  0  0  0  0  0  0  0
   21.8106   11.4229   31.5154 N   0  0  0  0  0  0  0  0  0  0  0  0
   22.0005   12.1361   32.2023 H   0  0  0  0  0  0  0  0  0  0  0  0
   21.1645   10.3059   31.9470 C   0  0  0  0  0  0  0  0  0  0  0  0
   21.5796    9.1494   31.4500 N   0  0  0  0  0  0  0  0  0  0  0  0
   20.9304    8.0689   31.7961 C   0  0  0  0  0  0  0  0  0  0  0  0
   21.4461    6.9806   31.1926 N   0  0  0  0  0  0  0  0  0  0  0  0
   22.2770    7.1431   30.6438 H   0  0  0  0  0  0  0  0  0  0  0  0
   20.8450    5.7560   31.1608 C   0  0  0  0  0  0  0  0  0  0  0  0
   19.7365    5.6239   31.6565 O   0  0  0  0  0  0  0  0  0  0  0  0
   21.5113    4.5894   30.4327 C   0  0  0  0  0  0  0  0  0  0  0  0
   20.9083    3.6885   30.5827 H   0  0  0  0  0  0  0  0  0  0  0  0
   21.5331    4.7971   29.3605 H   0  0  0  0  0  0  0  0  0  0  0  0
   22.9186    4.3366   30.9322 C   0  0  0  0  0  0  0  0  0  0  0  0
   23.1425    3.1966   31.7154 C   0  0  0  0  0  0  0  0  0  0  0  0
   22.3212    2.5195   31.9277 H   0  0  0  0  0  0  0  0  0  0  0  0
   24.4093    2.8978   32.2397 C   0  0  0  0  0  0  0  0  0  0  0  0
   24.6362    1.7879   33.0210 O   0  0  0  0  0  0  0  0  0  0  0  0
   23.5833    0.8116   33.0599 C   0  0  0  0  0  0  0  0  0  0  0  0
   23.3614    0.4437   32.0522 H   0  0  0  0  0  0  0  0  0  0  0  0
   23.8859   -0.0394   33.6766 H   0  0  0  0  0  0  0  0  0  0  0  0
   22.6723    1.2400   33.4900 H   0  0  0  0  0  0  0  0  0  0  0  0
   25.4712    3.7726   31.9646 C   0  0  0  0  0  0  0  0  0  0  0  0
   27.2224    3.4507   32.6649 Br  0  0  0  0  0  0  0  0  0  0  0  0
   25.2579    4.9032   31.1680 C   0  0  0  0  0  0  0  0  0  0  0  0
   26.0828    5.5733   30.9544 H   0  0  0  0  0  0  0  0  0  0  0  0
   23.9919    5.2040   30.6377 C   0  0  0  0  0  0  0  0  0  0  0  0
   23.7722    6.3237   29.8621 O   0  0  0  0  0  0  0  0  0  0  0  0
   24.9250    7.1449   29.6030 C   0  0  0  0  0  0  0  0  0  0  0  0
   25.7043    6.5663   29.0930 H   0  0  0  0  0  0  0  0  0  0  0  0
   24.6536    7.9893   28.9636 H   0  0  0  0  0  0  0  0  0  0  0  0
   25.3337    7.5425   30.5393 H   0  0  0  0  0  0  0  0  0  0  0  0
   19.8607    8.0706   32.6436 C   0  0  0  0  0  0  0  0  0  0  0  0
   19.3047    7.1849   32.8926 H   0  0  0  0  0  0  0  0  0  0  0  0
   19.4827    9.2622   33.1601 C   0  0  0  0  0  0  0  0  0  0  0  0
   18.3691    9.2357   33.9069 N   0  0  0  0  0  0  0  0  0  0  0  0
   17.8596   10.1123   33.9298 H   0  0  0  0  0  0  0  0  0  0  0  0
   17.8233    8.3858   33.7861 H   0  0  0  0  0  0  0  0  0  0  0  0
   20.1227   10.4241   32.8324 C   0  0  0  0  0  0  0  0  0  0  0  0
   19.6845   11.6957   33.3092 C   0  0  0  0  0  0  0  0  0  0  0  0
   19.3181   12.7393   33.6694 N   0  0  0  0  0  0  0  0  0  0  0  0
   22.8552    9.7221   27.2347 C   0  0  0  0  0  0  0  0  0  0  0  0
   21.8184    9.4111   27.1920 H   0  0  0  0  0  0  0  0  0  0  0  0
   23.6608    9.6643   26.0907 C   0  0  0  0  0  0  0  0  0  0  0  0
   23.2501    9.3123   25.1453 H   0  0  0  0  0  0  0  0  0  0  0  0
  1  2  1  0
  2  3  2  0
  3  4  1  0
  3  5  1  0
  5  6  1  0
  5  7  2  0
  7  8  1  0
  8  9  1  0
  8 10  1  0
 10 11  2  0
 10 12  1  0
 12 13  1  0
 12 14  1  0
 14 15  2  0
 15 16  1  0
 16 17  1  0
 17 18  1  0
 17 19  1  0
 19 20  2  0
 19 21  1  0
 21 22  1  0
 21 23  1  0
 21 24  1  0
 24 25  2  0
 25 26  1  0
 25 27  1  0
 27 28  1  0
 28 29  1  0
 29 30  1  0
 29 31  1  0
 29 32  1  0
 27 33  2  0
 33 34  1  0
 33 35  1  0
 35 36  1  0
 35 37  2  0
 37 38  1  0
 38 39  1  0
 39 40  1  0
 39 41  1  0
 39 42  1  0
 16 43  2  0
 43 44  1  0
 43 45  1  0
 45 46  1  0
 46 47  1  0
 46 48  1  0
 45 49  2  0
 49 50  1  0
 50 51  3  0
  7 52  1  0
 52 53  1  0
 52 54  2  0
 54 55  1  0
 54  2  1  0
 49 14  1  0
 37 24  1  0
M  END
>  <score>  (184) 
7.50048

$$$$

     RDKit          3D

 49 51  0  0  0  0  0  0  0  0999 V2000
   21.2381   12.4203   27.1082 H   0  0  0  0  0  0  0  0  0  0  0  0
   21.3422   12.5096   28.1738 C   0  0  0  0  0  0  0  0  0  0  0  0
   20.8546   13.5697   28.9219 N   0  0  0  0  0  0  0  0  0  0  0  0
   21.1870   13.2892   30.1564 C   0  0  0  0  0  0  0  0  0  0  0  0
   20.9572   13.9150   31.0139 H   0  0  0  0  0  0  0  0  0  0  0  0
   21.8616   12.0743   30.2293 N   0  0  0  0  0  0  0  0  0  0  0  0
   22.3066   11.3965   31.4548 C   0  0  0  0  0  0  0  0  0  0  0  0
   22.2849   12.1178   32.2799 H   0  0  0  0  0  0  0  0  0  0  0  0
   23.3328   11.0330   31.3393 H   0  0  0  0  0  0  0  0  0  0  0  0
   21.4055   10.2283   31.7876 C   0  0  0  0  0  0  0  0  0  0  0  0
   21.7499    9.0188   31.3337 N   0  0  0  0  0  0  0  0  0  0  0  0
   20.9982    7.9778   31.6383 C   0  0  0  0  0  0  0  0  0  0  0  0
   21.4977    6.8389   31.1089 N   0  0  0  0  0  0  0  0  0  0  0  0
   22.3441    6.9510   30.5728 H   0  0  0  0  0  0  0  0  0  0  0  0
   20.8962    5.6125   31.1546 C   0  0  0  0  0  0  0  0  0  0  0  0
   19.8344    5.4603   31.7349 O   0  0  0  0  0  0  0  0  0  0  0  0
   21.5315    4.4730   30.3707 C   0  0  0  0  0  0  0  0  0  0  0  0
   20.9368    3.5570   30.4678 H   0  0  0  0  0  0  0  0  0  0  0  0
   21.5464    4.7522   29.3164 H   0  0  0  0  0  0  0  0  0  0  0  0
   22.9351    4.2342   30.8685 C   0  0  0  0  0  0  0  0  0  0  0  0
   23.1561    3.1395   31.7063 C   0  0  0  0  0  0  0  0  0  0  0  0
   22.3260    2.4844   31.9526 H   0  0  0  0  0  0  0  0  0  0  0  0
   24.4238    2.8718   32.2478 C   0  0  0  0  0  0  0  0  0  0  0  0
   24.6558    1.7931   33.0659 O   0  0  0  0  0  0  0  0  0  0  0  0
   23.6260    0.7947   33.0817 C   0  0  0  0  0  0  0  0  0  0  0  0
   22.7037    1.2022   33.5077 H   0  0  0  0  0  0  0  0  0  0  0  0
   23.4197    0.4360   32.0670 H   0  0  0  0  0  0  0  0  0  0  0  0
   23.9460   -0.0541   33.6907 H   0  0  0  0  0  0  0  0  0  0  0  0
   25.4824    3.7419   31.9442 C   0  0  0  0  0  0  0  0  0  0  0  0
   27.2372    3.4739   32.6592 Br  0  0  0  0  0  0  0  0  0  0  0  0
   25.2644    4.8381   31.1097 C   0  0  0  0  0  0  0  0  0  0  0  0
   26.0883    5.5073   30.8838 H   0  0  0  0  0  0  0  0  0  0  0  0
   23.9990    5.1100   30.5656 C   0  0  0  0  0  0  0  0  0  0  0  0
   23.7773    6.2236   29.7855 O   0  0  0  0  0  0  0  0  0  0  0  0
   24.9166    7.0831   29.6137 C   0  0  0  0  0  0  0  0  0  0  0  0
   25.2768    7.4435   30.5841 H   0  0  0  0  0  0  0  0  0  0  0  0
   25.7267    6.5384   29.1178 H   0  0  0  0  0  0  0  0  0  0  0  0
   24.6580    7.9493   29.0013 H   0  0  0  0  0  0  0  0  0  0  0  0
   19.8728    8.0634   32.4074 C   0  0  0  0  0  0  0  0  0  0  0  0
   19.2740    7.1957   32.6247 H   0  0  0  0  0  0  0  0  0  0  0  0
   19.5404    9.2899   32.8903 C   0  0  0  0  0  0  0  0  0  0  0  0
   18.4901    9.3608   33.7328 N   0  0  0  0  0  0  0  0  0  0  0  0
   17.8970    8.5347   33.7920 H   0  0  0  0  0  0  0  0  0  0  0  0
   18.0929   10.2842   33.8780 H   0  0  0  0  0  0  0  0  0  0  0  0
   20.2726   10.4065   32.5668 C   0  0  0  0  0  0  0  0  0  0  0  0
   19.9095   11.7064   33.0295 C   0  0  0  0  0  0  0  0  0  0  0  0
   19.6481   12.7771   33.3995 N   0  0  0  0  0  0  0  0  0  0  0  0
   21.9651   11.5818   28.9484 C   0  0  0  0  0  0  0  0  0  0  0  0
   22.4107   10.6536   28.6019 H   0  0  0  0  0  0  0  0  0  0  0  0
  1  2  1  0
  2  3  1  0
  3  4  2  0
  4  5  1  0
  4  6  1  0
  6  7  1  0
  7  8  1  0
  7  9  1  0
  7 10  1  0
 10 11  2  0
 11 12  1  0
 12 13  1  0
 13 14  1  0
 13 15  1  0
 15 16  2  0
 15 17  1  0
 17 18  1  0
 17 19  1  0
 17 20  1  0
 20 21  2  0
 21 22  1  0
 21 23  1  0
 23 24  1  0
 24 25  1  0
 25 26  1  0
 25 27  1  0
 25 28  1  0
 23 29  2  0
 29 30  1  0
 29 31  1  0
 31 32  1  0
 31 33  2  0
 33 34  1  0
 34 35  1  0
 35 36  1  0
 35 37  1  0
 35 38  1  0
 12 39  2  0
 39 40  1  0
 39 41  1  0
 41 42  1  0
 42 43  1  0
 42 44  1  0
 41 45  2  0
 45 46  1  0
 46 47  3  0
  6 48  1  0
 48 49  1  0
 48  2  2  0
 45 10  1  0
 33 20  1  0
M  END
>  <score>  (185) 
7.50332

$$$$

     RDKit          3D

 43 44  0  0  0  0  0  0  0  0999 V2000
   26.1892    5.4133   30.8446 H   0  0  0  0  0  0  0  0  0  0  0  0
   25.3446    4.7805   31.1005 C   0  0  0  0  0  0  0  0  0  0  0  0
   25.5235    3.6739   31.9459 C   0  0  0  0  0  0  0  0  0  0  0  0
   27.2725    3.3015   32.6358 Br  0  0  0  0  0  0  0  0  0  0  0  0
   24.4386    2.8430   32.2729 C   0  0  0  0  0  0  0  0  0  0  0  0
   24.6632    1.7823   33.1237 O   0  0  0  0  0  0  0  0  0  0  0  0
   23.6899    0.7319   33.1422 C   0  0  0  0  0  0  0  0  0  0  0  0
   23.4984    0.3606   32.1320 H   0  0  0  0  0  0  0  0  0  0  0  0
   22.7515    1.0728   33.5853 H   0  0  0  0  0  0  0  0  0  0  0  0
   24.0709   -0.0963   33.7438 H   0  0  0  0  0  0  0  0  0  0  0  0
   23.1773    3.1448   31.7313 C   0  0  0  0  0  0  0  0  0  0  0  0
   22.3433    2.4979   31.9810 H   0  0  0  0  0  0  0  0  0  0  0  0
   22.9923    4.2517   30.8836 C   0  0  0  0  0  0  0  0  0  0  0  0
   21.6137    4.5473   30.3342 C   0  0  0  0  0  0  0  0  0  0  0  0
   21.0068    3.6376   30.3225 H   0  0  0  0  0  0  0  0  0  0  0  0
   21.7176    4.8848   29.3015 H   0  0  0  0  0  0  0  0  0  0  0  0
   20.9114    5.6492   31.1287 C   0  0  0  0  0  0  0  0  0  0  0  0
   19.7229    5.5660   31.3892 O   0  0  0  0  0  0  0  0  0  0  0  0
   21.5760    6.8148   31.3727 N   0  0  0  0  0  0  0  0  0  0  0  0
   22.4730    6.9408   30.9279 H   0  0  0  0  0  0  0  0  0  0  0  0
   20.9959    7.9789   31.7250 C   0  0  0  0  0  0  0  0  0  0  0  0
   21.7430    8.9925   31.3382 N   0  0  0  0  0  0  0  0  0  0  0  0
   21.3961   10.2354   31.6906 C   0  0  0  0  0  0  0  0  0  0  0  0
   22.2307   11.4014   31.2331 C   0  0  0  0  0  0  0  0  0  0  0  0
   21.6667   11.9677   30.4926 H   0  0  0  0  0  0  0  0  0  0  0  0
   22.4330   12.0594   32.0779 H   0  0  0  0  0  0  0  0  0  0  0  0
   23.5017   10.9860   30.6456 C   0  0  0  0  0  0  0  0  0  0  0  0
   24.5076   10.6512   30.1667 N   0  0  0  0  0  0  0  0  0  0  0  0
   20.2770   10.4711   32.4728 C   0  0  0  0  0  0  0  0  0  0  0  0
   19.9411   11.7967   32.8916 C   0  0  0  0  0  0  0  0  0  0  0  0
   19.7020   12.8937   33.1987 N   0  0  0  0  0  0  0  0  0  0  0  0
   19.5271    9.3774   32.8403 C   0  0  0  0  0  0  0  0  0  0  0  0
   18.4614    9.4942   33.6552 N   0  0  0  0  0  0  0  0  0  0  0  0
   17.9251    8.6661   33.8931 H   0  0  0  0  0  0  0  0  0  0  0  0
   18.1519   10.4145   33.9438 H   0  0  0  0  0  0  0  0  0  0  0  0
   19.8516    8.1133   32.4539 C   0  0  0  0  0  0  0  0  0  0  0  0
   19.2483    7.2724   32.7610 H   0  0  0  0  0  0  0  0  0  0  0  0
   24.0837    5.0887   30.5684 C   0  0  0  0  0  0  0  0  0  0  0  0
   23.8634    6.1797   29.7540 O   0  0  0  0  0  0  0  0  0  0  0  0
   24.9312    7.1220   29.5867 C   0  0  0  0  0  0  0  0  0  0  0  0
   25.7826    6.6636   29.0781 H   0  0  0  0  0  0  0  0  0  0  0  0
   25.2577    7.5133   30.5531 H   0  0  0  0  0  0  0  0  0  0  0  0
   24.5830    7.9611   28.9793 H   0  0  0  0  0  0  0  0  0  0  0  0
  1  2  1  0
  2  3  2  0
  3  4  1  0
  3  5  1  0
  5  6  1  0
  6  7  1  0
  7  8  1  0
  7  9  1  0
  7 10  1  0
  5 11  2  0
 11 12  1  0
 11 13  1  0
 13 14  1  0
 14 15  1  0
 14 16  1  0
 14 17  1  0
 17 18  2  0
 17 19  1  0
 19 20  1  0
 19 21  1  0
 21 22  2  0
 22 23  1  0
 23 24  1  0
 24 25  1  0
 24 26  1  0
 24 27  1  0
 27 28  3  0
 23 29  2  0
 29 30  1  0
 30 31  3  0
 29 32  1  0
 32 33  1  0
 33 34  1  0
 33 35  1  0
 32 36  2  0
 36 37  1  0
 13 38  2  0
 38 39  1  0
 39 40  1  0
 40 41  1  0
 40 42  1  0
 40 43  1  0
 38  2  1  0
 36 21  1  0
M  END
>  <score>  (186) 
7.50521

$$$$

     RDKit          3D

 51 52  0  0  0  0  0  0  0  0999 V2000
   26.1784    5.4182   30.8441 H   0  0  0  0  0  0  0  0  0  0  0  0
   25.3374    4.7842   31.1018 C   0  0  0  0  0  0  0  0  0  0  0  0
   25.5213    3.6802   31.9450 C   0  0  0  0  0  0  0  0  0  0  0  0
   27.2707    3.3181   32.6362 Br  0  0  0  0  0  0  0  0  0  0  0  0
   24.4387    2.8490   32.2717 C   0  0  0  0  0  0  0  0  0  0  0  0
   24.6667    1.7866   33.1166 O   0  0  0  0  0  0  0  0  0  0  0  0
   23.6856    0.7398   33.1360 C   0  0  0  0  0  0  0  0  0  0  0  0
   24.0584   -0.0949   33.7390 H   0  0  0  0  0  0  0  0  0  0  0  0
   23.4914    0.3693   32.1232 H   0  0  0  0  0  0  0  0  0  0  0  0
   22.7458    1.0880   33.5777 H   0  0  0  0  0  0  0  0  0  0  0  0
   23.1764    3.1445   31.7326 C   0  0  0  0  0  0  0  0  0  0  0  0
   22.3413    2.4979   31.9825 H   0  0  0  0  0  0  0  0  0  0  0  0
   22.9904    4.2521   30.8901 C   0  0  0  0  0  0  0  0  0  0  0  0
   21.6111    4.5481   30.3453 C   0  0  0  0  0  0  0  0  0  0  0  0
   21.6998    4.8928   29.3137 H   0  0  0  0  0  0  0  0  0  0  0  0
   20.9945    3.6461   30.3490 H   0  0  0  0  0  0  0  0  0  0  0  0
   20.9148    5.6491   31.1377 C   0  0  0  0  0  0  0  0  0  0  0  0
   19.7225    5.5762   31.3864 O   0  0  0  0  0  0  0  0  0  0  0  0
   21.5911    6.8117   31.3725 N   0  0  0  0  0  0  0  0  0  0  0  0
   22.4672    6.9395   30.8910 H   0  0  0  0  0  0  0  0  0  0  0  0
   21.0049    7.9737   31.7268 C   0  0  0  0  0  0  0  0  0  0  0  0
   21.7463    8.9819   31.3220 N   0  0  0  0  0  0  0  0  0  0  0  0
   21.3964   10.2275   31.6577 C   0  0  0  0  0  0  0  0  0  0  0  0
   22.2793   11.3924   31.2262 C   0  0  1  0  0  0  0  0  0  0  0  0
   22.2409   12.1399   32.0223 H   0  0  0  0  0  0  0  0  0  0  0  0
   23.7495   10.9916   31.0231 C   0  0  0  0  0  0  0  0  0  0  0  0
   23.8237   10.2182   30.2512 H   0  0  0  0  0  0  0  0  0  0  0  0
   24.1805   10.5991   31.9494 H   0  0  0  0  0  0  0  0  0  0  0  0
   24.3386   11.8586   30.7018 H   0  0  0  0  0  0  0  0  0  0  0  0
   21.7701   12.0653   29.9396 C   0  0  0  0  0  0  0  0  0  0  0  0
   20.7381   12.3991   30.0787 H   0  0  0  0  0  0  0  0  0  0  0  0
   22.3834   12.9500   29.7272 H   0  0  0  0  0  0  0  0  0  0  0  0
   21.8383   11.1313   28.7315 C   0  0  0  0  0  0  0  0  0  0  0  0
   21.3691   11.6008   27.8612 H   0  0  0  0  0  0  0  0  0  0  0  0
   22.8773   10.9068   28.4803 H   0  0  0  0  0  0  0  0  0  0  0  0
   21.3239   10.1895   28.9399 H   0  0  0  0  0  0  0  0  0  0  0  0
   20.2754   10.4610   32.4406 C   0  0  0  0  0  0  0  0  0  0  0  0
   19.9453   11.7831   32.8652 C   0  0  0  0  0  0  0  0  0  0  0  0
   19.7065   12.8690   33.2025 N   0  0  0  0  0  0  0  0  0  0  0  0
   19.5270    9.3754   32.8315 C   0  0  0  0  0  0  0  0  0  0  0  0
   18.4654    9.4929   33.6574 N   0  0  0  0  0  0  0  0  0  0  0  0
   17.9211    8.6639   33.8931 H   0  0  0  0  0  0  0  0  0  0  0  0
   18.1551   10.4206   33.9292 H   0  0  0  0  0  0  0  0  0  0  0  0
   19.8542    8.1134   32.4526 C   0  0  0  0  0  0  0  0  0  0  0  0
   19.2597    7.2700   32.7649 H   0  0  0  0  0  0  0  0  0  0  0  0
   24.0769    5.0906   30.5699 C   0  0  0  0  0  0  0  0  0  0  0  0
   23.8532    6.1796   29.7523 O   0  0  0  0  0  0  0  0  0  0  0  0
   24.9312    7.1149   29.5896 C   0  0  0  0  0  0  0  0  0  0  0  0
   25.2605    7.5017   30.5611 H   0  0  0  0  0  0  0  0  0  0  0  0
   25.7839    6.6503   29.0809 H   0  0  0  0  0  0  0  0  0  0  0  0
   24.5925    7.9606   28.9829 H   0  0  0  0  0  0  0  0  0  0  0  0
  1  2  1  0
  2  3  2  0
  3  4  1  0
  3  5  1  0
  5  6  1  0
  6  7  1  0
  7  8  1  0
  7  9  1  0
  7 10  1  0
  5 11  2  0
 11 12  1  0
 11 13  1  0
 13 14  1  0
 14 15  1  0
 14 16  1  0
 14 17  1  0
 17 18  2  0
 17 19  1  0
 19 20  1  0
 19 21  1  0
 21 22  2  0
 22 23  1  0
 23 24  1  0
 24 25  1  1
 24 26  1  0
 26 27  1  0
 26 28  1  0
 26 29  1  0
 24 30  1  0
 30 31  1  0
 30 32  1  0
 30 33  1  0
 33 34  1  0
 33 35  1  0
 33 36  1  0
 23 37  2  0
 37 38  1  0
 38 39  3  0
 37 40  1  0
 40 41  1  0
 41 42  1  0
 41 43  1  0
 40 44  2  0
 44 45  1  0
 13 46  2  0
 46 47  1  0
 47 48  1  0
 48 49  1  0
 48 50  1  0
 48 51  1  0
 46  2  1  0
 44 21  1  0
M  END
>  <score>  (187) 
7.50583

$$$$

     RDKit          3D

 56 57  0  0  0  0  0  0  0  0999 V2000
   25.5550   10.0473   26.5789 H   0  0  0  0  0  0  0  0  0  0  0  0
   24.6379   10.1438   26.9036 O   0  0  0  0  0  0  0  0  0  0  0  0
   24.5110   10.9992   28.0552 N   0  0  0  0  0  0  0  0  0  0  0  0
   24.1685   10.5733   28.9114 H   0  0  0  0  0  0  0  0  0  0  0  0
   24.3391   12.3824   28.0064 C   0  0  0  0  0  0  0  0  0  0  0  0
   24.5973   13.0529   27.0176 O   0  0  0  0  0  0  0  0  0  0  0  0
   23.9918   13.1373   29.2819 C   0  0  0  0  0  0  0  0  0  0  0  0
   24.4739   12.6367   30.1208 H   0  0  0  0  0  0  0  0  0  0  0  0
   24.4246   14.1401   29.2135 H   0  0  0  0  0  0  0  0  0  0  0  0
   22.4844   13.3044   29.5192 C   0  0  0  0  0  0  0  0  0  0  0  0
   22.3500   14.0266   30.3306 H   0  0  0  0  0  0  0  0  0  0  0  0
   22.0225   13.7464   28.6294 H   0  0  0  0  0  0  0  0  0  0  0  0
   21.7492   12.0062   29.8747 C   0  0  0  0  0  0  0  0  0  0  0  0
   21.8406   11.2897   29.0514 H   0  0  0  0  0  0  0  0  0  0  0  0
   20.6867   12.2477   29.9850 H   0  0  0  0  0  0  0  0  0  0  0  0
   22.2646   11.3848   31.1821 C   0  0  0  0  0  0  0  0  0  0  0  0
   22.2906   12.1429   31.9688 H   0  0  0  0  0  0  0  0  0  0  0  0
   23.2838   11.0129   31.0414 H   0  0  0  0  0  0  0  0  0  0  0  0
   21.3813   10.2509   31.6253 C   0  0  0  0  0  0  0  0  0  0  0  0
   21.7097    9.0377   31.1901 N   0  0  0  0  0  0  0  0  0  0  0  0
   20.9638    8.0215   31.5553 C   0  0  0  0  0  0  0  0  0  0  0  0
   21.4684    6.8940   31.0236 N   0  0  0  0  0  0  0  0  0  0  0  0
   22.3311    7.0171   30.5133 H   0  0  0  0  0  0  0  0  0  0  0  0
   20.9109    5.6562   31.0949 C   0  0  0  0  0  0  0  0  0  0  0  0
   19.8498    5.4880   31.6764 O   0  0  0  0  0  0  0  0  0  0  0  0
   21.5790    4.5265   30.3276 C   0  0  0  0  0  0  0  0  0  0  0  0
   20.9481    3.6368   30.3834 H   0  0  0  0  0  0  0  0  0  0  0  0
   21.6597    4.8161   29.2756 H   0  0  0  0  0  0  0  0  0  0  0  0
   22.9618    4.2502   30.8760 C   0  0  0  0  0  0  0  0  0  0  0  0
   23.1599    3.1478   31.7221 C   0  0  0  0  0  0  0  0  0  0  0  0
   22.3289    2.4953   31.9706 H   0  0  0  0  0  0  0  0  0  0  0  0
   24.4260    2.8641   32.2625 C   0  0  0  0  0  0  0  0  0  0  0  0
   24.6616    1.7933   33.0938 O   0  0  0  0  0  0  0  0  0  0  0  0
   23.6668    0.7609   33.1156 C   0  0  0  0  0  0  0  0  0  0  0  0
   24.0243   -0.0781   33.7214 H   0  0  0  0  0  0  0  0  0  0  0  0
   23.4685    0.3948   32.1024 H   0  0  0  0  0  0  0  0  0  0  0  0
   22.7336    1.1309   33.5520 H   0  0  0  0  0  0  0  0  0  0  0  0
   25.4993    3.7112   31.9437 C   0  0  0  0  0  0  0  0  0  0  0  0
   27.2561    3.3820   32.6317 Br  0  0  0  0  0  0  0  0  0  0  0  0
   25.3038    4.8088   31.1003 C   0  0  0  0  0  0  0  0  0  0  0  0
   26.1426    5.4478   30.8471 H   0  0  0  0  0  0  0  0  0  0  0  0
   24.0419    5.1010   30.5639 C   0  0  0  0  0  0  0  0  0  0  0  0
   23.8245    6.1950   29.7534 O   0  0  0  0  0  0  0  0  0  0  0  0
   24.9273    7.1003   29.5946 C   0  0  0  0  0  0  0  0  0  0  0  0
   24.6213    7.9539   28.9814 H   0  0  0  0  0  0  0  0  0  0  0  0
   25.7705    6.6028   29.1024 H   0  0  0  0  0  0  0  0  0  0  0  0
   25.2575    7.4726   30.5706 H   0  0  0  0  0  0  0  0  0  0  0  0
   19.8723    8.1161   32.3815 C   0  0  0  0  0  0  0  0  0  0  0  0
   19.2984    7.2512   32.6740 H   0  0  0  0  0  0  0  0  0  0  0  0
   19.5609    9.3574   32.8561 C   0  0  0  0  0  0  0  0  0  0  0  0
   18.5329    9.4638   33.7415 N   0  0  0  0  0  0  0  0  0  0  0  0
   17.9285    8.6540   33.8673 H   0  0  0  0  0  0  0  0  0  0  0  0
   18.1472   10.3914   33.9028 H   0  0  0  0  0  0  0  0  0  0  0  0
   20.2920   10.4572   32.4655 C   0  0  0  0  0  0  0  0  0  0  0  0
   19.9525   11.7679   32.9124 C   0  0  0  0  0  0  0  0  0  0  0  0
   19.6983   12.8524   33.2470 N   0  0  0  0  0  0  0  0  0  0  0  0
  1  2  1  0
  2  3  1  0
  3  4  1  0
  3  5  1  0
  5  6  2  0
  5  7  1  0
  7  8  1  0
  7  9  1  0
  7 10  1  0
 10 11  1  0
 10 12  1  0
 10 13  1  0
 13 14  1  0
 13 15  1  0
 13 16  1  0
 16 17  1  0
 16 18  1  0
 16 19  1  0
 19 20  2  0
 20 21  1  0
 21 22  1  0
 22 23  1  0
 22 24  1  0
 24 25  2  0
 24 26  1  0
 26 27  1  0
 26 28  1  0
 26 29  1  0
 29 30  2  0
 30 31  1  0
 30 32  1  0
 32 33  1  0
 33 34  1  0
 34 35  1  0
 34 36  1  0
 34 37  1  0
 32 38  2  0
 38 39  1  0
 38 40  1  0
 40 41  1  0
 40 42  2  0
 42 43  1  0
 43 44  1  0
 44 45  1  0
 44 46  1  0
 44 47  1  0
 21 48  2  0
 48 49  1  0
 48 50  1  0
 50 51  1  0
 51 52  1  0
 51 53  1  0
 50 54  2  0
 54 55  1  0
 55 56  3  0
 54 19  1  0
 42 29  1  0
M  END
>  <score>  (188) 
7.50762

$$$$

     RDKit          3D

 46 47  0  0  0  0  0  0  0  0999 V2000
   21.5398   14.0007   30.8347 H   0  0  0  0  0  0  0  0  0  0  0  0
   21.3728   13.3634   29.9697 C   0  0  0  0  0  0  0  0  0  0  0  0
   20.9504   13.8325   29.0837 H   0  0  0  0  0  0  0  0  0  0  0  0
   21.6884   12.0241   29.9856 C   0  0  0  0  0  0  0  0  0  0  0  0
   21.5171   11.4340   29.0865 H   0  0  0  0  0  0  0  0  0  0  0  0
   22.2613   11.3601   31.2152 C   0  0  0  0  0  0  0  0  0  0  0  0
   23.2499   10.9593   30.9824 H   0  0  0  0  0  0  0  0  0  0  0  0
   22.3769   12.1032   32.0111 H   0  0  0  0  0  0  0  0  0  0  0  0
   21.3863   10.2278   31.6935 C   0  0  0  0  0  0  0  0  0  0  0  0
   21.7510    8.9852   31.3546 N   0  0  0  0  0  0  0  0  0  0  0  0
   20.9995    7.9727   31.7359 C   0  0  0  0  0  0  0  0  0  0  0  0
   21.5670    6.8078   31.3710 N   0  0  0  0  0  0  0  0  0  0  0  0
   22.4794    6.9251   30.9521 H   0  0  0  0  0  0  0  0  0  0  0  0
   20.9085    5.6406   31.1262 C   0  0  0  0  0  0  0  0  0  0  0  0
   19.7218    5.5453   31.3927 O   0  0  0  0  0  0  0  0  0  0  0  0
   21.6162    4.5439   30.3305 C   0  0  0  0  0  0  0  0  0  0  0  0
   21.7214    4.8834   29.2984 H   0  0  0  0  0  0  0  0  0  0  0  0
   21.0136    3.6319   30.3172 H   0  0  0  0  0  0  0  0  0  0  0  0
   22.9927    4.2520   30.8828 C   0  0  0  0  0  0  0  0  0  0  0  0
   23.1752    3.1469   31.7320 C   0  0  0  0  0  0  0  0  0  0  0  0
   22.3378    2.5042   31.9798 H   0  0  0  0  0  0  0  0  0  0  0  0
   24.4367    2.8436   32.2729 C   0  0  0  0  0  0  0  0  0  0  0  0
   24.6617    1.7830   33.1231 O   0  0  0  0  0  0  0  0  0  0  0  0
   23.6904    0.7308   33.1428 C   0  0  0  0  0  0  0  0  0  0  0  0
   23.4989    0.3582   32.1329 H   0  0  0  0  0  0  0  0  0  0  0  0
   24.0747   -0.0960   33.7450 H   0  0  0  0  0  0  0  0  0  0  0  0
   22.7518    1.0706   33.5869 H   0  0  0  0  0  0  0  0  0  0  0  0
   25.5230    3.6721   31.9464 C   0  0  0  0  0  0  0  0  0  0  0  0
   27.2709    3.2961   32.6353 Br  0  0  0  0  0  0  0  0  0  0  0  0
   25.3454    4.7777   31.1003 C   0  0  0  0  0  0  0  0  0  0  0  0
   26.1922    5.4077   30.8451 H   0  0  0  0  0  0  0  0  0  0  0  0
   24.0847    5.0882   30.5679 C   0  0  0  0  0  0  0  0  0  0  0  0
   23.8667    6.1782   29.7508 O   0  0  0  0  0  0  0  0  0  0  0  0
   24.9322    7.1225   29.5842 C   0  0  0  0  0  0  0  0  0  0  0  0
   24.5783    7.9642   28.9835 H   0  0  0  0  0  0  0  0  0  0  0  0
   25.7811    6.6674   29.0688 H   0  0  0  0  0  0  0  0  0  0  0  0
   25.2624    7.5076   30.5517 H   0  0  0  0  0  0  0  0  0  0  0  0
   19.8491    8.1106   32.4605 C   0  0  0  0  0  0  0  0  0  0  0  0
   19.2425    7.2694   32.7602 H   0  0  0  0  0  0  0  0  0  0  0  0
   19.5214    9.3759   32.8498 C   0  0  0  0  0  0  0  0  0  0  0  0
   18.4528    9.4954   33.6603 N   0  0  0  0  0  0  0  0  0  0  0  0
   18.1424   10.4151   33.9514 H   0  0  0  0  0  0  0  0  0  0  0  0
   17.9174    8.6675   33.8976 H   0  0  0  0  0  0  0  0  0  0  0  0
   20.2711   10.4685   32.4797 C   0  0  0  0  0  0  0  0  0  0  0  0
   19.9457   11.8002   32.8886 C   0  0  0  0  0  0  0  0  0  0  0  0
   19.7093   12.8997   33.1898 N   0  0  0  0  0  0  0  0  0  0  0  0
  1  2  1  0
  2  3  1  0
  2  4  2  0
  4  5  1  0
  4  6  1  0
  6  7  1  0
  6  8  1  0
  6  9  1  0
  9 10  2  0
 10 11  1  0
 11 12  1  0
 12 13  1  0
 12 14  1  0
 14 15  2  0
 14 16  1  0
 16 17  1  0
 16 18  1  0
 16 19  1  0
 19 20  2  0
 20 21  1  0
 20 22  1  0
 22 23  1  0
 23 24  1  0
 24 25  1  0
 24 26  1  0
 24 27  1  0
 22 28  2  0
 28 29  1  0
 28 30  1  0
 30 31  1  0
 30 32  2  0
 32 33  1  0
 33 34  1  0
 34 35  1  0
 34 36  1  0
 34 37  1  0
 11 38  2  0
 38 39  1  0
 38 40  1  0
 40 41  1  0
 41 42  1  0
 41 43  1  0
 40 44  2  0
 44 45  1  0
 45 46  3  0
 44  9  1  0
 32 19  1  0
M  END
>  <score>  (189) 
7.50987

$$$$

     RDKit          3D

 46 48  0  0  0  0  0  0  0  0999 V2000
   23.2958   10.3590   29.4932 H   0  0  0  0  0  0  0  0  0  0  0  0
   23.2005   11.2462   30.1078 C   0  0  0  0  0  0  0  0  0  0  0  0
   23.9278   12.3279   29.9687 N   0  0  0  0  0  0  0  0  0  0  0  0
   23.4761   13.1890   30.9227 N   0  0  0  0  0  0  0  0  0  0  0  0
   23.8610   14.1248   31.0560 H   0  0  0  0  0  0  0  0  0  0  0  0
   22.4614   12.6495   31.7000 C   0  0  0  0  0  0  0  0  0  0  0  0
   21.9743   13.1146   32.5560 H   0  0  0  0  0  0  0  0  0  0  0  0
   22.2693   11.3936   31.2006 C   0  0  0  0  0  0  0  0  0  0  0  0
   21.3822   10.3294   31.6242 C   0  0  0  0  0  0  0  0  0  0  0  0
   21.7441    9.1148   31.2243 N   0  0  0  0  0  0  0  0  0  0  0  0
   21.0344    8.0991   31.6484 C   0  0  0  0  0  0  0  0  0  0  0  0
   21.5917    6.9395   31.2660 N   0  0  0  0  0  0  0  0  0  0  0  0
   22.4773    7.0225   30.7836 H   0  0  0  0  0  0  0  0  0  0  0  0
   20.9107    5.7569   31.2121 C   0  0  0  0  0  0  0  0  0  0  0  0
   19.7684    5.6705   31.6365 O   0  0  0  0  0  0  0  0  0  0  0  0
   21.5130    4.5877   30.4532 C   0  0  0  0  0  0  0  0  0  0  0  0
   21.5209    4.8078   29.3813 H   0  0  0  0  0  0  0  0  0  0  0  0
   20.8841    3.7082   30.6128 H   0  0  0  0  0  0  0  0  0  0  0  0
   22.9153    4.3110   30.9335 C   0  0  0  0  0  0  0  0  0  0  0  0
   23.1298    3.1942   31.7494 C   0  0  0  0  0  0  0  0  0  0  0  0
   22.2974    2.5445   32.0029 H   0  0  0  0  0  0  0  0  0  0  0  0
   24.4046    2.8939   32.2560 C   0  0  0  0  0  0  0  0  0  0  0  0
   24.6432    1.7892   33.0383 O   0  0  0  0  0  0  0  0  0  0  0  0
   23.6018    0.8039   33.0667 C   0  0  0  0  0  0  0  0  0  0  0  0
   22.6869    1.2270   33.4953 H   0  0  0  0  0  0  0  0  0  0  0  0
   23.3870    0.4429   32.0541 H   0  0  0  0  0  0  0  0  0  0  0  0
   23.9170   -0.0451   33.6811 H   0  0  0  0  0  0  0  0  0  0  0  0
   25.4697    3.7531   31.9510 C   0  0  0  0  0  0  0  0  0  0  0  0
   27.2252    3.4350   32.6391 Br  0  0  0  0  0  0  0  0  0  0  0  0
   25.2583    4.8646   31.1350 C   0  0  0  0  0  0  0  0  0  0  0  0
   26.0910    5.5129   30.8875 H   0  0  0  0  0  0  0  0  0  0  0  0
   23.9901    5.1687   30.6210 C   0  0  0  0  0  0  0  0  0  0  0  0
   23.7807    6.2890   29.8450 O   0  0  0  0  0  0  0  0  0  0  0  0
   24.9330    7.1177   29.6211 C   0  0  0  0  0  0  0  0  0  0  0  0
   25.3230    7.4857   30.5764 H   0  0  0  0  0  0  0  0  0  0  0  0
   24.6713    7.9758   28.9939 H   0  0  0  0  0  0  0  0  0  0  0  0
   25.7209    6.5454   29.1194 H   0  0  0  0  0  0  0  0  0  0  0  0
   19.9190    8.2099   32.4345 C   0  0  0  0  0  0  0  0  0  0  0  0
   19.3569    7.3471   32.7551 H   0  0  0  0  0  0  0  0  0  0  0  0
   19.5278    9.4590   32.7850 C   0  0  0  0  0  0  0  0  0  0  0  0
   18.3920    9.5618   33.5005 N   0  0  0  0  0  0  0  0  0  0  0  0
   18.1529    8.7442   34.0592 H   0  0  0  0  0  0  0  0  0  0  0  0
   18.1570   10.4881   33.8383 H   0  0  0  0  0  0  0  0  0  0  0  0
   20.2652   10.5580   32.4188 C   0  0  0  0  0  0  0  0  0  0  0  0
   19.9168   11.8773   32.8343 C   0  0  0  0  0  0  0  0  0  0  0  0
   19.6844   12.9704   33.1581 N   0  0  0  0  0  0  0  0  0  0  0  0
  1  2  1  0
  2  3  2  0
  3  4  1  0
  4  5  1  0
  4  6  1  0
  6  7  1  0
  6  8  2  0
  8  9  1  0
  9 10  2  0
 10 11  1  0
 11 12  1  0
 12 13  1  0
 12 14  1  0
 14 15  2  0
 14 16  1  0
 16 17  1  0
 16 18  1  0
 16 19  1  0
 19 20  2  0
 20 21  1  0
 20 22  1  0
 22 23  1  0
 23 24  1  0
 24 25  1  0
 24 26  1  0
 24 27  1  0
 22 28  2  0
 28 29  1  0
 28 30  1  0
 30 31  1  0
 30 32  2  0
 32 33  1  0
 33 34  1  0
 34 35  1  0
 34 36  1  0
 34 37  1  0
 11 38  2  0
 38 39  1  0
 38 40  1  0
 40 41  1  0
 41 42  1  0
 41 43  1  0
 40 44  2  0
 44 45  1  0
 45 46  3  0
  8  2  1  0
 44  9  1  0
 32 19  1  0
M  END
>  <score>  (190) 
7.51107

$$$$

     RDKit          3D

 54 56  0  0  0  0  0  0  0  0999 V2000
   24.3400   16.1568   27.8073 H   0  0  0  0  0  0  0  0  0  0  0  0
   23.7841   15.3578   28.2855 C   0  0  0  0  0  0  0  0  0  0  0  0
   22.3988   15.2882   28.1262 C   0  0  0  0  0  0  0  0  0  0  0  0
   21.8817   16.0477   27.5477 H   0  0  0  0  0  0  0  0  0  0  0  0
   21.6898   14.2423   28.7276 C   0  0  0  0  0  0  0  0  0  0  0  0
   20.6206   14.1320   28.6087 H   0  0  0  0  0  0  0  0  0  0  0  0
   22.3518   13.3015   29.5037 C   0  0  0  0  0  0  0  0  0  0  0  0
   21.6117   12.2903   30.0876 N   0  0  0  0  0  0  0  0  0  0  0  0
   20.6860   12.1148   29.6977 H   0  0  0  0  0  0  0  0  0  0  0  0
   22.1840   11.4082   31.1372 C   0  0  0  0  0  0  0  0  0  0  0  0
   22.4084   12.0255   32.0106 H   0  0  0  0  0  0  0  0  0  0  0  0
   23.1282   10.9950   30.7692 H   0  0  0  0  0  0  0  0  0  0  0  0
   21.3231   10.2417   31.6021 C   0  0  0  0  0  0  0  0  0  0  0  0
   21.6907    9.0182   31.2007 N   0  0  0  0  0  0  0  0  0  0  0  0
   20.9730    7.9853   31.5834 C   0  0  0  0  0  0  0  0  0  0  0  0
   21.5054    6.8474   31.0976 N   0  0  0  0  0  0  0  0  0  0  0  0
   22.3614    6.9597   30.5753 H   0  0  0  0  0  0  0  0  0  0  0  0
   20.9132    5.6215   31.1462 C   0  0  0  0  0  0  0  0  0  0  0  0
   19.8527    5.4641   31.7242 O   0  0  0  0  0  0  0  0  0  0  0  0
   21.5530    4.4916   30.3546 C   0  0  0  0  0  0  0  0  0  0  0  0
   21.5979    4.7856   29.3053 H   0  0  0  0  0  0  0  0  0  0  0  0
   20.9366    3.5899   30.4208 H   0  0  0  0  0  0  0  0  0  0  0  0
   22.9480    4.2349   30.8682 C   0  0  0  0  0  0  0  0  0  0  0  0
   23.1573    3.1398   31.7137 C   0  0  0  0  0  0  0  0  0  0  0  0
   22.3265    2.4877   31.9631 H   0  0  0  0  0  0  0  0  0  0  0  0
   24.4239    2.8693   32.2568 C   0  0  0  0  0  0  0  0  0  0  0  0
   24.6591    1.7929   33.0787 O   0  0  0  0  0  0  0  0  0  0  0  0
   23.6453    0.7805   33.0958 C   0  0  0  0  0  0  0  0  0  0  0  0
   23.9824   -0.0639   33.7034 H   0  0  0  0  0  0  0  0  0  0  0  0
   23.4435    0.4209   32.0807 H   0  0  0  0  0  0  0  0  0  0  0  0
   22.7192    1.1741   33.5263 H   0  0  0  0  0  0  0  0  0  0  0  0
   25.4872    3.7318   31.9480 C   0  0  0  0  0  0  0  0  0  0  0  0
   27.2470    3.4402   32.6409 Br  0  0  0  0  0  0  0  0  0  0  0  0
   25.2801    4.8250   31.1042 C   0  0  0  0  0  0  0  0  0  0  0  0
   26.1090    5.4810   30.8614 H   0  0  0  0  0  0  0  0  0  0  0  0
   24.0177    5.1011   30.5602 C   0  0  0  0  0  0  0  0  0  0  0  0
   23.7991    6.2075   29.7670 O   0  0  0  0  0  0  0  0  0  0  0  0
   24.9223    7.0872   29.6070 C   0  0  0  0  0  0  0  0  0  0  0  0
   24.6435    7.9532   28.9996 H   0  0  0  0  0  0  0  0  0  0  0  0
   25.7472    6.5624   29.1132 H   0  0  0  0  0  0  0  0  0  0  0  0
   25.2669    7.4412   30.5847 H   0  0  0  0  0  0  0  0  0  0  0  0
   19.8680    8.0712   32.3894 C   0  0  0  0  0  0  0  0  0  0  0  0
   19.3025    7.1946   32.6721 H   0  0  0  0  0  0  0  0  0  0  0  0
   19.5477    9.3108   32.8708 C   0  0  0  0  0  0  0  0  0  0  0  0
   18.5374    9.4084   33.7695 N   0  0  0  0  0  0  0  0  0  0  0  0
   18.1295   10.3297   33.8999 H   0  0  0  0  0  0  0  0  0  0  0  0
   17.9292    8.6003   33.8479 H   0  0  0  0  0  0  0  0  0  0  0  0
   20.2478   10.4271   32.4712 C   0  0  0  0  0  0  0  0  0  0  0  0
   19.9013   11.7266   32.9511 C   0  0  0  0  0  0  0  0  0  0  0  0
   19.6387   12.7917   33.3420 N   0  0  0  0  0  0  0  0  0  0  0  0
   23.7308   13.4019   29.7040 C   0  0  0  0  0  0  0  0  0  0  0  0
   24.2481   12.6700   30.3148 H   0  0  0  0  0  0  0  0  0  0  0  0
   24.4560   14.4220   29.0812 C   0  0  0  0  0  0  0  0  0  0  0  0
   25.5303   14.5100   29.2294 H   0  0  0  0  0  0  0  0  0  0  0  0
  1  2  1  0
  2  3  2  0
  3  4  1  0
  3  5  1  0
  5  6  1  0
  5  7  2  0
  7  8  1  0
  8  9  1  0
  8 10  1  0
 10 11  1  0
 10 12  1  0
 10 13  1  0
 13 14  2  0
 14 15  1  0
 15 16  1  0
 16 17  1  0
 16 18  1  0
 18 19  2  0
 18 20  1  0
 20 21  1  0
 20 22  1  0
 20 23  1  0
 23 24  2  0
 24 25  1  0
 24 26  1  0
 26 27  1  0
 27 28  1  0
 28 29  1  0
 28 30  1  0
 28 31  1  0
 26 32  2  0
 32 33  1  0
 32 34  1  0
 34 35  1  0
 34 36  2  0
 36 37  1  0
 37 38  1  0
 38 39  1  0
 38 40  1  0
 38 41  1  0
 15 42  2  0
 42 43  1  0
 42 44  1  0
 44 45  1  0
 45 46  1  0
 45 47  1  0
 44 48  2  0
 48 49  1  0
 49 50  3  0
  7 51  1  0
 51 52  1  0
 51 53  2  0
 53 54  1  0
 53  2  1  0
 48 13  1  0
 36 23  1  0
M  END
>  <score>  (191) 
7.51395

$$$$

     RDKit          3D

 57 58  0  0  0  0  0  0  0  0999 V2000
   26.1153    5.5141   30.9166 H   0  0  0  0  0  0  0  0  0  0  0  0
   25.2910    4.8434   31.1371 C   0  0  0  0  0  0  0  0  0  0  0  0
   25.5030    3.7353   31.9625 C   0  0  0  0  0  0  0  0  0  0  0  0
   27.2523    3.4481   32.6852 Br  0  0  0  0  0  0  0  0  0  0  0  0
   24.4440    2.8587   32.2463 C   0  0  0  0  0  0  0  0  0  0  0  0
   24.6708    1.7684   33.0550 O   0  0  0  0  0  0  0  0  0  0  0  0
   23.6241    0.7876   33.0833 C   0  0  0  0  0  0  0  0  0  0  0  0
   22.7100    1.2148   33.5083 H   0  0  0  0  0  0  0  0  0  0  0  0
   23.9294   -0.0648   33.6967 H   0  0  0  0  0  0  0  0  0  0  0  0
   23.4076    0.4292   32.0706 H   0  0  0  0  0  0  0  0  0  0  0  0
   23.1803    3.1298   31.6958 C   0  0  0  0  0  0  0  0  0  0  0  0
   22.3582    2.4613   31.9303 H   0  0  0  0  0  0  0  0  0  0  0  0
   22.9633    4.2395   30.8712 C   0  0  0  0  0  0  0  0  0  0  0  0
   21.5698    4.4911   30.3504 C   0  0  0  0  0  0  0  0  0  0  0  0
   21.6026    4.6786   29.2759 H   0  0  0  0  0  0  0  0  0  0  0  0
   20.9459    3.6095   30.5224 H   0  0  0  0  0  0  0  0  0  0  0  0
   20.9506    5.6890   31.0560 C   0  0  0  0  0  0  0  0  0  0  0  0
   19.8247    5.5982   31.5203 O   0  0  0  0  0  0  0  0  0  0  0  0
   21.6448    6.8616   31.1509 N   0  0  0  0  0  0  0  0  0  0  0  0
   22.4729    6.9950   30.5896 H   0  0  0  0  0  0  0  0  0  0  0  0
   21.1397    7.9854   31.6806 C   0  0  0  0  0  0  0  0  0  0  0  0
   21.7847    9.0404   31.2589 N   0  0  0  0  0  0  0  0  0  0  0  0
   21.3641   10.2312   31.6828 C   0  0  0  0  0  0  0  0  0  0  0  0
   22.0880   11.3465   31.3583 O   0  0  0  0  0  0  0  0  0  0  0  0
   23.2493   11.1685   30.5287 C   0  0  0  0  0  0  0  0  0  0  0  0
   23.8613   12.0752   30.5726 H   0  0  0  0  0  0  0  0  0  0  0  0
   23.8668   10.3298   30.8740 H   0  0  0  0  0  0  0  0  0  0  0  0
   22.8096   10.9457   29.0911 C   0  0  0  0  0  0  0  0  0  0  0  0
   23.6685   11.0097   28.4209 H   0  0  0  0  0  0  0  0  0  0  0  0
   22.3707    9.9504   28.9906 H   0  0  0  0  0  0  0  0  0  0  0  0
   21.7914   12.0090   28.7058 C   0  0  0  0  0  0  0  0  0  0  0  0
   21.4744   11.8394   27.6737 H   0  0  0  0  0  0  0  0  0  0  0  0
   20.9135   11.9227   29.3576 H   0  0  0  0  0  0  0  0  0  0  0  0
   22.3749   13.3566   28.8470 N   0  0  0  0  0  0  0  0  0  0  0  0
   21.4597   14.3727   29.3972 C   0  0  0  0  0  0  0  0  0  0  0  0
   21.8231   15.3834   29.1826 H   0  0  0  0  0  0  0  0  0  0  0  0
   20.4647   14.2561   28.9554 H   0  0  0  0  0  0  0  0  0  0  0  0
   21.3760   14.2654   30.4855 H   0  0  0  0  0  0  0  0  0  0  0  0
   23.2430   13.8043   27.7444 C   0  0  0  0  0  0  0  0  0  0  0  0
   22.6506   14.0071   26.8461 H   0  0  0  0  0  0  0  0  0  0  0  0
   23.7679   14.7264   28.0190 H   0  0  0  0  0  0  0  0  0  0  0  0
   23.9807   13.0281   27.5134 H   0  0  0  0  0  0  0  0  0  0  0  0
   20.2584   10.3733   32.4963 C   0  0  0  0  0  0  0  0  0  0  0  0
   19.8237   11.6593   32.9263 C   0  0  0  0  0  0  0  0  0  0  0  0
   19.4673   12.7128   33.2593 N   0  0  0  0  0  0  0  0  0  0  0  0
   19.6279    9.2386   32.9090 C   0  0  0  0  0  0  0  0  0  0  0  0
   18.5221    9.2655   33.6743 N   0  0  0  0  0  0  0  0  0  0  0  0
   17.9015   10.0541   33.5243 H   0  0  0  0  0  0  0  0  0  0  0  0
   18.1020    8.3547   33.8467 H   0  0  0  0  0  0  0  0  0  0  0  0
   20.0832    8.0239   32.5389 C   0  0  0  0  0  0  0  0  0  0  0  0
   19.6142    7.1293   32.9055 H   0  0  0  0  0  0  0  0  0  0  0  0
   24.0292    5.1161   30.5863 C   0  0  0  0  0  0  0  0  0  0  0  0
   23.8068    6.2301   29.8059 O   0  0  0  0  0  0  0  0  0  0  0  0
   24.9370    7.0955   29.6168 C   0  0  0  0  0  0  0  0  0  0  0  0
   24.6582    7.9559   29.0011 H   0  0  0  0  0  0  0  0  0  0  0  0
   25.7476    6.5561   29.1156 H   0  0  0  0  0  0  0  0  0  0  0  0
   25.3037    7.4609   30.5825 H   0  0  0  0  0  0  0  0  0  0  0  0
  1  2  1  0
  2  3  2  0
  3  4  1  0
  3  5  1  0
  5  6  1  0
  6  7  1  0
  7  8  1  0
  7  9  1  0
  7 10  1  0
  5 11  2  0
 11 12  1  0
 11 13  1  0
 13 14  1  0
 14 15  1  0
 14 16  1  0
 14 17  1  0
 17 18  2  0
 17 19  1  0
 19 20  1  0
 19 21  1  0
 21 22  2  0
 22 23  1  0
 23 24  1  0
 24 25  1  0
 25 26  1  0
 25 27  1  0
 25 28  1  0
 28 29  1  0
 28 30  1  0
 28 31  1  0
 31 32  1  0
 31 33  1  0
 31 34  1  0
 34 35  1  0
 35 36  1  0
 35 37  1  0
 35 38  1  0
 34 39  1  0
 39 40  1  0
 39 41  1  0
 39 42  1  0
 23 43  2  0
 43 44  1  0
 44 45  3  0
 43 46  1  0
 46 47  1  0
 47 48  1  0
 47 49  1  0
 46 50  2  0
 50 51  1  0
 13 52  2  0
 52 53  1  0
 53 54  1  0
 54 55  1  0
 54 56  1  0
 54 57  1  0
 52  2  1  0
 50 21  1  0
M  END
>  <score>  (192) 
7.51539

$$$$

     RDKit          3D

 51 52  0  0  0  0  0  0  0  0999 V2000
   26.1712    5.4331   30.8530 H   0  0  0  0  0  0  0  0  0  0  0  0
   25.3266    4.8000   31.1025 C   0  0  0  0  0  0  0  0  0  0  0  0
   25.5197    3.7009   31.9471 C   0  0  0  0  0  0  0  0  0  0  0  0
   27.2767    3.3637   32.6403 Br  0  0  0  0  0  0  0  0  0  0  0  0
   24.4406    2.8591   32.2647 C   0  0  0  0  0  0  0  0  0  0  0  0
   24.6700    1.7860   33.0978 O   0  0  0  0  0  0  0  0  0  0  0  0
   23.6713    0.7558   33.1193 C   0  0  0  0  0  0  0  0  0  0  0  0
   24.0244   -0.0872   33.7237 H   0  0  0  0  0  0  0  0  0  0  0  0
   22.7373    1.1270   33.5524 H   0  0  0  0  0  0  0  0  0  0  0  0
   23.4704    0.3920   32.1066 H   0  0  0  0  0  0  0  0  0  0  0  0
   23.1704    3.1541   31.7344 C   0  0  0  0  0  0  0  0  0  0  0  0
   22.3342    2.5091   31.9847 H   0  0  0  0  0  0  0  0  0  0  0  0
   22.9741    4.2674   30.9000 C   0  0  0  0  0  0  0  0  0  0  0  0
   21.5911    4.5797   30.3682 C   0  0  0  0  0  0  0  0  0  0  0  0
   21.6655    4.8756   29.3187 H   0  0  0  0  0  0  0  0  0  0  0  0
   20.9453    3.7058   30.4412 H   0  0  0  0  0  0  0  0  0  0  0  0
   20.9438    5.7292   31.1150 C   0  0  0  0  0  0  0  0  0  0  0  0
   19.7637    5.6850   31.4334 O   0  0  0  0  0  0  0  0  0  0  0  0
   21.6495    6.8831   31.2553 N   0  0  0  0  0  0  0  0  0  0  0  0
   22.5348    6.9791   30.7788 H   0  0  0  0  0  0  0  0  0  0  0  0
   21.1138    8.0390   31.6709 C   0  0  0  0  0  0  0  0  0  0  0  0
   21.8683    9.0385   31.3059 N   0  0  0  0  0  0  0  0  0  0  0  0
   21.4853   10.2438   31.6648 C   0  0  0  0  0  0  0  0  0  0  0  0
   22.3181   11.2432   31.2899 N   0  0  0  0  0  0  0  0  0  0  0  0
   22.2305   12.1541   31.7037 H   0  0  0  0  0  0  0  0  0  0  0  0
   23.1933   11.0788   30.2657 C   0  0  0  0  0  0  0  0  0  0  0  0
   23.1495   10.1405   29.4893 O   0  0  0  0  0  0  0  0  0  0  0  0
   24.0418   12.1380   30.1068 N   0  0  0  0  0  0  0  0  0  0  0  0
   23.9563   12.8874   30.7852 H   0  0  0  0  0  0  0  0  0  0  0  0
   24.9543   12.2800   28.9832 C   0  0  0  0  0  0  0  0  0  0  0  0
   24.4230   12.0805   28.0458 H   0  0  0  0  0  0  0  0  0  0  0  0
   25.3294   13.3058   28.9394 H   0  0  0  0  0  0  0  0  0  0  0  0
   26.1313   11.3178   29.0986 C   0  0  0  0  0  0  0  0  0  0  0  0
   26.8429   11.6558   29.8532 H   0  0  0  0  0  0  0  0  0  0  0  0
   25.7908   10.3140   29.3602 H   0  0  0  0  0  0  0  0  0  0  0  0
   26.6587   11.2592   28.1441 H   0  0  0  0  0  0  0  0  0  0  0  0
   20.3632   10.4940   32.4223 C   0  0  0  0  0  0  0  0  0  0  0  0
   20.0209   11.8079   32.8458 C   0  0  0  0  0  0  0  0  0  0  0  0
   19.7884   12.8913   33.1999 N   0  0  0  0  0  0  0  0  0  0  0  0
   19.6183    9.4113   32.7945 C   0  0  0  0  0  0  0  0  0  0  0  0
   18.5470    9.5315   33.6051 N   0  0  0  0  0  0  0  0  0  0  0  0
   18.2062   10.4582   33.8545 H   0  0  0  0  0  0  0  0  0  0  0  0
   18.0001    8.7002   33.8123 H   0  0  0  0  0  0  0  0  0  0  0  0
   19.9676    8.1596   32.4050 C   0  0  0  0  0  0  0  0  0  0  0  0
   19.3804    7.3067   32.6970 H   0  0  0  0  0  0  0  0  0  0  0  0
   24.0610    5.1016   30.5775 C   0  0  0  0  0  0  0  0  0  0  0  0
   23.8389    6.1953   29.7677 O   0  0  0  0  0  0  0  0  0  0  0  0
   24.9298    7.1112   29.6000 C   0  0  0  0  0  0  0  0  0  0  0  0
   24.6082    7.9585   28.9852 H   0  0  0  0  0  0  0  0  0  0  0  0
   25.7752    6.6206   29.1068 H   0  0  0  0  0  0  0  0  0  0  0  0
   25.2633    7.4911   30.5706 H   0  0  0  0  0  0  0  0  0  0  0  0
  1  2  1  0
  2  3  2  0
  3  4  1  0
  3  5  1  0
  5  6  1  0
  6  7  1  0
  7  8  1  0
  7  9  1  0
  7 10  1  0
  5 11  2  0
 11 12  1  0
 11 13  1  0
 13 14  1  0
 14 15  1  0
 14 16  1  0
 14 17  1  0
 17 18  2  0
 17 19  1  0
 19 20  1  0
 19 21  1  0
 21 22  2  0
 22 23  1  0
 23 24  1  0
 24 25  1  0
 24 26  1  0
 26 27  2  0
 26 28  1  0
 28 29  1  0
 28 30  1  0
 30 31  1  0
 30 32  1  0
 30 33  1  0
 33 34  1  0
 33 35  1  0
 33 36  1  0
 23 37  2  0
 37 38  1  0
 38 39  3  0
 37 40  1  0
 40 41  1  0
 41 42  1  0
 41 43  1  0
 40 44  2  0
 44 45  1  0
 13 46  2  0
 46 47  1  0
 47 48  1  0
 48 49  1  0
 48 50  1  0
 48 51  1  0
 46  2  1  0
 44 21  1  0
M  END
>  <score>  (193) 
7.51573

$$$$

     RDKit          3D

 50 51  0  0  0  0  0  0  0  0999 V2000
   24.2556   14.1992   29.2311 H   0  0  0  0  0  0  0  0  0  0  0  0
   23.9349   13.2859   29.2854 O   0  0  0  0  0  0  0  0  0  0  0  0
   22.6539   13.3731   29.7410 C   0  0  0  0  0  0  0  0  0  0  0  0
   22.1439   14.4497   30.0287 O   0  0  0  0  0  0  0  0  0  0  0  0
   21.7996   12.0771   30.0353 C   0  0  1  0  0  0  0  0  0  0  0  0
   20.7622   12.4243   30.1502 H   0  0  0  0  0  0  0  0  0  0  0  0
   21.8026   10.9335   29.0705 N   0  0  0  0  0  0  0  0  0  0  0  0
   21.3453   11.1691   28.1907 H   0  0  0  0  0  0  0  0  0  0  0  0
   21.3701   10.1016   29.4777 H   0  0  0  0  0  0  0  0  0  0  0  0
   22.2811   11.4233   31.3330 C   0  0  0  0  0  0  0  0  0  0  0  0
   23.3109   11.0650   31.2210 H   0  0  0  0  0  0  0  0  0  0  0  0
   22.2514   12.1457   32.1524 H   0  0  0  0  0  0  0  0  0  0  0  0
   21.4036   10.2532   31.6656 C   0  0  0  0  0  0  0  0  0  0  0  0
   21.7851    9.0500   31.2311 N   0  0  0  0  0  0  0  0  0  0  0  0
   21.0292    8.0009   31.5023 C   0  0  0  0  0  0  0  0  0  0  0  0
   21.5550    6.8394   31.0550 N   0  0  0  0  0  0  0  0  0  0  0  0
   22.4886    6.8944   30.6823 H   0  0  0  0  0  0  0  0  0  0  0  0
   20.9134    5.6329   31.0600 C   0  0  0  0  0  0  0  0  0  0  0  0
   19.7879    5.5384   31.5173 O   0  0  0  0  0  0  0  0  0  0  0  0
   21.5613    4.4457   30.3563 C   0  0  0  0  0  0  0  0  0  0  0  0
   20.9590    3.5489   30.5216 H   0  0  0  0  0  0  0  0  0  0  0  0
   21.5906    4.6252   29.2804 H   0  0  0  0  0  0  0  0  0  0  0  0
   22.9597    4.2227   30.8715 C   0  0  0  0  0  0  0  0  0  0  0  0
   23.1891    3.1132   31.6871 C   0  0  0  0  0  0  0  0  0  0  0  0
   22.3732    2.4365   31.9139 H   0  0  0  0  0  0  0  0  0  0  0  0
   24.4507    2.8490   32.2425 C   0  0  0  0  0  0  0  0  0  0  0  0
   24.6742    1.7556   33.0480 O   0  0  0  0  0  0  0  0  0  0  0  0
   23.6124    0.7882   33.0789 C   0  0  0  0  0  0  0  0  0  0  0  0
   22.7026    1.2265   33.5027 H   0  0  0  0  0  0  0  0  0  0  0  0
   23.3907    0.4287   32.0676 H   0  0  0  0  0  0  0  0  0  0  0  0
   23.9012   -0.0667   33.6945 H   0  0  0  0  0  0  0  0  0  0  0  0
   25.5019    3.7379   31.9681 C   0  0  0  0  0  0  0  0  0  0  0  0
   27.2488    3.4663   32.7022 Br  0  0  0  0  0  0  0  0  0  0  0  0
   25.2812    4.8489   31.1483 C   0  0  0  0  0  0  0  0  0  0  0  0
   26.1004    5.5287   30.9333 H   0  0  0  0  0  0  0  0  0  0  0  0
   24.0177    5.1117   30.5939 C   0  0  0  0  0  0  0  0  0  0  0  0
   23.7895    6.2296   29.8228 O   0  0  0  0  0  0  0  0  0  0  0  0
   24.9245    7.0879   29.6176 C   0  0  0  0  0  0  0  0  0  0  0  0
   25.2996    7.4599   30.5776 H   0  0  0  0  0  0  0  0  0  0  0  0
   25.7287    6.5431   29.1112 H   0  0  0  0  0  0  0  0  0  0  0  0
   24.6493    7.9459   28.9986 H   0  0  0  0  0  0  0  0  0  0  0  0
   19.8755    8.0782   32.2226 C   0  0  0  0  0  0  0  0  0  0  0  0
   19.2795    7.2143   32.4632 H   0  0  0  0  0  0  0  0  0  0  0  0
   19.5041    9.2996   32.6614 C   0  0  0  0  0  0  0  0  0  0  0  0
   18.3916    9.3358   33.4176 N   0  0  0  0  0  0  0  0  0  0  0  0
   18.0437    8.4283   33.7212 H   0  0  0  0  0  0  0  0  0  0  0  0
   18.3658   10.0974   34.0842 H   0  0  0  0  0  0  0  0  0  0  0  0
   20.2368   10.4237   32.3909 C   0  0  0  0  0  0  0  0  0  0  0  0
   19.7956   11.7120   32.8179 C   0  0  0  0  0  0  0  0  0  0  0  0
   19.4509   12.7783   33.1264 N   0  0  0  0  0  0  0  0  0  0  0  0
  1  2  1  0
  2  3  1  0
  3  4  2  0
  3  5  1  0
  5  6  1  1
  5  7  1  0
  7  8  1  0
  7  9  1  0
  5 10  1  0
 10 11  1  0
 10 12  1  0
 10 13  1  0
 13 14  2  0
 14 15  1  0
 15 16  1  0
 16 17  1  0
 16 18  1  0
 18 19  2  0
 18 20  1  0
 20 21  1  0
 20 22  1  0
 20 23  1  0
 23 24  2  0
 24 25  1  0
 24 26  1  0
 26 27  1  0
 27 28  1  0
 28 29  1  0
 28 30  1  0
 28 31  1  0
 26 32  2  0
 32 33  1  0
 32 34  1  0
 34 35  1  0
 34 36  2  0
 36 37  1  0
 37 38  1  0
 38 39  1  0
 38 40  1  0
 38 41  1  0
 15 42  2  0
 42 43  1  0
 42 44  1  0
 44 45  1  0
 45 46  1  0
 45 47  1  0
 44 48  2  0
 48 49  1  0
 49 50  3  0
 48 13  1  0
 36 23  1  0
M  END
>  <score>  (194) 
7.51631

$$$$

     RDKit          3D

 52 54  0  0  0  0  0  0  0  0999 V2000
   25.9806    9.0353   31.7412 H   0  0  0  0  0  0  0  0  0  0  0  0
   25.4494    9.6687   31.0610 C   0  0  0  0  0  0  0  0  0  0  0  0
   24.2112   10.1422   31.4746 C   0  0  0  0  0  0  0  0  0  0  0  0
   23.7822    9.8622   32.4332 H   0  0  0  0  0  0  0  0  0  0  0  0
   23.4721   10.9603   30.6358 C   0  0  0  0  0  0  0  0  0  0  0  0
   22.1126   11.4090   31.0979 C   0  0  0  0  0  0  0  0  0  0  0  0
   22.2373   12.1576   31.8866 H   0  0  0  0  0  0  0  0  0  0  0  0
   21.5813   11.8659   30.2627 H   0  0  0  0  0  0  0  0  0  0  0  0
   21.2908   10.2550   31.6270 C   0  0  0  0  0  0  0  0  0  0  0  0
   21.6597    9.0240   31.2721 N   0  0  0  0  0  0  0  0  0  0  0  0
   20.9849    7.9927   31.7048 C   0  0  0  0  0  0  0  0  0  0  0  0
   21.5737    6.8464   31.3086 N   0  0  0  0  0  0  0  0  0  0  0  0
   22.4555    6.9703   30.8279 H   0  0  0  0  0  0  0  0  0  0  0  0
   20.9072    5.6711   31.1344 C   0  0  0  0  0  0  0  0  0  0  0  0
   19.7383    5.5844   31.4827 O   0  0  0  0  0  0  0  0  0  0  0  0
   21.5677    4.5350   30.3601 C   0  0  0  0  0  0  0  0  0  0  0  0
   21.6327    4.8155   29.3043 H   0  0  0  0  0  0  0  0  0  0  0  0
   20.9438    3.6399   30.4300 H   0  0  0  0  0  0  0  0  0  0  0  0
   22.9581    4.2496   30.8895 C   0  0  0  0  0  0  0  0  0  0  0  0
   23.1614    3.1494   31.7378 C   0  0  0  0  0  0  0  0  0  0  0  0
   22.3241    2.5057   31.9929 H   0  0  0  0  0  0  0  0  0  0  0  0
   24.4337    2.8591   32.2667 C   0  0  0  0  0  0  0  0  0  0  0  0
   24.6661    1.7838   33.0932 O   0  0  0  0  0  0  0  0  0  0  0  0
   23.6579    0.7642   33.1104 C   0  0  0  0  0  0  0  0  0  0  0  0
   23.4561    0.3997   32.0967 H   0  0  0  0  0  0  0  0  0  0  0  0
   24.0042   -0.0777   33.7172 H   0  0  0  0  0  0  0  0  0  0  0  0
   22.7293    1.1482   33.5445 H   0  0  0  0  0  0  0  0  0  0  0  0
   25.5086    3.7030   31.9431 C   0  0  0  0  0  0  0  0  0  0  0  0
   27.2606    3.3867   32.6545 Br  0  0  0  0  0  0  0  0  0  0  0  0
   25.3081    4.7966   31.0962 C   0  0  0  0  0  0  0  0  0  0  0  0
   26.1507    5.4311   30.8438 H   0  0  0  0  0  0  0  0  0  0  0  0
   24.0426    5.0927   30.5666 C   0  0  0  0  0  0  0  0  0  0  0  0
   23.8325    6.1873   29.7554 O   0  0  0  0  0  0  0  0  0  0  0  0
   24.9492    7.0642   29.5531 C   0  0  0  0  0  0  0  0  0  0  0  0
   24.6194    7.9497   29.0033 H   0  0  0  0  0  0  0  0  0  0  0  0
   25.7417    6.5702   28.9832 H   0  0  0  0  0  0  0  0  0  0  0  0
   25.3633    7.3782   30.5142 H   0  0  0  0  0  0  0  0  0  0  0  0
   19.8745    8.0983   32.4949 C   0  0  0  0  0  0  0  0  0  0  0  0
   19.3512    7.2255   32.8413 H   0  0  0  0  0  0  0  0  0  0  0  0
   19.5051    9.3531   32.8798 C   0  0  0  0  0  0  0  0  0  0  0  0
   18.4515    9.4561   33.7181 N   0  0  0  0  0  0  0  0  0  0  0  0
   17.8876    8.6258   33.8830 H   0  0  0  0  0  0  0  0  0  0  0  0
   18.0728   10.3824   33.8979 H   0  0  0  0  0  0  0  0  0  0  0  0
   20.2068   10.4621   32.4646 C   0  0  0  0  0  0  0  0  0  0  0  0
   19.8710   11.7802   32.8932 C   0  0  0  0  0  0  0  0  0  0  0  0
   19.6239   12.8642   33.2351 N   0  0  0  0  0  0  0  0  0  0  0  0
   23.9803   11.2791   29.3701 C   0  0  0  0  0  0  0  0  0  0  0  0
   23.3733   11.8508   28.6811 H   0  0  0  0  0  0  0  0  0  0  0  0
   25.2301   10.7965   28.9579 C   0  0  0  0  0  0  0  0  0  0  0  0
   25.6295   11.0101   27.9719 H   0  0  0  0  0  0  0  0  0  0  0  0
   25.9775    9.9848   29.8041 C   0  0  0  0  0  0  0  0  0  0  0  0
   27.1637    9.4876   29.3821 F   0  0  0  0  0  0  0  0  0  0  0  0
  1  2  1  0
  2  3  2  0
  3  4  1  0
  3  5  1  0
  5  6  1  0
  6  7  1  0
  6  8  1  0
  6  9  1  0
  9 10  2  0
 10 11  1  0
 11 12  1  0
 12 13  1  0
 12 14  1  0
 14 15  2  0
 14 16  1  0
 16 17  1  0
 16 18  1  0
 16 19  1  0
 19 20  2  0
 20 21  1  0
 20 22  1  0
 22 23  1  0
 23 24  1  0
 24 25  1  0
 24 26  1  0
 24 27  1  0
 22 28  2  0
 28 29  1  0
 28 30  1  0
 30 31  1  0
 30 32  2  0
 32 33  1  0
 33 34  1  0
 34 35  1  0
 34 36  1  0
 34 37  1  0
 11 38  2  0
 38 39  1  0
 38 40  1  0
 40 41  1  0
 41 42  1  0
 41 43  1  0
 40 44  2  0
 44 45  1  0
 45 46  3  0
  5 47  2  0
 47 48  1  0
 47 49  1  0
 49 50  1  0
 49 51  2  0
 51 52  1  0
 51  2  1  0
 44  9  1  0
 32 19  1  0
M  END
>  <score>  (195) 
7.51847

$$$$

     RDKit          3D

 50 51  0  0  0  0  0  0  0  0999 V2000
   26.1572    5.4337   30.8419 H   0  0  0  0  0  0  0  0  0  0  0  0
   25.3102    4.8063   31.0968 C   0  0  0  0  0  0  0  0  0  0  0  0
   25.5043    3.7098   31.9406 C   0  0  0  0  0  0  0  0  0  0  0  0
   27.2584    3.3604   32.6314 Br  0  0  0  0  0  0  0  0  0  0  0  0
   24.4245    2.8697   32.2609 C   0  0  0  0  0  0  0  0  0  0  0  0
   24.6576    1.7968   33.0923 O   0  0  0  0  0  0  0  0  0  0  0  0
   23.6693    0.7574   33.1189 C   0  0  0  0  0  0  0  0  0  0  0  0
   24.0327   -0.0806   33.7240 H   0  0  0  0  0  0  0  0  0  0  0  0
   23.4702    0.3898   32.1083 H   0  0  0  0  0  0  0  0  0  0  0  0
   22.7345    1.1206   33.5546 H   0  0  0  0  0  0  0  0  0  0  0  0
   23.1535    3.1633   31.7287 C   0  0  0  0  0  0  0  0  0  0  0  0
   22.3194    2.5123   31.9746 H   0  0  0  0  0  0  0  0  0  0  0  0
   22.9590    4.2729   30.8880 C   0  0  0  0  0  0  0  0  0  0  0  0
   21.5908    4.5861   30.3358 C   0  0  0  0  0  0  0  0  0  0  0  0
   21.6782    4.8496   29.2784 H   0  0  0  0  0  0  0  0  0  0  0  0
   20.9340    3.7220   30.4144 H   0  0  0  0  0  0  0  0  0  0  0  0
   20.9608    5.7480   31.0901 C   0  0  0  0  0  0  0  0  0  0  0  0
   19.9043    5.5978   31.6786 O   0  0  0  0  0  0  0  0  0  0  0  0
   21.5249    6.9875   31.0065 N   0  0  0  0  0  0  0  0  0  0  0  0
   22.3826    7.1077   30.4882 H   0  0  0  0  0  0  0  0  0  0  0  0
   21.0100    8.1161   31.5431 C   0  0  0  0  0  0  0  0  0  0  0  0
   21.7407    9.1545   31.2258 N   0  0  0  0  0  0  0  0  0  0  0  0
   21.3256   10.3050   31.6937 C   0  0  0  0  0  0  0  0  0  0  0  0
   22.1954   11.2658   31.3301 N   0  0  0  0  0  0  0  0  0  0  0  0
   23.0209   10.7591   31.0280 H   0  0  0  0  0  0  0  0  0  0  0  0
   21.7314   12.2577   30.3557 C   0  0  0  0  0  0  0  0  0  0  0  0
   20.6373   12.3504   30.3821 H   0  0  0  0  0  0  0  0  0  0  0  0
   22.0241   11.9164   29.3547 H   0  0  0  0  0  0  0  0  0  0  0  0
   22.3589   13.6266   30.6377 C   0  0  0  0  0  0  0  0  0  0  0  0
   22.0887   13.9503   31.6492 H   0  0  0  0  0  0  0  0  0  0  0  0
   23.4507   13.5375   30.5897 H   0  0  0  0  0  0  0  0  0  0  0  0
   21.8811   14.6797   29.6251 C   0  0  0  0  0  0  0  0  0  0  0  0
   20.7893   14.7797   29.6546 H   0  0  0  0  0  0  0  0  0  0  0  0
   22.1842   14.4004   28.6091 H   0  0  0  0  0  0  0  0  0  0  0  0
   22.3190   15.6540   29.8630 H   0  0  0  0  0  0  0  0  0  0  0  0
   20.2200   10.5094   32.4627 C   0  0  0  0  0  0  0  0  0  0  0  0
   19.8952   11.8212   32.9062 C   0  0  0  0  0  0  0  0  0  0  0  0
   19.6814   12.9166   33.2257 N   0  0  0  0  0  0  0  0  0  0  0  0
   19.5311    9.3969   32.8247 C   0  0  0  0  0  0  0  0  0  0  0  0
   18.5134    9.4782   33.7008 N   0  0  0  0  0  0  0  0  0  0  0  0
   18.1442   10.4018   33.9104 H   0  0  0  0  0  0  0  0  0  0  0  0
   17.9493    8.6479   33.8636 H   0  0  0  0  0  0  0  0  0  0  0  0
   19.8965    8.1746   32.3482 C   0  0  0  0  0  0  0  0  0  0  0  0
   19.3584    7.2879   32.6341 H   0  0  0  0  0  0  0  0  0  0  0  0
   24.0465    5.1096   30.5697 C   0  0  0  0  0  0  0  0  0  0  0  0
   23.8392    6.1969   29.7482 O   0  0  0  0  0  0  0  0  0  0  0  0
   24.9343    7.1089   29.5929 C   0  0  0  0  0  0  0  0  0  0  0  0
   24.6170    7.9649   28.9904 H   0  0  0  0  0  0  0  0  0  0  0  0
   25.2671    7.4720   30.5689 H   0  0  0  0  0  0  0  0  0  0  0  0
   25.7773    6.6229   29.0937 H   0  0  0  0  0  0  0  0  0  0  0  0
  1  2  1  0
  2  3  2  0
  3  4  1  0
  3  5  1  0
  5  6  1  0
  6  7  1  0
  7  8  1  0
  7  9  1  0
  7 10  1  0
  5 11  2  0
 11 12  1  0
 11 13  1  0
 13 14  1  0
 14 15  1  0
 14 16  1  0
 14 17  1  0
 17 18  2  0
 17 19  1  0
 19 20  1  0
 19 21  1  0
 21 22  2  0
 22 23  1  0
 23 24  1  0
 24 25  1  0
 24 26  1  0
 26 27  1  0
 26 28  1  0
 26 29  1  0
 29 30  1  0
 29 31  1  0
 29 32  1  0
 32 33  1  0
 32 34  1  0
 32 35  1  0
 23 36  2  0
 36 37  1  0
 37 38  3  0
 36 39  1  0
 39 40  1  0
 40 41  1  0
 40 42  1  0
 39 43  2  0
 43 44  1  0
 13 45  2  0
 45 46  1  0
 46 47  1  0
 47 48  1  0
 47 49  1  0
 47 50  1  0
 45  2  1  0
 43 21  1  0
M  END
>  <score>  (196) 
7.52244

$$$$

     RDKit          3D

 62 64  0  0  0  0  0  0  0  0999 V2000
   26.1502    5.4622   30.8726 H   0  0  0  0  0  0  0  0  0  0  0  0
   25.3105    4.8182   31.1137 C   0  0  0  0  0  0  0  0  0  0  0  0
   25.5125    3.7160   31.9470 C   0  0  0  0  0  0  0  0  0  0  0  0
   27.2696    3.4183   32.6507 Br  0  0  0  0  0  0  0  0  0  0  0  0
   24.4393    2.8651   32.2566 C   0  0  0  0  0  0  0  0  0  0  0  0
   24.6732    1.7809   33.0704 O   0  0  0  0  0  0  0  0  0  0  0  0
   23.6514    0.7763   33.0967 C   0  0  0  0  0  0  0  0  0  0  0  0
   23.4444    0.4137   32.0840 H   0  0  0  0  0  0  0  0  0  0  0  0
   22.7300    1.1776   33.5299 H   0  0  0  0  0  0  0  0  0  0  0  0
   23.9815   -0.0700   33.7063 H   0  0  0  0  0  0  0  0  0  0  0  0
   23.1681    3.1612   31.7285 C   0  0  0  0  0  0  0  0  0  0  0  0
   22.3374    2.5084   31.9752 H   0  0  0  0  0  0  0  0  0  0  0  0
   22.9580    4.2729   30.9000 C   0  0  0  0  0  0  0  0  0  0  0  0
   21.5631    4.5574   30.3732 C   0  0  0  0  0  0  0  0  0  0  0  0
   20.9226    3.6761   30.4865 H   0  0  0  0  0  0  0  0  0  0  0  0
   21.6183    4.7931   29.3079 H   0  0  0  0  0  0  0  0  0  0  0  0
   20.9277    5.7400   31.0920 C   0  0  0  0  0  0  0  0  0  0  0  0
   19.7761    5.6691   31.4927 O   0  0  0  0  0  0  0  0  0  0  0  0
   21.6388    6.8997   31.2191 N   0  0  0  0  0  0  0  0  0  0  0  0
   22.5328    6.9846   30.7572 H   0  0  0  0  0  0  0  0  0  0  0  0
   21.1147    8.0474   31.6713 C   0  0  0  0  0  0  0  0  0  0  0  0
   21.8206    9.0821   31.2922 N   0  0  0  0  0  0  0  0  0  0  0  0
   21.4057   10.2907   31.6795 C   0  0  0  0  0  0  0  0  0  0  0  0
   22.1171   11.4057   31.3227 O   0  0  0  0  0  0  0  0  0  0  0  0
   23.2816   11.2091   30.5103 C   0  0  0  0  0  0  0  0  0  0  0  0
   23.9567   12.0652   30.6367 H   0  0  0  0  0  0  0  0  0  0  0  0
   23.8176   10.3010   30.8134 H   0  0  0  0  0  0  0  0  0  0  0  0
   22.8868   11.0855   29.0444 C   0  0  0  0  0  0  0  0  0  0  0  0
   22.2635   11.9327   28.7455 H   0  0  0  0  0  0  0  0  0  0  0  0
   22.3141   10.1653   28.8924 H   0  0  0  0  0  0  0  0  0  0  0  0
   24.1530   11.0475   28.1960 C   0  0  0  0  0  0  0  0  0  0  0  0
   24.8014   10.2571   28.5854 H   0  0  0  0  0  0  0  0  0  0  0  0
   23.9114   10.7804   27.1650 H   0  0  0  0  0  0  0  0  0  0  0  0
   24.8771   12.3383   28.2315 N   0  0  0  0  0  0  0  0  0  0  0  0
   24.1524   13.5958   27.8870 C   0  0  0  0  0  0  0  0  0  0  0  0
   23.7350   14.0376   28.7965 H   0  0  0  0  0  0  0  0  0  0  0  0
   23.3186   13.4250   27.2009 H   0  0  0  0  0  0  0  0  0  0  0  0
   25.0910   14.6287   27.2317 C   0  0  0  0  0  0  0  0  0  0  0  0
   24.5087   15.4807   26.8711 H   0  0  0  0  0  0  0  0  0  0  0  0
   25.8021   14.9914   27.9767 H   0  0  0  0  0  0  0  0  0  0  0  0
   25.8445   14.1008   26.1244 O   0  0  0  0  0  0  0  0  0  0  0  0
   26.3600   12.7651   26.3018 C   0  0  0  0  0  0  0  0  0  0  0  0
   25.7802   12.0769   25.6790 H   0  0  0  0  0  0  0  0  0  0  0  0
   27.4027   12.7206   25.9658 H   0  0  0  0  0  0  0  0  0  0  0  0
   26.2784   12.3042   27.7606 C   0  0  0  0  0  0  0  0  0  0  0  0
   26.6803   11.2954   27.8477 H   0  0  0  0  0  0  0  0  0  0  0  0
   26.8863   12.9705   28.3837 H   0  0  0  0  0  0  0  0  0  0  0  0
   20.2803   10.4665   32.4585 C   0  0  0  0  0  0  0  0  0  0  0  0
   19.8990   11.7723   32.8903 C   0  0  0  0  0  0  0  0  0  0  0  0
   19.6431   12.8502   33.2370 N   0  0  0  0  0  0  0  0  0  0  0  0
   19.5765    9.3545   32.8203 C   0  0  0  0  0  0  0  0  0  0  0  0
   18.4554    9.4512   33.5694 N   0  0  0  0  0  0  0  0  0  0  0  0
   18.1387   10.3702   33.8655 H   0  0  0  0  0  0  0  0  0  0  0  0
   17.9549    8.6098   33.8477 H   0  0  0  0  0  0  0  0  0  0  0  0
   19.9875    8.1208   32.4377 C   0  0  0  0  0  0  0  0  0  0  0  0
   19.4570    7.2345   32.7407 H   0  0  0  0  0  0  0  0  0  0  0  0
   24.0427    5.1170   30.5869 C   0  0  0  0  0  0  0  0  0  0  0  0
   23.8197    6.2196   29.7935 O   0  0  0  0  0  0  0  0  0  0  0  0
   24.9383    7.0976   29.6159 C   0  0  0  0  0  0  0  0  0  0  0  0
   25.2884    7.4703   30.5849 H   0  0  0  0  0  0  0  0  0  0  0  0
   24.6451    7.9511   28.9991 H   0  0  0  0  0  0  0  0  0  0  0  0
   25.7602    6.5714   29.1185 H   0  0  0  0  0  0  0  0  0  0  0  0
  1  2  1  0
  2  3  2  0
  3  4  1  0
  3  5  1  0
  5  6  1  0
  6  7  1  0
  7  8  1  0
  7  9  1  0
  7 10  1  0
  5 11  2  0
 11 12  1  0
 11 13  1  0
 13 14  1  0
 14 15  1  0
 14 16  1  0
 14 17  1  0
 17 18  2  0
 17 19  1  0
 19 20  1  0
 19 21  1  0
 21 22  2  0
 22 23  1  0
 23 24  1  0
 24 25  1  0
 25 26  1  0
 25 27  1  0
 25 28  1  0
 28 29  1  0
 28 30  1  0
 28 31  1  0
 31 32  1  0
 31 33  1  0
 31 34  1  0
 34 35  1  0
 35 36  1  0
 35 37  1  0
 35 38  1  0
 38 39  1  0
 38 40  1  0
 38 41  1  0
 41 42  1  0
 42 43  1  0
 42 44  1  0
 42 45  1  0
 45 46  1  0
 45 47  1  0
 23 48  2  0
 48 49  1  0
 49 50  3  0
 48 51  1  0
 51 52  1  0
 52 53  1  0
 52 54  1  0
 51 55  2  0
 55 56  1  0
 13 57  2  0
 57 58  1  0
 58 59  1  0
 59 60  1  0
 59 61  1  0
 59 62  1  0
 57  2  1  0
 55 21  1  0
 45 34  1  0
M  END
>  <score>  (197) 
7.52867

$$$$

     RDKit          3D

 52 54  0  0  0  0  0  0  0  0999 V2000
   26.0581   14.9691   28.5869 H   0  0  0  0  0  0  0  0  0  0  0  0
   25.6107   14.1151   29.0863 C   0  0  0  0  0  0  0  0  0  0  0  0
   24.5380   14.3449   29.8543 N   0  0  0  0  0  0  0  0  0  0  0  0
   23.9408   13.3206   30.4696 C   0  0  0  0  0  0  0  0  0  0  0  0
   23.1019   13.5154   31.1348 H   0  0  0  0  0  0  0  0  0  0  0  0
   24.3700   12.0149   30.3017 C   0  0  0  0  0  0  0  0  0  0  0  0
   23.5821   10.9822   30.9182 C   0  0  0  0  0  0  0  0  0  0  0  0
   24.0403    9.8586   31.0527 O   0  0  0  0  0  0  0  0  0  0  0  0
   22.3044   11.2725   31.3384 N   0  0  0  0  0  0  0  0  0  0  0  0
   21.9582   12.2173   31.2792 H   0  0  0  0  0  0  0  0  0  0  0  0
   21.4453   10.2724   31.6857 C   0  0  0  0  0  0  0  0  0  0  0  0
   21.7695    9.0871   31.2147 N   0  0  0  0  0  0  0  0  0  0  0  0
   21.0198    8.0722   31.5370 C   0  0  0  0  0  0  0  0  0  0  0  0
   21.5116    6.9512   30.9812 N   0  0  0  0  0  0  0  0  0  0  0  0
   22.3864    7.0596   30.4853 H   0  0  0  0  0  0  0  0  0  0  0  0
   20.9435    5.7196   31.0744 C   0  0  0  0  0  0  0  0  0  0  0  0
   19.8931    5.5684   31.6744 O   0  0  0  0  0  0  0  0  0  0  0  0
   21.5884    4.5654   30.3295 C   0  0  0  0  0  0  0  0  0  0  0  0
   21.6771    4.8343   29.2727 H   0  0  0  0  0  0  0  0  0  0  0  0
   20.9344    3.6967   30.4088 H   0  0  0  0  0  0  0  0  0  0  0  0
   22.9624    4.2640   30.8846 C   0  0  0  0  0  0  0  0  0  0  0  0
   23.1594    3.1560   31.7260 C   0  0  0  0  0  0  0  0  0  0  0  0
   22.3282    2.5025   31.9739 H   0  0  0  0  0  0  0  0  0  0  0  0
   24.4284    2.8653   32.2622 C   0  0  0  0  0  0  0  0  0  0  0  0
   24.6610    1.7938   33.0956 O   0  0  0  0  0  0  0  0  0  0  0  0
   23.6702    0.7560   33.1192 C   0  0  0  0  0  0  0  0  0  0  0  0
   24.0312   -0.0829   33.7241 H   0  0  0  0  0  0  0  0  0  0  0  0
   23.4727    0.3890   32.1067 H   0  0  0  0  0  0  0  0  0  0  0  0
   22.7348    1.1197   33.5559 H   0  0  0  0  0  0  0  0  0  0  0  0
   25.5060    3.7076   31.9406 C   0  0  0  0  0  0  0  0  0  0  0  0
   27.2601    3.3667   32.6321 Br  0  0  0  0  0  0  0  0  0  0  0  0
   25.3120    4.8061   31.0984 C   0  0  0  0  0  0  0  0  0  0  0  0
   26.1552    5.4390   30.8439 H   0  0  0  0  0  0  0  0  0  0  0  0
   24.0488    5.1044   30.5679 C   0  0  0  0  0  0  0  0  0  0  0  0
   23.8361    6.1903   29.7470 O   0  0  0  0  0  0  0  0  0  0  0  0
   24.9286    7.1092   29.5999 C   0  0  0  0  0  0  0  0  0  0  0  0
   24.6092    7.9707   29.0058 H   0  0  0  0  0  0  0  0  0  0  0  0
   25.2610    7.4675   30.5797 H   0  0  0  0  0  0  0  0  0  0  0  0
   25.7734    6.6314   29.0922 H   0  0  0  0  0  0  0  0  0  0  0  0
   19.9206    8.1658   32.3498 C   0  0  0  0  0  0  0  0  0  0  0  0
   19.3383    7.3055   32.6256 H   0  0  0  0  0  0  0  0  0  0  0  0
   19.5972    9.4039   32.8148 C   0  0  0  0  0  0  0  0  0  0  0  0
   18.5470    9.5089   33.6553 N   0  0  0  0  0  0  0  0  0  0  0  0
   18.2057   10.4370   33.8901 H   0  0  0  0  0  0  0  0  0  0  0  0
   17.9919    8.6786   33.8478 H   0  0  0  0  0  0  0  0  0  0  0  0
   20.3352   10.5039   32.4655 C   0  0  0  0  0  0  0  0  0  0  0  0
   19.9964   11.8187   32.8936 C   0  0  0  0  0  0  0  0  0  0  0  0
   19.7249   12.9085   33.2029 N   0  0  0  0  0  0  0  0  0  0  0  0
   25.5206   11.7549   29.5508 C   0  0  0  0  0  0  0  0  0  0  0  0
   25.9070   10.7427   29.4342 H   0  0  0  0  0  0  0  0  0  0  0  0
   26.1485   12.8323   28.9449 C   0  0  0  0  0  0  0  0  0  0  0  0
   27.0468   12.6680   28.3679 H   0  0  0  0  0  0  0  0  0  0  0  0
  1  2  1  0
  2  3  2  0
  3  4  1  0
  4  5  1  0
  4  6  2  0
  6  7  1  0
  7  8  2  0
  7  9  1  0
  9 10  1  0
  9 11  1  0
 11 12  2  0
 12 13  1  0
 13 14  1  0
 14 15  1  0
 14 16  1  0
 16 17  2  0
 16 18  1  0
 18 19  1  0
 18 20  1  0
 18 21  1  0
 21 22  2  0
 22 23  1  0
 22 24  1  0
 24 25  1  0
 25 26  1  0
 26 27  1  0
 26 28  1  0
 26 29  1  0
 24 30  2  0
 30 31  1  0
 30 32  1  0
 32 33  1  0
 32 34  2  0
 34 35  1  0
 35 36  1  0
 36 37  1  0
 36 38  1  0
 36 39  1  0
 13 40  2  0
 40 41  1  0
 40 42  1  0
 42 43  1  0
 43 44  1  0
 43 45  1  0
 42 46  2  0
 46 47  1  0
 47 48  3  0
  6 49  1  0
 49 50  1  0
 49 51  2  0
 51 52  1  0
 51  2  1  0
 46 11  1  0
 34 21  1  0
M  END
>  <score>  (198) 
7.52929

$$$$

     RDKit          3D

 53 55  0  0  0  0  0  0  0  0999 V2000
   26.9686   11.5143   30.0025 H   0  0  0  0  0  0  0  0  0  0  0  0
   26.1496   11.9023   29.6480 O   0  0  0  0  0  0  0  0  0  0  0  0
   25.5002   12.7141   30.6363 C   0  0  0  0  0  0  0  0  0  0  0  0
   25.7336   12.3507   31.6375 H   0  0  0  0  0  0  0  0  0  0  0  0
   25.8534   13.7467   30.5723 H   0  0  0  0  0  0  0  0  0  0  0  0
   24.0151   12.6312   30.4983 C   0  0  0  0  0  0  0  0  0  0  0  0
   23.2846   13.6598   29.8946 C   0  0  0  0  0  0  0  0  0  0  0  0
   23.8065   14.5036   29.4519 H   0  0  0  0  0  0  0  0  0  0  0  0
   21.8892   13.5858   29.8534 C   0  0  0  0  0  0  0  0  0  0  0  0
   21.3039   14.3609   29.3723 H   0  0  0  0  0  0  0  0  0  0  0  0
   21.2266   12.4943   30.4120 C   0  0  0  0  0  0  0  0  0  0  0  0
   20.1433   12.4507   30.3554 H   0  0  0  0  0  0  0  0  0  0  0  0
   21.9499   11.4387   30.9853 C   0  0  0  0  0  0  0  0  0  0  0  0
   21.2301   10.2784   31.5282 C   0  0  0  0  0  0  0  0  0  0  0  0
   21.6161    9.0603   31.1394 N   0  0  0  0  0  0  0  0  0  0  0  0
   20.9382    8.0156   31.5653 C   0  0  0  0  0  0  0  0  0  0  0  0
   21.4898    6.8762   31.1014 N   0  0  0  0  0  0  0  0  0  0  0  0
   22.3337    6.9987   30.5607 H   0  0  0  0  0  0  0  0  0  0  0  0
   20.9121    5.6423   31.1384 C   0  0  0  0  0  0  0  0  0  0  0  0
   19.8424    5.4775   31.7032 O   0  0  0  0  0  0  0  0  0  0  0  0
   21.5602    4.5114   30.3527 C   0  0  0  0  0  0  0  0  0  0  0  0
   20.9406    3.6119   30.4190 H   0  0  0  0  0  0  0  0  0  0  0  0
   21.6141    4.8055   29.3023 H   0  0  0  0  0  0  0  0  0  0  0  0
   22.9528    4.2438   30.8729 C   0  0  0  0  0  0  0  0  0  0  0  0
   23.1590    3.1444   31.7159 C   0  0  0  0  0  0  0  0  0  0  0  0
   22.3277    2.4918   31.9642 H   0  0  0  0  0  0  0  0  0  0  0  0
   24.4259    2.8676   32.2576 C   0  0  0  0  0  0  0  0  0  0  0  0
   24.6609    1.7930   33.0827 O   0  0  0  0  0  0  0  0  0  0  0  0
   23.6514    0.7759   33.1012 C   0  0  0  0  0  0  0  0  0  0  0  0
   23.9928   -0.0674   33.7078 H   0  0  0  0  0  0  0  0  0  0  0  0
   23.4499    0.4141   32.0872 H   0  0  0  0  0  0  0  0  0  0  0  0
   22.7234    1.1627   33.5331 H   0  0  0  0  0  0  0  0  0  0  0  0
   25.4929    3.7249   31.9455 C   0  0  0  0  0  0  0  0  0  0  0  0
   27.2507    3.4242   32.6402 Br  0  0  0  0  0  0  0  0  0  0  0  0
   25.2898    4.8200   31.1027 C   0  0  0  0  0  0  0  0  0  0  0  0
   26.1222    5.4710   30.8578 H   0  0  0  0  0  0  0  0  0  0  0  0
   24.0270    5.1026   30.5620 C   0  0  0  0  0  0  0  0  0  0  0  0
   23.8076    6.2036   29.7627 O   0  0  0  0  0  0  0  0  0  0  0  0
   24.9233    7.0929   29.6052 C   0  0  0  0  0  0  0  0  0  0  0  0
   25.7538    6.5803   29.1085 H   0  0  0  0  0  0  0  0  0  0  0  0
   25.2646    7.4517   30.5821 H   0  0  0  0  0  0  0  0  0  0  0  0
   24.6352    7.9564   28.9994 H   0  0  0  0  0  0  0  0  0  0  0  0
   19.8447    8.0922   32.3916 C   0  0  0  0  0  0  0  0  0  0  0  0
   19.3052    7.2098   32.7031 H   0  0  0  0  0  0  0  0  0  0  0  0
   19.5024    9.3323   32.8465 C   0  0  0  0  0  0  0  0  0  0  0  0
   18.5060    9.4276   33.7617 N   0  0  0  0  0  0  0  0  0  0  0  0
   17.9077    8.6149   33.8767 H   0  0  0  0  0  0  0  0  0  0  0  0
   18.0988   10.3473   33.9053 H   0  0  0  0  0  0  0  0  0  0  0  0
   20.1707   10.4514   32.4106 C   0  0  0  0  0  0  0  0  0  0  0  0
   19.8301   11.7532   32.8887 C   0  0  0  0  0  0  0  0  0  0  0  0
   19.6055   12.8247   33.2774 N   0  0  0  0  0  0  0  0  0  0  0  0
   23.3490   11.5150   31.0200 C   0  0  0  0  0  0  0  0  0  0  0  0
   23.9213   10.7055   31.4675 H   0  0  0  0  0  0  0  0  0  0  0  0
  1  2  1  0
  2  3  1  0
  3  4  1  0
  3  5  1  0
  3  6  1  0
  6  7  2  0
  7  8  1  0
  7  9  1  0
  9 10  1  0
  9 11  2  0
 11 12  1  0
 11 13  1  0
 13 14  1  0
 14 15  2  0
 15 16  1  0
 16 17  1  0
 17 18  1  0
 17 19  1  0
 19 20  2  0
 19 21  1  0
 21 22  1  0
 21 23  1  0
 21 24  1  0
 24 25  2  0
 25 26  1  0
 25 27  1  0
 27 28  1  0
 28 29  1  0
 29 30  1  0
 29 31  1  0
 29 32  1  0
 27 33  2  0
 33 34  1  0
 33 35  1  0
 35 36  1  0
 35 37  2  0
 37 38  1  0
 38 39  1  0
 39 40  1  0
 39 41  1  0
 39 42  1  0
 16 43  2  0
 43 44  1  0
 43 45  1  0
 45 46  1  0
 46 47  1  0
 46 48  1  0
 45 49  2  0
 49 50  1  0
 50 51  3  0
 13 52  2  0
 52 53  1  0
 52  6  1  0
 49 14  1  0
 37 24  1  0
M  END
>  <score>  (199) 
7.53004

$$$$

     RDKit          3D

 53 55  0  0  0  0  0  0  0  0999 V2000
   25.7812   15.2533   28.6008 H   0  0  0  0  0  0  0  0  0  0  0  0
   25.2217   14.4256   29.0318 C   0  0  0  0  0  0  0  0  0  0  0  0
   24.0359   14.0901   28.5091 N   0  0  0  0  0  0  0  0  0  0  0  0
   23.3825   13.0415   29.0351 C   0  0  0  0  0  0  0  0  0  0  0  0
   22.4375   12.7617   28.5844 H   0  0  0  0  0  0  0  0  0  0  0  0
   23.9090   12.2684   30.0735 C   0  0  0  0  0  0  0  0  0  0  0  0
   23.2474   10.9854   30.4145 C   0  0  0  0  0  0  0  0  0  0  0  0
   23.9195   10.3375   30.9861 H   0  0  0  0  0  0  0  0  0  0  0  0
   23.0042   10.4502   29.4935 H   0  0  0  0  0  0  0  0  0  0  0  0
   22.0203   11.2652   31.1488 N   0  0  0  0  0  0  0  0  0  0  0  0
   21.9413   12.1495   31.6265 H   0  0  0  0  0  0  0  0  0  0  0  0
   21.2694   10.2314   31.6294 C   0  0  0  0  0  0  0  0  0  0  0  0
   21.6333    9.0479   31.1908 N   0  0  0  0  0  0  0  0  0  0  0  0
   20.9348    8.0271   31.5795 C   0  0  0  0  0  0  0  0  0  0  0  0
   21.4614    6.9159   31.0476 N   0  0  0  0  0  0  0  0  0  0  0  0
   22.2984    7.0640   30.5043 H   0  0  0  0  0  0  0  0  0  0  0  0
   20.9077    5.6736   31.1044 C   0  0  0  0  0  0  0  0  0  0  0  0
   19.8459    5.5057   31.6805 O   0  0  0  0  0  0  0  0  0  0  0  0
   21.5724    4.5361   30.3400 C   0  0  0  0  0  0  0  0  0  0  0  0
   21.6431    4.8212   29.2876 H   0  0  0  0  0  0  0  0  0  0  0  0
   20.9525    3.6372   30.4038 H   0  0  0  0  0  0  0  0  0  0  0  0
   22.9583    4.2595   30.8784 C   0  0  0  0  0  0  0  0  0  0  0  0
   23.1581    3.1555   31.7214 C   0  0  0  0  0  0  0  0  0  0  0  0
   22.3234    2.5072   31.9698 H   0  0  0  0  0  0  0  0  0  0  0  0
   24.4253    2.8677   32.2595 C   0  0  0  0  0  0  0  0  0  0  0  0
   24.6583    1.7943   33.0885 O   0  0  0  0  0  0  0  0  0  0  0  0
   23.6587    0.7666   33.1096 C   0  0  0  0  0  0  0  0  0  0  0  0
   23.4580    0.3997   32.0976 H   0  0  0  0  0  0  0  0  0  0  0  0
   22.7268    1.1404   33.5444 H   0  0  0  0  0  0  0  0  0  0  0  0
   24.0124   -0.0727   33.7159 H   0  0  0  0  0  0  0  0  0  0  0  0
   25.4998    3.7141   31.9423 C   0  0  0  0  0  0  0  0  0  0  0  0
   27.2541    3.3864   32.6374 Br  0  0  0  0  0  0  0  0  0  0  0  0
   25.3039    4.8141   31.1016 C   0  0  0  0  0  0  0  0  0  0  0  0
   26.1439    5.4549   30.8549 H   0  0  0  0  0  0  0  0  0  0  0  0
   24.0404    5.1081   30.5663 C   0  0  0  0  0  0  0  0  0  0  0  0
   23.8234    6.2063   29.7619 O   0  0  0  0  0  0  0  0  0  0  0  0
   24.9305    7.1054   29.5998 C   0  0  0  0  0  0  0  0  0  0  0  0
   25.2736    7.4720   30.5728 H   0  0  0  0  0  0  0  0  0  0  0  0
   25.7643    6.6039   29.0982 H   0  0  0  0  0  0  0  0  0  0  0  0
   24.6276    7.9640   28.9940 H   0  0  0  0  0  0  0  0  0  0  0  0
   19.8569    8.1076   32.4127 C   0  0  0  0  0  0  0  0  0  0  0  0
   19.2978    7.2347   32.6969 H   0  0  0  0  0  0  0  0  0  0  0  0
   19.5448    9.3435   32.8878 C   0  0  0  0  0  0  0  0  0  0  0  0
   18.5346    9.4519   33.7658 N   0  0  0  0  0  0  0  0  0  0  0  0
   17.9201    8.6477   33.8478 H   0  0  0  0  0  0  0  0  0  0  0  0
   18.1483   10.3827   33.8837 H   0  0  0  0  0  0  0  0  0  0  0  0
   20.2356   10.4496   32.4925 C   0  0  0  0  0  0  0  0  0  0  0  0
   19.9367   11.7711   32.9264 C   0  0  0  0  0  0  0  0  0  0  0  0
   19.7419   12.8704   33.2516 N   0  0  0  0  0  0  0  0  0  0  0  0
   25.1068   12.6512   30.6753 C   0  0  0  0  0  0  0  0  0  0  0  0
   25.5354   12.0810   31.4946 H   0  0  0  0  0  0  0  0  0  0  0  0
   25.7695   13.7333   30.1042 C   0  0  0  0  0  0  0  0  0  0  0  0
   26.7484   14.0552   30.4047 H   0  0  0  0  0  0  0  0  0  0  0  0
  1  2  1  0
  2  3  2  0
  3  4  1  0
  4  5  1  0
  4  6  2  0
  6  7  1  0
  7  8  1  0
  7  9  1  0
  7 10  1  0
 10 11  1  0
 10 12  1  0
 12 13  2  0
 13 14  1  0
 14 15  1  0
 15 16  1  0
 15 17  1  0
 17 18  2  0
 17 19  1  0
 19 20  1  0
 19 21  1  0
 19 22  1  0
 22 23  2  0
 23 24  1  0
 23 25  1  0
 25 26  1  0
 26 27  1  0
 27 28  1  0
 27 29  1  0
 27 30  1  0
 25 31  2  0
 31 32  1  0
 31 33  1  0
 33 34  1  0
 33 35  2  0
 35 36  1  0
 36 37  1  0
 37 38  1  0
 37 39  1  0
 37 40  1  0
 14 41  2  0
 41 42  1  0
 41 43  1  0
 43 44  1  0
 44 45  1  0
 44 46  1  0
 43 47  2  0
 47 48  1  0
 48 49  3  0
  6 50  1  0
 50 51  1  0
 50 52  2  0
 52 53  1  0
 52  2  1  0
 47 12  1  0
 35 22  1  0
M  END
>  <score>  (200) 
7.53034

$$$$

     RDKit          3D

 49 51  0  0  0  0  0  0  0  0999 V2000
   22.7998   10.4576   29.4078 H   0  0  0  0  0  0  0  0  0  0  0  0
   22.9633   11.3411   30.0197 C   0  0  0  0  0  0  0  0  0  0  0  0
   23.8727   12.2477   29.6200 N   0  0  0  0  0  0  0  0  0  0  0  0
   24.0712   13.2573   30.4580 C   0  0  0  0  0  0  0  0  0  0  0  0
   25.0598   14.0588   29.9662 N   0  0  0  0  0  0  0  0  0  0  0  0
   25.2233   13.8531   28.9843 H   0  0  0  0  0  0  0  0  0  0  0  0
   25.1072   15.0214   30.2829 H   0  0  0  0  0  0  0  0  0  0  0  0
   23.3231   13.4347   31.6527 C   0  0  0  0  0  0  0  0  0  0  0  0
   23.5146   14.2946   32.2835 H   0  0  0  0  0  0  0  0  0  0  0  0
   22.3617   12.5568   32.0222 N   0  0  0  0  0  0  0  0  0  0  0  0
   22.2206   11.4682   31.2146 C   0  0  0  0  0  0  0  0  0  0  0  0
   21.3398   10.3388   31.5835 C   0  0  0  0  0  0  0  0  0  0  0  0
   21.6475    9.1285   31.0830 N   0  0  0  0  0  0  0  0  0  0  0  0
   20.9472    8.0762   31.4658 C   0  0  0  0  0  0  0  0  0  0  0  0
   21.4573    6.9309   30.9492 N   0  0  0  0  0  0  0  0  0  0  0  0
   22.3380    7.0235   30.4637 H   0  0  0  0  0  0  0  0  0  0  0  0
   20.9206    5.6848   31.0779 C   0  0  0  0  0  0  0  0  0  0  0  0
   19.8686    5.5173   31.6722 O   0  0  0  0  0  0  0  0  0  0  0  0
   21.5842    4.5403   30.3231 C   0  0  0  0  0  0  0  0  0  0  0  0
   20.9477    3.6564   30.3862 H   0  0  0  0  0  0  0  0  0  0  0  0
   21.6771    4.8208   29.2681 H   0  0  0  0  0  0  0  0  0  0  0  0
   22.9584    4.2548   30.8831 C   0  0  0  0  0  0  0  0  0  0  0  0
   23.1590    3.1499   31.7278 C   0  0  0  0  0  0  0  0  0  0  0  0
   22.3285    2.4942   31.9727 H   0  0  0  0  0  0  0  0  0  0  0  0
   24.4290    2.8660   32.2632 C   0  0  0  0  0  0  0  0  0  0  0  0
   24.6624    1.7945   33.0957 O   0  0  0  0  0  0  0  0  0  0  0  0
   23.6708    0.7568   33.1200 C   0  0  0  0  0  0  0  0  0  0  0  0
   22.7355    1.1220   33.5543 H   0  0  0  0  0  0  0  0  0  0  0  0
   24.0307   -0.0834   33.7244 H   0  0  0  0  0  0  0  0  0  0  0  0
   23.4720    0.3915   32.1079 H   0  0  0  0  0  0  0  0  0  0  0  0
   25.5044    3.7104   31.9408 C   0  0  0  0  0  0  0  0  0  0  0  0
   27.2601    3.3714   32.6315 Br  0  0  0  0  0  0  0  0  0  0  0  0
   25.3050    4.8081   31.0993 C   0  0  0  0  0  0  0  0  0  0  0  0
   26.1481    5.4405   30.8455 H   0  0  0  0  0  0  0  0  0  0  0  0
   24.0401    5.1034   30.5699 C   0  0  0  0  0  0  0  0  0  0  0  0
   23.8285    6.1927   29.7514 O   0  0  0  0  0  0  0  0  0  0  0  0
   24.9290    7.1022   29.5960 C   0  0  0  0  0  0  0  0  0  0  0  0
   25.7715    6.6139   29.0960 H   0  0  0  0  0  0  0  0  0  0  0  0
   24.6167    7.9608   28.9939 H   0  0  0  0  0  0  0  0  0  0  0  0
   25.2653    7.4648   30.5721 H   0  0  0  0  0  0  0  0  0  0  0  0
   19.8889    8.1515   32.3403 C   0  0  0  0  0  0  0  0  0  0  0  0
   19.3530    7.2686   32.6494 H   0  0  0  0  0  0  0  0  0  0  0  0
   19.5618    9.3808   32.8420 C   0  0  0  0  0  0  0  0  0  0  0  0
   18.5501    9.4659   33.7431 N   0  0  0  0  0  0  0  0  0  0  0  0
   18.1599   10.3889   33.9183 H   0  0  0  0  0  0  0  0  0  0  0  0
   17.9601    8.6470   33.8573 H   0  0  0  0  0  0  0  0  0  0  0  0
   20.2677   10.4973   32.4640 C   0  0  0  0  0  0  0  0  0  0  0  0
   19.9084   11.7877   32.9614 C   0  0  0  0  0  0  0  0  0  0  0  0
   19.6329   12.8619   33.3106 N   0  0  0  0  0  0  0  0  0  0  0  0
  1  2  1  0
  2  3  2  0
  3  4  1  0
  4  5  1  0
  5  6  1  0
  5  7  1  0
  4  8  2  0
  8  9  1  0
  8 10  1  0
 10 11  2  0
 11 12  1  0
 12 13  2  0
 13 14  1  0
 14 15  1  0
 15 16  1  0
 15 17  1  0
 17 18  2  0
 17 19  1  0
 19 20  1  0
 19 21  1  0
 19 22  1  0
 22 23  2  0
 23 24  1  0
 23 25  1  0
 25 26  1  0
 26 27  1  0
 27 28  1  0
 27 29  1  0
 27 30  1  0
 25 31  2  0
 31 32  1  0
 31 33  1  0
 33 34  1  0
 33 35  2  0
 35 36  1  0
 36 37  1  0
 37 38  1  0
 37 39  1  0
 37 40  1  0
 14 41  2  0
 41 42  1  0
 41 43  1  0
 43 44  1  0
 44 45  1  0
 44 46  1  0
 43 47  2  0
 47 48  1  0
 48 49  3  0
 11  2  1  0
 47 12  1  0
 35 22  1  0
M  END
>  <score>  (201) 
7.53759

$$$$

     RDKit          3D

 51 54  0  0  0  0  0  0  0  0999 V2000
   26.0222    5.5327   30.9363 H   0  0  0  0  0  0  0  0  0  0  0  0
   25.2191    4.8330   31.1449 C   0  0  0  0  0  0  0  0  0  0  0  0
   25.4663    3.7383   31.9784 C   0  0  0  0  0  0  0  0  0  0  0  0
   27.2184    3.5105   32.7147 Br  0  0  0  0  0  0  0  0  0  0  0  0
   24.4355    2.8283   32.2587 C   0  0  0  0  0  0  0  0  0  0  0  0
   24.6716    1.7496   33.0805 O   0  0  0  0  0  0  0  0  0  0  0  0
   23.6268    0.7646   33.1066 C   0  0  0  0  0  0  0  0  0  0  0  0
   23.4138    0.4109   32.0918 H   0  0  0  0  0  0  0  0  0  0  0  0
   23.9274   -0.0897   33.7179 H   0  0  0  0  0  0  0  0  0  0  0  0
   22.7103    1.1913   33.5272 H   0  0  0  0  0  0  0  0  0  0  0  0
   23.1750    3.0444   31.6811 C   0  0  0  0  0  0  0  0  0  0  0  0
   22.3772    2.3438   31.9062 H   0  0  0  0  0  0  0  0  0  0  0  0
   22.9202    4.1241   30.8342 C   0  0  0  0  0  0  0  0  0  0  0  0
   21.5113    4.2545   30.2954 C   0  0  0  0  0  0  0  0  0  0  0  0
   20.9975    3.2936   30.3645 H   0  0  0  0  0  0  0  0  0  0  0  0
   21.5428    4.5470   29.2430 H   0  0  0  0  0  0  0  0  0  0  0  0
   20.7471    5.2970   31.1012 C   0  0  0  0  0  0  0  0  0  0  0  0
   19.6856    5.0732   31.6581 O   0  0  0  0  0  0  0  0  0  0  0  0
   21.2976    6.5362   31.1198 N   0  0  0  0  0  0  0  0  0  0  0  0
   22.0984    6.7198   30.5291 H   0  0  0  0  0  0  0  0  0  0  0  0
   20.8184    7.6361   31.7043 C   0  0  0  0  0  0  0  0  0  0  0  0
   21.5637    8.6142   31.2635 N   0  0  0  0  0  0  0  0  0  0  0  0
   21.3302    9.8854   31.6292 C   0  0  0  0  0  0  0  0  0  0  0  0
   22.2869   10.9046   31.0686 C   0  0  0  0  0  0  0  0  0  0  0  0
   22.2792   12.2152   31.2574 N   0  0  0  0  0  0  0  0  0  0  0  0
   23.3583   12.6512   30.5138 C   0  0  0  0  0  0  0  0  0  0  0  0
   23.8202   13.9392   30.3034 C   0  0  0  0  0  0  0  0  0  0  0  0
   23.2632   14.7261   30.7856 H   0  0  0  0  0  0  0  0  0  0  0  0
   24.9503   14.1638   29.4988 C   0  0  0  0  0  0  0  0  0  0  0  0
   25.3326   15.1686   29.3562 H   0  0  0  0  0  0  0  0  0  0  0  0
   25.6028   13.0713   28.9068 C   0  0  0  0  0  0  0  0  0  0  0  0
   26.4892   13.2177   28.2986 H   0  0  0  0  0  0  0  0  0  0  0  0
   25.1168   11.7737   29.1129 C   0  0  0  0  0  0  0  0  0  0  0  0
   25.5832   10.9062   28.6582 H   0  0  0  0  0  0  0  0  0  0  0  0
   23.9893   11.5901   29.9114 C   0  0  0  0  0  0  0  0  0  0  0  0
   23.3295   10.4719   30.2678 O   0  0  0  0  0  0  0  0  0  0  0  0
   20.2572   10.1577   32.5013 C   0  0  0  0  0  0  0  0  0  0  0  0
   19.9672   11.4696   32.9903 C   0  0  0  0  0  0  0  0  0  0  0  0
   19.7185   12.5243   33.4161 N   0  0  0  0  0  0  0  0  0  0  0  0
   19.5060    9.0806   32.9555 C   0  0  0  0  0  0  0  0  0  0  0  0
   18.4656    9.2334   33.8095 N   0  0  0  0  0  0  0  0  0  0  0  0
   17.9067    8.3991   33.9668 H   0  0  0  0  0  0  0  0  0  0  0  0
   17.9848   10.1308   33.7631 H   0  0  0  0  0  0  0  0  0  0  0  0
   19.7710    7.7958   32.5685 C   0  0  0  0  0  0  0  0  0  0  0  0
   19.1902    6.9638   32.9400 H   0  0  0  0  0  0  0  0  0  0  0  0
   23.9555    5.0541   30.5680 C   0  0  0  0  0  0  0  0  0  0  0  0
   23.7233    6.1620   29.7796 O   0  0  0  0  0  0  0  0  0  0  0  0
   24.8391    7.0559   29.6026 C   0  0  0  0  0  0  0  0  0  0  0  0
   25.1953    7.4250   30.5697 H   0  0  0  0  0  0  0  0  0  0  0  0
   24.5502    7.9160   28.9925 H   0  0  0  0  0  0  0  0  0  0  0  0
   25.6657    6.5408   29.1032 H   0  0  0  0  0  0  0  0  0  0  0  0
  1  2  1  0
  2  3  2  0
  3  4  1  0
  3  5  1  0
  5  6  1  0
  6  7  1  0
  7  8  1  0
  7  9  1  0
  7 10  1  0
  5 11  2  0
 11 12  1  0
 11 13  1  0
 13 14  1  0
 14 15  1  0
 14 16  1  0
 14 17  1  0
 17 18  2  0
 17 19  1  0
 19 20  1  0
 19 21  1  0
 21 22  2  0
 22 23  1  0
 23 24  1  0
 24 25  2  0
 25 26  1  0
 26 27  2  0
 27 28  1  0
 27 29  1  0
 29 30  1  0
 29 31  2  0
 31 32  1  0
 31 33  1  0
 33 34  1  0
 33 35  2  0
 35 36  1  0
 23 37  2  0
 37 38  1  0
 38 39  3  0
 37 40  1  0
 40 41  1  0
 41 42  1  0
 41 43  1  0
 40 44  2  0
 44 45  1  0
 13 46  2  0
 46 47  1  0
 47 48  1  0
 48 49  1  0
 48 50  1  0
 48 51  1  0
 46  2  1  0
 44 21  1  0
 36 24  1  0
 35 26  1  0
M  END
>  <score>  (202) 
7.5378

$$$$

     RDKit          3D

 49 50  0  0  0  0  0  0  0  0999 V2000
   26.1546    5.4367   30.8427 H   0  0  0  0  0  0  0  0  0  0  0  0
   25.3092    4.8078   31.0974 C   0  0  0  0  0  0  0  0  0  0  0  0
   25.5059    3.7105   31.9398 C   0  0  0  0  0  0  0  0  0  0  0  0
   27.2604    3.3638   32.6318 Br  0  0  0  0  0  0  0  0  0  0  0  0
   24.4274    2.8686   32.2611 C   0  0  0  0  0  0  0  0  0  0  0  0
   24.6609    1.7966   33.0933 O   0  0  0  0  0  0  0  0  0  0  0  0
   23.6710    0.7565   33.1200 C   0  0  0  0  0  0  0  0  0  0  0  0
   23.4710    0.3896   32.1089 H   0  0  0  0  0  0  0  0  0  0  0  0
   24.0327   -0.0832   33.7249 H   0  0  0  0  0  0  0  0  0  0  0  0
   22.7351    1.1201   33.5546 H   0  0  0  0  0  0  0  0  0  0  0  0
   23.1563    3.1574   31.7275 C   0  0  0  0  0  0  0  0  0  0  0  0
   22.3245    2.5034   31.9743 H   0  0  0  0  0  0  0  0  0  0  0  0
   22.9598    4.2676   30.8871 C   0  0  0  0  0  0  0  0  0  0  0  0
   21.5894    4.5782   30.3321 C   0  0  0  0  0  0  0  0  0  0  0  0
   21.6780    4.8460   29.2735 H   0  0  0  0  0  0  0  0  0  0  0  0
   20.9332    3.7125   30.4074 H   0  0  0  0  0  0  0  0  0  0  0  0
   20.9555    5.7371   31.0874 C   0  0  0  0  0  0  0  0  0  0  0  0
   19.8963    5.5878   31.6752 O   0  0  0  0  0  0  0  0  0  0  0  0
   21.5093    6.9765   31.0096 N   0  0  0  0  0  0  0  0  0  0  0  0
   22.3762    7.1044   30.5107 H   0  0  0  0  0  0  0  0  0  0  0  0
   20.9978    8.0947   31.5570 C   0  0  0  0  0  0  0  0  0  0  0  0
   21.7410    9.1204   31.2430 N   0  0  0  0  0  0  0  0  0  0  0  0
   21.3381   10.2743   31.7070 C   0  0  0  0  0  0  0  0  0  0  0  0
   22.2215   11.2112   31.3094 N   0  0  0  0  0  0  0  0  0  0  0  0
   23.0027   10.6792   30.9423 H   0  0  0  0  0  0  0  0  0  0  0  0
   21.7394   12.3098   30.4341 C   0  0  0  0  0  0  0  0  0  0  0  0
   20.9606   11.9232   29.7663 H   0  0  0  0  0  0  0  0  0  0  0  0
   21.2998   13.1063   31.0457 H   0  0  0  0  0  0  0  0  0  0  0  0
   22.8609   12.9262   29.5627 C   0  0  0  0  0  0  0  0  0  0  0  0
   23.6195   13.3591   30.2247 H   0  0  0  0  0  0  0  0  0  0  0  0
   23.3317   12.1276   28.9769 H   0  0  0  0  0  0  0  0  0  0  0  0
   22.3795   13.9828   28.6369 N   0  0  0  0  0  0  0  0  0  0  0  0
   21.7223   13.6046   27.9552 H   0  0  0  0  0  0  0  0  0  0  0  0
   23.1644   14.4261   28.1621 H   0  0  0  0  0  0  0  0  0  0  0  0
   20.2285   10.4900   32.4701 C   0  0  0  0  0  0  0  0  0  0  0  0
   19.9067   11.8067   32.9022 C   0  0  0  0  0  0  0  0  0  0  0  0
   19.6895   12.9000   33.2211 N   0  0  0  0  0  0  0  0  0  0  0  0
   19.5244    9.3847   32.8278 C   0  0  0  0  0  0  0  0  0  0  0  0
   18.5004    9.4750   33.6979 N   0  0  0  0  0  0  0  0  0  0  0  0
   17.9383    8.6449   33.8737 H   0  0  0  0  0  0  0  0  0  0  0  0
   18.1438   10.4032   33.9140 H   0  0  0  0  0  0  0  0  0  0  0  0
   19.8852    8.1594   32.3587 C   0  0  0  0  0  0  0  0  0  0  0  0
   19.3379    7.2776   32.6367 H   0  0  0  0  0  0  0  0  0  0  0  0
   24.0449    5.1073   30.5703 C   0  0  0  0  0  0  0  0  0  0  0  0
   23.8340    6.1946   29.7499 O   0  0  0  0  0  0  0  0  0  0  0  0
   24.9330    7.1052   29.5946 C   0  0  0  0  0  0  0  0  0  0  0  0
   25.7770    6.6185   29.0957 H   0  0  0  0  0  0  0  0  0  0  0  0
   24.6188    7.9627   28.9920 H   0  0  0  0  0  0  0  0  0  0  0  0
   25.2685    7.4687   30.5707 H   0  0  0  0  0  0  0  0  0  0  0  0
  1  2  1  0
  2  3  2  0
  3  4  1  0
  3  5  1  0
  5  6  1  0
  6  7  1  0
  7  8  1  0
  7  9  1  0
  7 10  1  0
  5 11  2  0
 11 12  1  0
 11 13  1  0
 13 14  1  0
 14 15  1  0
 14 16  1  0
 14 17  1  0
 17 18  2  0
 17 19  1  0
 19 20  1  0
 19 21  1  0
 21 22  2  0
 22 23  1  0
 23 24  1  0
 24 25  1  0
 24 26  1  0
 26 27  1  0
 26 28  1  0
 26 29  1  0
 29 30  1  0
 29 31  1  0
 29 32  1  0
 32 33  1  0
 32 34  1  0
 23 35  2  0
 35 36  1  0
 36 37  3  0
 35 38  1  0
 38 39  1  0
 39 40  1  0
 39 41  1  0
 38 42  2  0
 42 43  1  0
 13 44  2  0
 44 45  1  0
 45 46  1  0
 46 47  1  0
 46 48  1  0
 46 49  1  0
 44  2  1  0
 42 21  1  0
M  END
>  <score>  (203) 
7.54049

$$$$

     RDKit          3D

 54 56  0  0  0  0  0  0  0  0999 V2000
   26.1609    5.4367   30.8507 H   0  0  0  0  0  0  0  0  0  0  0  0
   25.3221    4.7979   31.1020 C   0  0  0  0  0  0  0  0  0  0  0  0
   25.5220    3.6987   31.9441 C   0  0  0  0  0  0  0  0  0  0  0  0
   27.2753    3.3623   32.6381 Br  0  0  0  0  0  0  0  0  0  0  0  0
   24.4472    2.8542   32.2675 C   0  0  0  0  0  0  0  0  0  0  0  0
   24.6738    1.7856   33.1059 O   0  0  0  0  0  0  0  0  0  0  0  0
   23.6769    0.7521   33.1250 C   0  0  0  0  0  0  0  0  0  0  0  0
   22.7409    1.1186   33.5587 H   0  0  0  0  0  0  0  0  0  0  0  0
   24.0302   -0.0917   33.7277 H   0  0  0  0  0  0  0  0  0  0  0  0
   23.4787    0.3897   32.1111 H   0  0  0  0  0  0  0  0  0  0  0  0
   23.1784    3.1384   31.7329 C   0  0  0  0  0  0  0  0  0  0  0  0
   22.3478    2.4850   31.9827 H   0  0  0  0  0  0  0  0  0  0  0  0
   22.9754    4.2479   30.8948 C   0  0  0  0  0  0  0  0  0  0  0  0
   21.5902    4.5455   30.3600 C   0  0  0  0  0  0  0  0  0  0  0  0
   21.6646    4.8875   29.3247 H   0  0  0  0  0  0  0  0  0  0  0  0
   20.9716    3.6475   30.3896 H   0  0  0  0  0  0  0  0  0  0  0  0
   20.9026    5.6525   31.1391 C   0  0  0  0  0  0  0  0  0  0  0  0
   19.7114    5.5856   31.3919 O   0  0  0  0  0  0  0  0  0  0  0  0
   21.5863    6.8121   31.3311 N   0  0  0  0  0  0  0  0  0  0  0  0
   22.4505    6.9251   30.8253 H   0  0  0  0  0  0  0  0  0  0  0  0
   21.0277    7.9711   31.7426 C   0  0  0  0  0  0  0  0  0  0  0  0
   21.7630    8.9931   31.3527 N   0  0  0  0  0  0  0  0  0  0  0  0
   21.4107   10.2496   31.6962 C   0  0  0  0  0  0  0  0  0  0  0  0
   22.2744   11.3987   31.2514 C   0  0  0  0  0  0  0  0  0  0  0  0
   22.2598   12.4731   31.8588 O   0  0  0  0  0  0  0  0  0  0  0  0
   23.0872   11.2843   30.0343 C   0  0  0  0  0  0  0  0  0  0  0  0
   22.5759   10.5494   28.9552 C   0  0  0  0  0  0  0  0  0  0  0  0
   21.5912   10.0951   29.0164 H   0  0  0  0  0  0  0  0  0  0  0  0
   23.3027   10.4213   27.7740 C   0  0  0  0  0  0  0  0  0  0  0  0
   22.8751    9.8803   26.9338 H   0  0  0  0  0  0  0  0  0  0  0  0
   24.5536   11.0348   27.6535 C   0  0  0  0  0  0  0  0  0  0  0  0
   25.2970   10.9804   26.3568 C   0  0  0  0  0  0  0  0  0  0  0  0
   25.0306   10.0829   25.7926 H   0  0  0  0  0  0  0  0  0  0  0  0
   26.3748   10.9879   26.5341 H   0  0  0  0  0  0  0  0  0  0  0  0
   25.0390   11.8579   25.7662 H   0  0  0  0  0  0  0  0  0  0  0  0
   25.0681   11.7737   28.7236 C   0  0  0  0  0  0  0  0  0  0  0  0
   26.0311   12.2633   28.6153 H   0  0  0  0  0  0  0  0  0  0  0  0
   24.3431   11.9026   29.9117 C   0  0  0  0  0  0  0  0  0  0  0  0
   24.7694   12.4781   30.7293 H   0  0  0  0  0  0  0  0  0  0  0  0
   20.2691   10.4477   32.4840 C   0  0  0  0  0  0  0  0  0  0  0  0
   19.8926   11.7541   32.9132 C   0  0  0  0  0  0  0  0  0  0  0  0
   19.6309   12.8262   33.2794 N   0  0  0  0  0  0  0  0  0  0  0  0
   19.5190    9.3556   32.8581 C   0  0  0  0  0  0  0  0  0  0  0  0
   18.4215    9.4808   33.6412 N   0  0  0  0  0  0  0  0  0  0  0  0
   17.9029    8.6474   33.9073 H   0  0  0  0  0  0  0  0  0  0  0  0
   18.1322   10.4099   33.9436 H   0  0  0  0  0  0  0  0  0  0  0  0
   19.8758    8.1013   32.4694 C   0  0  0  0  0  0  0  0  0  0  0  0
   19.2773    7.2538   32.7525 H   0  0  0  0  0  0  0  0  0  0  0  0
   24.0562    5.0936   30.5754 C   0  0  0  0  0  0  0  0  0  0  0  0
   23.8345    6.1870   29.7638 O   0  0  0  0  0  0  0  0  0  0  0  0
   24.9289    7.1030   29.5997 C   0  0  0  0  0  0  0  0  0  0  0  0
   25.2689    7.4749   30.5718 H   0  0  0  0  0  0  0  0  0  0  0  0
   24.6096    7.9582   28.9963 H   0  0  0  0  0  0  0  0  0  0  0  0
   25.7714    6.6197   29.0938 H   0  0  0  0  0  0  0  0  0  0  0  0
  1  2  1  0
  2  3  2  0
  3  4  1  0
  3  5  1  0
  5  6  1  0
  6  7  1  0
  7  8  1  0
  7  9  1  0
  7 10  1  0
  5 11  2  0
 11 12  1  0
 11 13  1  0
 13 14  1  0
 14 15  1  0
 14 16  1  0
 14 17  1  0
 17 18  2  0
 17 19  1  0
 19 20  1  0
 19 21  1  0
 21 22  2  0
 22 23  1  0
 23 24  1  0
 24 25  2  0
 24 26  1  0
 26 27  2  0
 27 28  1  0
 27 29  1  0
 29 30  1  0
 29 31  2  0
 31 32  1  0
 32 33  1  0
 32 34  1  0
 32 35  1  0
 31 36  1  0
 36 37  1  0
 36 38  2  0
 38 39  1  0
 23 40  2  0
 40 41  1  0
 41 42  3  0
 40 43  1  0
 43 44  1  0
 44 45  1  0
 44 46  1  0
 43 47  2  0
 47 48  1  0
 13 49  2  0
 49 50  1  0
 50 51  1  0
 51 52  1  0
 51 53  1  0
 51 54  1  0
 49  2  1  0
 47 21  1  0
 38 26  1  0
M  END
>  <score>  (204) 
7.54079

$$$$

     RDKit          3D

 51 53  0  0  0  0  0  0  0  0999 V2000
   26.9028    9.6391   29.4825 H   0  0  0  0  0  0  0  0  0  0  0  0
   25.9308   10.0244   29.7815 C   0  0  0  0  0  0  0  0  0  0  0  0
   25.2530   10.8477   28.9593 N   0  0  0  0  0  0  0  0  0  0  0  0
   24.0480   11.3047   29.3588 C   0  0  0  0  0  0  0  0  0  0  0  0
   23.4681   11.9266   28.6802 H   0  0  0  0  0  0  0  0  0  0  0  0
   23.5024   10.9982   30.6234 C   0  0  0  0  0  0  0  0  0  0  0  0
   22.1261   11.4589   31.0765 C   0  0  0  0  0  0  0  0  0  0  0  0
   21.5923   11.9489   30.2550 H   0  0  0  0  0  0  0  0  0  0  0  0
   22.2473   12.1730   31.8983 H   0  0  0  0  0  0  0  0  0  0  0  0
   21.2842   10.2949   31.5752 C   0  0  0  0  0  0  0  0  0  0  0  0
   21.6012    9.0729   31.1389 N   0  0  0  0  0  0  0  0  0  0  0  0
   20.9250    8.0293   31.5518 C   0  0  0  0  0  0  0  0  0  0  0  0
   21.4567    6.9006   31.0384 N   0  0  0  0  0  0  0  0  0  0  0  0
   22.2876    7.0346   30.4811 H   0  0  0  0  0  0  0  0  0  0  0  0
   20.9050    5.6582   31.1087 C   0  0  0  0  0  0  0  0  0  0  0  0
   19.8464    5.4979   31.6916 O   0  0  0  0  0  0  0  0  0  0  0  0
   21.5634    4.5200   30.3430 C   0  0  0  0  0  0  0  0  0  0  0  0
   21.6265    4.8092   29.2916 H   0  0  0  0  0  0  0  0  0  0  0  0
   20.9410    3.6241   30.4123 H   0  0  0  0  0  0  0  0  0  0  0  0
   22.9508    4.2422   30.8755 C   0  0  0  0  0  0  0  0  0  0  0  0
   23.1499    3.1464   31.7281 C   0  0  0  0  0  0  0  0  0  0  0  0
   22.3138    2.5020   31.9815 H   0  0  0  0  0  0  0  0  0  0  0  0
   24.4188    2.8601   32.2651 C   0  0  0  0  0  0  0  0  0  0  0  0
   24.6523    1.7914   33.0978 O   0  0  0  0  0  0  0  0  0  0  0  0
   23.6531    0.7645   33.1109 C   0  0  0  0  0  0  0  0  0  0  0  0
   24.0033   -0.0773   33.7152 H   0  0  0  0  0  0  0  0  0  0  0  0
   23.4560    0.4024   32.0964 H   0  0  0  0  0  0  0  0  0  0  0  0
   22.7209    1.1398   33.5429 H   0  0  0  0  0  0  0  0  0  0  0  0
   25.4936    3.7032   31.9447 C   0  0  0  0  0  0  0  0  0  0  0  0
   27.2483    3.3937   32.6507 Br  0  0  0  0  0  0  0  0  0  0  0  0
   25.2973    4.7911   31.0915 C   0  0  0  0  0  0  0  0  0  0  0  0
   26.1376    5.4308   30.8432 H   0  0  0  0  0  0  0  0  0  0  0  0
   24.0354    5.0810   30.5488 C   0  0  0  0  0  0  0  0  0  0  0  0
   23.8299    6.1685   29.7270 O   0  0  0  0  0  0  0  0  0  0  0  0
   24.9582    7.0371   29.5476 C   0  0  0  0  0  0  0  0  0  0  0  0
   25.4018    7.2864   30.5161 H   0  0  0  0  0  0  0  0  0  0  0  0
   25.7263    6.5551   28.9348 H   0  0  0  0  0  0  0  0  0  0  0  0
   24.6439    7.9616   29.0554 H   0  0  0  0  0  0  0  0  0  0  0  0
   19.8621    8.1143   32.4054 C   0  0  0  0  0  0  0  0  0  0  0  0
   19.3108    7.2414   32.7158 H   0  0  0  0  0  0  0  0  0  0  0  0
   19.5474    9.3571   32.8725 C   0  0  0  0  0  0  0  0  0  0  0  0
   18.5355    9.4414   33.7614 N   0  0  0  0  0  0  0  0  0  0  0  0
   18.1320   10.3622   33.9042 H   0  0  0  0  0  0  0  0  0  0  0  0
   17.9398    8.6226   33.8496 H   0  0  0  0  0  0  0  0  0  0  0  0
   20.2373   10.4781   32.4668 C   0  0  0  0  0  0  0  0  0  0  0  0
   19.9012   11.7827   32.9421 C   0  0  0  0  0  0  0  0  0  0  0  0
   19.6620   12.8592   33.3096 N   0  0  0  0  0  0  0  0  0  0  0  0
   24.1977   10.1228   31.4538 C   0  0  0  0  0  0  0  0  0  0  0  0
   23.7647    9.8031   32.4010 H   0  0  0  0  0  0  0  0  0  0  0  0
   25.4183    9.6267   31.0175 C   0  0  0  0  0  0  0  0  0  0  0  0
   25.9410    8.8957   31.6135 H   0  0  0  0  0  0  0  0  0  0  0  0
  1  2  1  0
  2  3  2  0
  3  4  1  0
  4  5  1  0
  4  6  2  0
  6  7  1  0
  7  8  1  0
  7  9  1  0
  7 10  1  0
 10 11  2  0
 11 12  1  0
 12 13  1  0
 13 14  1  0
 13 15  1  0
 15 16  2  0
 15 17  1  0
 17 18  1  0
 17 19  1  0
 17 20  1  0
 20 21  2  0
 21 22  1  0
 21 23  1  0
 23 24  1  0
 24 25  1  0
 25 26  1  0
 25 27  1  0
 25 28  1  0
 23 29  2  0
 29 30  1  0
 29 31  1  0
 31 32  1  0
 31 33  2  0
 33 34  1  0
 34 35  1  0
 35 36  1  0
 35 37  1  0
 35 38  1  0
 12 39  2  0
 39 40  1  0
 39 41  1  0
 41 42  1  0
 42 43  1  0
 42 44  1  0
 41 45  2  0
 45 46  1  0
 46 47  3  0
  6 48  1  0
 48 49  1  0
 48 50  2  0
 50 51  1  0
 50  2  1  0
 45 10  1  0
 33 20  1  0
M  END
>  <score>  (205) 
7.54201

$$$$

     RDKit          3D

 49 50  0  0  0  0  0  0  0  0999 V2000
   26.1240    5.4818   30.8742 H   0  0  0  0  0  0  0  0  0  0  0  0
   25.2862    4.8391   31.1206 C   0  0  0  0  0  0  0  0  0  0  0  0
   25.4927    3.7311   31.9439 C   0  0  0  0  0  0  0  0  0  0  0  0
   27.2512    3.4206   32.6423 Br  0  0  0  0  0  0  0  0  0  0  0  0
   24.4211    2.8789   32.2519 C   0  0  0  0  0  0  0  0  0  0  0  0
   24.6618    1.7871   33.0514 O   0  0  0  0  0  0  0  0  0  0  0  0
   23.6347    0.7874   33.0842 C   0  0  0  0  0  0  0  0  0  0  0  0
   23.4217    0.4223   32.0739 H   0  0  0  0  0  0  0  0  0  0  0  0
   22.7143    1.1938   33.5149 H   0  0  0  0  0  0  0  0  0  0  0  0
   23.9609   -0.0593   33.6958 H   0  0  0  0  0  0  0  0  0  0  0  0
   23.1453    3.1819   31.7427 C   0  0  0  0  0  0  0  0  0  0  0  0
   22.3151    2.5282   31.9928 H   0  0  0  0  0  0  0  0  0  0  0  0
   22.9344    4.3058   30.9314 C   0  0  0  0  0  0  0  0  0  0  0  0
   21.5395    4.6113   30.4348 C   0  0  0  0  0  0  0  0  0  0  0  0
   21.5664    4.8633   29.3725 H   0  0  0  0  0  0  0  0  0  0  0  0
   20.8832    3.7474   30.5617 H   0  0  0  0  0  0  0  0  0  0  0  0
   20.9407    5.7823   31.1880 C   0  0  0  0  0  0  0  0  0  0  0  0
   19.7883    5.7122   31.5833 O   0  0  0  0  0  0  0  0  0  0  0  0
   21.6539    6.9378   31.3193 N   0  0  0  0  0  0  0  0  0  0  0  0
   22.5619    7.0226   30.8872 H   0  0  0  0  0  0  0  0  0  0  0  0
   21.1185    8.0960   31.7246 C   0  0  0  0  0  0  0  0  0  0  0  0
   21.8674    9.1032   31.3728 N   0  0  0  0  0  0  0  0  0  0  0  0
   21.4683   10.3177   31.7417 C   0  0  0  0  0  0  0  0  0  0  0  0
   22.2120   11.4013   31.3756 O   0  0  0  0  0  0  0  0  0  0  0  0
   23.3396   11.1564   30.5234 C   0  0  0  0  0  0  0  0  0  0  0  0
   23.0731   10.4671   29.7093 H   0  0  0  0  0  0  0  0  0  0  0  0
   23.7039   12.5107   29.9332 C   0  0  0  0  0  0  0  0  0  0  0  0
   23.8986   13.2400   30.7234 H   0  0  0  0  0  0  0  0  0  0  0  0
   22.8706   12.8792   29.3322 H   0  0  0  0  0  0  0  0  0  0  0  0
   24.5875   12.4396   29.2963 H   0  0  0  0  0  0  0  0  0  0  0  0
   24.5104   10.5519   31.3085 C   0  0  0  0  0  0  0  0  0  0  0  0
   25.3349   10.3079   30.6302 H   0  0  0  0  0  0  0  0  0  0  0  0
   24.8859   11.2471   32.0655 H   0  0  0  0  0  0  0  0  0  0  0  0
   24.1938    9.6323   31.8077 H   0  0  0  0  0  0  0  0  0  0  0  0
   20.3007   10.5376   32.4444 C   0  0  0  0  0  0  0  0  0  0  0  0
   19.9332   11.8599   32.8155 C   0  0  0  0  0  0  0  0  0  0  0  0
   19.7114   12.9673   33.0917 N   0  0  0  0  0  0  0  0  0  0  0  0
   19.5495    9.4520   32.7661 C   0  0  0  0  0  0  0  0  0  0  0  0
   18.3988    9.5908   33.4435 N   0  0  0  0  0  0  0  0  0  0  0  0
   18.2055    8.8604   34.1253 H   0  0  0  0  0  0  0  0  0  0  0  0
   18.1389   10.5433   33.6709 H   0  0  0  0  0  0  0  0  0  0  0  0
   19.9552    8.2083   32.4252 C   0  0  0  0  0  0  0  0  0  0  0  0
   19.3987    7.3313   32.6969 H   0  0  0  0  0  0  0  0  0  0  0  0
   24.0165    5.1487   30.6092 C   0  0  0  0  0  0  0  0  0  0  0  0
   23.7987    6.2589   29.8229 O   0  0  0  0  0  0  0  0  0  0  0  0
   24.9381    7.1091   29.6222 C   0  0  0  0  0  0  0  0  0  0  0  0
   25.3153    7.4741   30.5840 H   0  0  0  0  0  0  0  0  0  0  0  0
   24.6603    7.9697   29.0078 H   0  0  0  0  0  0  0  0  0  0  0  0
   25.7424    6.5637   29.1153 H   0  0  0  0  0  0  0  0  0  0  0  0
  1  2  1  0
  2  3  2  0
  3  4  1  0
  3  5  1  0
  5  6  1  0
  6  7  1  0
  7  8  1  0
  7  9  1  0
  7 10  1  0
  5 11  2  0
 11 12  1  0
 11 13  1  0
 13 14  1  0
 14 15  1  0
 14 16  1  0
 14 17  1  0
 17 18  2  0
 17 19  1  0
 19 20  1  0
 19 21  1  0
 21 22  2  0
 22 23  1  0
 23 24  1  0
 24 25  1  0
 25 26  1  0
 25 27  1  0
 27 28  1  0
 27 29  1  0
 27 30  1  0
 25 31  1  0
 31 32  1  0
 31 33  1  0
 31 34  1  0
 23 35  2  0
 35 36  1  0
 36 37  3  0
 35 38  1  0
 38 39  1  0
 39 40  1  0
 39 41  1  0
 38 42  2  0
 42 43  1  0
 13 44  2  0
 44 45  1  0
 45 46  1  0
 46 47  1  0
 46 48  1  0
 46 49  1  0
 44  2  1  0
 42 21  1  0
M  END
>  <score>  (206) 
7.54308

$$$$

     RDKit          3D

 52 54  0  0  0  0  0  0  0  0999 V2000
   26.8358    9.4134   29.4751 H   0  0  0  0  0  0  0  0  0  0  0  0
   25.9016    9.8633   29.8030 C   0  0  0  0  0  0  0  0  0  0  0  0
   25.3675    9.5334   31.0481 C   0  0  0  0  0  0  0  0  0  0  0  0
   25.8552    8.7963   31.6717 H   0  0  0  0  0  0  0  0  0  0  0  0
   24.1601   10.0903   31.4736 C   0  0  0  0  0  0  0  0  0  0  0  0
   23.7337    9.8052   32.4314 H   0  0  0  0  0  0  0  0  0  0  0  0
   23.4500   10.9666   30.6495 C   0  0  0  0  0  0  0  0  0  0  0  0
   22.0519   11.3812   31.0700 C   0  0  0  0  0  0  0  0  0  0  0  0
   21.5229   11.8281   30.2260 H   0  0  0  0  0  0  0  0  0  0  0  0
   22.1251   12.1317   31.8615 H   0  0  0  0  0  0  0  0  0  0  0  0
   21.2412   10.1939   31.5772 C   0  0  0  0  0  0  0  0  0  0  0  0
   21.6052    8.9735   31.1797 N   0  0  0  0  0  0  0  0  0  0  0  0
   20.9966    7.9172   31.6695 C   0  0  0  0  0  0  0  0  0  0  0  0
   21.5400    6.7881   31.1717 N   0  0  0  0  0  0  0  0  0  0  0  0
   22.3610    6.9313   30.6018 H   0  0  0  0  0  0  0  0  0  0  0  0
   20.8909    5.5941   31.0767 C   0  0  0  0  0  0  0  0  0  0  0  0
   19.7577    5.4778   31.5206 O   0  0  0  0  0  0  0  0  0  0  0  0
   21.5661    4.4511   30.3332 C   0  0  0  0  0  0  0  0  0  0  0  0
   20.9694    3.5433   30.4517 H   0  0  0  0  0  0  0  0  0  0  0  0
   21.6128    4.6929   29.2682 H   0  0  0  0  0  0  0  0  0  0  0  0
   22.9594    4.2251   30.8711 C   0  0  0  0  0  0  0  0  0  0  0  0
   23.1679    3.1318   31.7191 C   0  0  0  0  0  0  0  0  0  0  0  0
   22.3401    2.4735   31.9644 H   0  0  0  0  0  0  0  0  0  0  0  0
   24.4324    2.8579   32.2627 C   0  0  0  0  0  0  0  0  0  0  0  0
   24.6560    1.7786   33.0848 O   0  0  0  0  0  0  0  0  0  0  0  0
   23.6269    0.7782   33.0992 C   0  0  0  0  0  0  0  0  0  0  0  0
   23.9463   -0.0729   33.7069 H   0  0  0  0  0  0  0  0  0  0  0  0
   22.7024    1.1817   33.5247 H   0  0  0  0  0  0  0  0  0  0  0  0
   23.4231    0.4210   32.0837 H   0  0  0  0  0  0  0  0  0  0  0  0
   25.4978    3.7183   31.9551 C   0  0  0  0  0  0  0  0  0  0  0  0
   27.2475    3.4173   32.6749 Br  0  0  0  0  0  0  0  0  0  0  0  0
   25.2893    4.8186   31.1159 C   0  0  0  0  0  0  0  0  0  0  0  0
   26.1176    5.4787   30.8824 H   0  0  0  0  0  0  0  0  0  0  0  0
   24.0254    5.0986   30.5698 C   0  0  0  0  0  0  0  0  0  0  0  0
   23.8010    6.2044   29.7751 O   0  0  0  0  0  0  0  0  0  0  0  0
   24.9314    7.0656   29.5616 C   0  0  0  0  0  0  0  0  0  0  0  0
   25.7090    6.5466   28.9919 H   0  0  0  0  0  0  0  0  0  0  0  0
   24.6254    7.9625   29.0127 H   0  0  0  0  0  0  0  0  0  0  0  0
   25.3642    7.3719   30.5176 H   0  0  0  0  0  0  0  0  0  0  0  0
   19.9801    7.9866   32.5804 C   0  0  0  0  0  0  0  0  0  0  0  0
   19.5265    7.0981   32.9860 H   0  0  0  0  0  0  0  0  0  0  0  0
   19.5594    9.2287   32.9441 C   0  0  0  0  0  0  0  0  0  0  0  0
   18.5015    9.3176   33.7865 N   0  0  0  0  0  0  0  0  0  0  0  0
   17.8993   10.1241   33.6332 H   0  0  0  0  0  0  0  0  0  0  0  0
   18.0571    8.4348   34.0204 H   0  0  0  0  0  0  0  0  0  0  0  0
   20.1772   10.3565   32.4570 C   0  0  0  0  0  0  0  0  0  0  0  0
   19.7845   11.6494   32.9068 C   0  0  0  0  0  0  0  0  0  0  0  0
   19.5004   12.7002   33.3135 N   0  0  0  0  0  0  0  0  0  0  0  0
   24.0064   11.3371   29.4135 C   0  0  0  0  0  0  0  0  0  0  0  0
   23.4821   12.0294   28.7625 H   0  0  0  0  0  0  0  0  0  0  0  0
   25.2190   10.7745   28.9893 C   0  0  0  0  0  0  0  0  0  0  0  0
   25.6127   11.0015   28.0070 H   0  0  0  0  0  0  0  0  0  0  0  0
  1  2  1  0
  2  3  2  0
  3  4  1  0
  3  5  1  0
  5  6  1  0
  5  7  2  0
  7  8  1  0
  8  9  1  0
  8 10  1  0
  8 11  1  0
 11 12  2  0
 12 13  1  0
 13 14  1  0
 14 15  1  0
 14 16  1  0
 16 17  2  0
 16 18  1  0
 18 19  1  0
 18 20  1  0
 18 21  1  0
 21 22  2  0
 22 23  1  0
 22 24  1  0
 24 25  1  0
 25 26  1  0
 26 27  1  0
 26 28  1  0
 26 29  1  0
 24 30  2  0
 30 31  1  0
 30 32  1  0
 32 33  1  0
 32 34  2  0
 34 35  1  0
 35 36  1  0
 36 37  1  0
 36 38  1  0
 36 39  1  0
 13 40  2  0
 40 41  1  0
 40 42  1  0
 42 43  1  0
 43 44  1  0
 43 45  1  0
 42 46  2  0
 46 47  1  0
 47 48  3  0
  7 49  1  0
 49 50  1  0
 49 51  2  0
 51 52  1  0
 51  2  1  0
 46 11  1  0
 34 21  1  0
M  END
>  <score>  (207) 
7.54321

$$$$

     RDKit          3D

 57 59  0  0  0  0  0  0  0  0999 V2000
   26.1123    5.4993   30.9139 H   0  0  0  0  0  0  0  0  0  0  0  0
   25.2907    4.8247   31.1307 C   0  0  0  0  0  0  0  0  0  0  0  0
   25.5041    3.7201   31.9610 C   0  0  0  0  0  0  0  0  0  0  0  0
   27.2522    3.4377   32.6884 Br  0  0  0  0  0  0  0  0  0  0  0  0
   24.4458    2.8443   32.2513 C   0  0  0  0  0  0  0  0  0  0  0  0
   24.6701    1.7651   33.0746 O   0  0  0  0  0  0  0  0  0  0  0  0
   23.6317    0.7748   33.0987 C   0  0  0  0  0  0  0  0  0  0  0  0
   22.7125    1.1904   33.5237 H   0  0  0  0  0  0  0  0  0  0  0  0
   23.9424   -0.0777   33.7086 H   0  0  0  0  0  0  0  0  0  0  0  0
   23.4214    0.4180   32.0848 H   0  0  0  0  0  0  0  0  0  0  0  0
   23.1834    3.1080   31.6955 C   0  0  0  0  0  0  0  0  0  0  0  0
   22.3616    2.4402   31.9350 H   0  0  0  0  0  0  0  0  0  0  0  0
   22.9672    4.2082   30.8586 C   0  0  0  0  0  0  0  0  0  0  0  0
   21.5704    4.4492   30.3354 C   0  0  0  0  0  0  0  0  0  0  0  0
   21.6079    4.6678   29.2651 H   0  0  0  0  0  0  0  0  0  0  0  0
   20.9642    3.5484   30.4690 H   0  0  0  0  0  0  0  0  0  0  0  0
   20.9292    5.6169   31.0819 C   0  0  0  0  0  0  0  0  0  0  0  0
   19.7860    5.5288   31.5038 O   0  0  0  0  0  0  0  0  0  0  0  0
   21.6313    6.7826   31.2154 N   0  0  0  0  0  0  0  0  0  0  0  0
   22.4805    6.8890   30.6820 H   0  0  0  0  0  0  0  0  0  0  0  0
   21.1345    7.9351   31.7117 C   0  0  0  0  0  0  0  0  0  0  0  0
   21.8413    8.9820   31.3228 N   0  0  0  0  0  0  0  0  0  0  0  0
   21.4509   10.2233   31.6809 C   0  0  0  0  0  0  0  0  0  0  0  0
   22.3884   11.4119   31.4009 C   0  0  0  0  0  0  0  0  0  0  0  0
   23.4034   11.0311   31.2827 H   0  0  0  0  0  0  0  0  0  0  0  0
   22.3637   12.0270   32.3004 H   0  0  0  0  0  0  0  0  0  0  0  0
   22.0836   12.3387   30.2813 N   0  0  0  0  0  0  0  0  0  0  0  0
   21.8669   11.8393   28.9104 C   0  0  0  0  0  0  0  0  0  0  0  0
   21.3217   10.8901   28.9230 H   0  0  0  0  0  0  0  0  0  0  0  0
   22.8293   11.6557   28.4284 H   0  0  0  0  0  0  0  0  0  0  0  0
   21.0939   12.8972   28.1089 C   0  0  0  0  0  0  0  0  0  0  0  0
   21.7820   13.3821   27.4098 H   0  0  0  0  0  0  0  0  0  0  0  0
   20.2966   12.4580   27.5252 H   0  0  0  0  0  0  0  0  0  0  0  0
   20.4585   13.9387   29.0193 C   0  0  0  0  0  0  0  0  0  0  0  0
   19.8170   14.5724   28.4162 H   0  0  0  0  0  0  0  0  0  0  0  0
   19.8396   13.4579   29.7858 H   0  0  0  0  0  0  0  0  0  0  0  0
   21.5869   14.7017   29.7208 C   0  0  0  0  0  0  0  0  0  0  0  0
   22.1346   15.3081   28.9945 H   0  0  0  0  0  0  0  0  0  0  0  0
   21.1689   15.3700   30.4777 H   0  0  0  0  0  0  0  0  0  0  0  0
   22.5694   13.7272   30.3891 C   0  0  0  0  0  0  0  0  0  0  0  0
   22.6949   13.9978   31.4400 H   0  0  0  0  0  0  0  0  0  0  0  0
   23.5473   13.7929   29.9083 H   0  0  0  0  0  0  0  0  0  0  0  0
   20.2963   10.3941   32.4503 C   0  0  0  0  0  0  0  0  0  0  0  0
   19.8687   11.6770   32.9093 C   0  0  0  0  0  0  0  0  0  0  0  0
   19.5771   12.7162   33.3431 N   0  0  0  0  0  0  0  0  0  0  0  0
   19.6274    9.2665   32.8671 C   0  0  0  0  0  0  0  0  0  0  0  0
   18.5446    9.3335   33.6737 N   0  0  0  0  0  0  0  0  0  0  0  0
   18.0420    8.4632   33.8174 H   0  0  0  0  0  0  0  0  0  0  0  0
   18.0073   10.1919   33.6050 H   0  0  0  0  0  0  0  0  0  0  0  0
   20.0383    8.0246   32.5152 C   0  0  0  0  0  0  0  0  0  0  0  0
   19.5067    7.1516   32.8572 H   0  0  0  0  0  0  0  0  0  0  0  0
   24.0301    5.0907   30.5732 C   0  0  0  0  0  0  0  0  0  0  0  0
   23.8026    6.2003   29.7877 O   0  0  0  0  0  0  0  0  0  0  0  0
   24.9216    7.0831   29.6082 C   0  0  0  0  0  0  0  0  0  0  0  0
   25.7439    6.5613   29.1074 H   0  0  0  0  0  0  0  0  0  0  0  0
   25.2791    7.4521   30.5756 H   0  0  0  0  0  0  0  0  0  0  0  0
   24.6306    7.9414   28.9961 H   0  0  0  0  0  0  0  0  0  0  0  0
  1  2  1  0
  2  3  2  0
  3  4  1  0
  3  5  1  0
  5  6  1  0
  6  7  1  0
  7  8  1  0
  7  9  1  0
  7 10  1  0
  5 11  2  0
 11 12  1  0
 11 13  1  0
 13 14  1  0
 14 15  1  0
 14 16  1  0
 14 17  1  0
 17 18  2  0
 17 19  1  0
 19 20  1  0
 19 21  1  0
 21 22  2  0
 22 23  1  0
 23 24  1  0
 24 25  1  0
 24 26  1  0
 24 27  1  0
 27 28  1  0
 28 29  1  0
 28 30  1  0
 28 31  1  0
 31 32  1  0
 31 33  1  0
 31 34  1  0
 34 35  1  0
 34 36  1  0
 34 37  1  0
 37 38  1  0
 37 39  1  0
 37 40  1  0
 40 41  1  0
 40 42  1  0
 23 43  2  0
 43 44  1  0
 44 45  3  0
 43 46  1  0
 46 47  1  0
 47 48  1  0
 47 49  1  0
 46 50  2  0
 50 51  1  0
 13 52  2  0
 52 53  1  0
 53 54  1  0
 54 55  1  0
 54 56  1  0
 54 57  1  0
 52  2  1  0
 50 21  1  0
 40 27  1  0
M  END
>  <score>  (208) 
7.54344

$$$$

     RDKit          3D

 46 48  0  0  0  0  0  0  0  0999 V2000
   26.1841    5.4165   30.8452 H   0  0  0  0  0  0  0  0  0  0  0  0
   25.3412    4.7826   31.1016 C   0  0  0  0  0  0  0  0  0  0  0  0
   25.5236    3.6768   31.9456 C   0  0  0  0  0  0  0  0  0  0  0  0
   27.2738    3.3106   32.6364 Br  0  0  0  0  0  0  0  0  0  0  0  0
   24.4401    2.8452   32.2726 C   0  0  0  0  0  0  0  0  0  0  0  0
   24.6669    1.7843   33.1215 O   0  0  0  0  0  0  0  0  0  0  0  0
   23.6889    0.7358   33.1400 C   0  0  0  0  0  0  0  0  0  0  0  0
   24.0643   -0.0968   33.7416 H   0  0  0  0  0  0  0  0  0  0  0  0
   23.4946    0.3647   32.1288 H   0  0  0  0  0  0  0  0  0  0  0  0
   22.7487    1.0793   33.5811 H   0  0  0  0  0  0  0  0  0  0  0  0
   23.1781    3.1415   31.7308 C   0  0  0  0  0  0  0  0  0  0  0  0
   22.3443    2.4937   31.9823 H   0  0  0  0  0  0  0  0  0  0  0  0
   22.9910    4.2482   30.8855 C   0  0  0  0  0  0  0  0  0  0  0  0
   21.6107    4.5399   30.3372 C   0  0  0  0  0  0  0  0  0  0  0  0
   21.0045    3.6296   30.3268 H   0  0  0  0  0  0  0  0  0  0  0  0
   21.7075    4.8836   29.3060 H   0  0  0  0  0  0  0  0  0  0  0  0
   20.9035    5.6354   31.1318 C   0  0  0  0  0  0  0  0  0  0  0  0
   19.7135    5.5488   31.3848 O   0  0  0  0  0  0  0  0  0  0  0  0
   21.5688    6.8010   31.3775 N   0  0  0  0  0  0  0  0  0  0  0  0
   22.4526    6.9350   30.9109 H   0  0  0  0  0  0  0  0  0  0  0  0
   20.9794    7.9596   31.7404 C   0  0  0  0  0  0  0  0  0  0  0  0
   21.7306    8.9729   31.3582 N   0  0  0  0  0  0  0  0  0  0  0  0
   21.4106   10.2365   31.7076 C   0  0  0  0  0  0  0  0  0  0  0  0
   22.3175   11.3639   31.2815 C   0  0  0  0  0  0  0  0  0  0  0  0
   22.3477   12.5901   31.7922 N   0  0  0  0  0  0  0  0  0  0  0  0
   23.3487   13.2535   31.1366 N   0  0  0  0  0  0  0  0  0  0  0  0
   23.6222   14.2201   31.3318 H   0  0  0  0  0  0  0  0  0  0  0  0
   23.9628   12.4708   30.1734 C   0  0  0  0  0  0  0  0  0  0  0  0
   24.7684   12.7492   29.4945 H   0  0  0  0  0  0  0  0  0  0  0  0
   23.3352   11.2662   30.2331 C   0  0  0  0  0  0  0  0  0  0  0  0
   23.5389   10.3975   29.6093 H   0  0  0  0  0  0  0  0  0  0  0  0
   20.2724   10.4587   32.4890 C   0  0  0  0  0  0  0  0  0  0  0  0
   19.9251   11.7771   32.9106 C   0  0  0  0  0  0  0  0  0  0  0  0
   19.6679   12.8684   33.2258 N   0  0  0  0  0  0  0  0  0  0  0  0
   19.5090    9.3661   32.8537 C   0  0  0  0  0  0  0  0  0  0  0  0
   18.4324    9.4880   33.6593 N   0  0  0  0  0  0  0  0  0  0  0  0
   17.8981    8.6591   33.9103 H   0  0  0  0  0  0  0  0  0  0  0  0
   18.1384   10.4137   33.9533 H   0  0  0  0  0  0  0  0  0  0  0  0
   19.8311    8.1027   32.4649 C   0  0  0  0  0  0  0  0  0  0  0  0
   19.2308    7.2602   32.7662 H   0  0  0  0  0  0  0  0  0  0  0  0
   24.0795    5.0876   30.5682 C   0  0  0  0  0  0  0  0  0  0  0  0
   23.8557    6.1780   29.7532 O   0  0  0  0  0  0  0  0  0  0  0  0
   24.9309    7.1152   29.5886 C   0  0  0  0  0  0  0  0  0  0  0  0
   24.5884    7.9594   28.9837 H   0  0  0  0  0  0  0  0  0  0  0  0
   25.2630    7.5030   30.5569 H   0  0  0  0  0  0  0  0  0  0  0  0
   25.7830    6.6550   29.0784 H   0  0  0  0  0  0  0  0  0  0  0  0
  1  2  1  0
  2  3  2  0
  3  4  1  0
  3  5  1  0
  5  6  1  0
  6  7  1  0
  7  8  1  0
  7  9  1  0
  7 10  1  0
  5 11  2  0
 11 12  1  0
 11 13  1  0
 13 14  1  0
 14 15  1  0
 14 16  1  0
 14 17  1  0
 17 18  2  0
 17 19  1  0
 19 20  1  0
 19 21  1  0
 21 22  2  0
 22 23  1  0
 23 24  1  0
 24 25  2  0
 25 26  1  0
 26 27  1  0
 26 28  1  0
 28 29  1  0
 28 30  2  0
 30 31  1  0
 23 32  2  0
 32 33  1  0
 33 34  3  0
 32 35  1  0
 35 36  1  0
 36 37  1  0
 36 38  1  0
 35 39  2  0
 39 40  1  0
 13 41  2  0
 41 42  1  0
 42 43  1  0
 43 44  1  0
 43 45  1  0
 43 46  1  0
 41  2  1  0
 39 21  1  0
 30 24  1  0
M  END
>  <score>  (209) 
7.54389

$$$$

     RDKit          3D

 45 47  0  0  0  0  0  0  0  0999 V2000
   23.7800   14.0420   31.4978 H   0  0  0  0  0  0  0  0  0  0  0  0
   23.3375   13.0781   31.2605 C   0  0  0  0  0  0  0  0  0  0  0  0
   23.7676   12.3110   30.1896 N   0  0  0  0  0  0  0  0  0  0  0  0
   23.0173   11.2472   30.2394 C   0  0  0  0  0  0  0  0  0  0  0  0
   23.0523   10.4198   29.5382 H   0  0  0  0  0  0  0  0  0  0  0  0
   22.1724   11.3259   31.3171 N   0  0  0  0  0  0  0  0  0  0  0  0
   21.3688   10.2418   31.7080 C   0  0  0  0  0  0  0  0  0  0  0  0
   21.7326    9.0156   31.3039 N   0  0  0  0  0  0  0  0  0  0  0  0
   21.0161    7.9802   31.6905 C   0  0  0  0  0  0  0  0  0  0  0  0
   21.5951    6.8269   31.3246 N   0  0  0  0  0  0  0  0  0  0  0  0
   22.4943    6.9421   30.8838 H   0  0  0  0  0  0  0  0  0  0  0  0
   20.9232    5.6565   31.1183 C   0  0  0  0  0  0  0  0  0  0  0  0
   19.7350    5.5759   31.3840 O   0  0  0  0  0  0  0  0  0  0  0  0
   21.6134    4.5457   30.3373 C   0  0  0  0  0  0  0  0  0  0  0  0
   21.7086    4.8842   29.3037 H   0  0  0  0  0  0  0  0  0  0  0  0
   20.9956    3.6425   30.3419 H   0  0  0  0  0  0  0  0  0  0  0  0
   22.9922    4.2492   30.8860 C   0  0  0  0  0  0  0  0  0  0  0  0
   23.1783    3.1428   31.7319 C   0  0  0  0  0  0  0  0  0  0  0  0
   22.3432    2.4959   31.9814 H   0  0  0  0  0  0  0  0  0  0  0  0
   24.4405    2.8457   32.2723 C   0  0  0  0  0  0  0  0  0  0  0  0
   24.6666    1.7841   33.1198 O   0  0  0  0  0  0  0  0  0  0  0  0
   23.6880    0.7362   33.1390 C   0  0  0  0  0  0  0  0  0  0  0  0
   24.0631   -0.0961   33.7409 H   0  0  0  0  0  0  0  0  0  0  0  0
   23.4942    0.3655   32.1279 H   0  0  0  0  0  0  0  0  0  0  0  0
   22.7488    1.0812   33.5803 H   0  0  0  0  0  0  0  0  0  0  0  0
   25.5240    3.6776   31.9446 C   0  0  0  0  0  0  0  0  0  0  0  0
   27.2731    3.3131   32.6360 Br  0  0  0  0  0  0  0  0  0  0  0  0
   25.3415    4.7835   31.1020 C   0  0  0  0  0  0  0  0  0  0  0  0
   26.1851    5.4160   30.8457 H   0  0  0  0  0  0  0  0  0  0  0  0
   24.0800    5.0900   30.5708 C   0  0  0  0  0  0  0  0  0  0  0  0
   23.8551    6.1816   29.7580 O   0  0  0  0  0  0  0  0  0  0  0  0
   24.9320    7.1155   29.5895 C   0  0  0  0  0  0  0  0  0  0  0  0
   25.7797    6.6528   29.0750 H   0  0  0  0  0  0  0  0  0  0  0  0
   25.2682    7.5000   30.5572 H   0  0  0  0  0  0  0  0  0  0  0  0
   24.5893    7.9614   28.9875 H   0  0  0  0  0  0  0  0  0  0  0  0
   19.8810    8.0793   32.4333 C   0  0  0  0  0  0  0  0  0  0  0  0
   19.3028    7.2151   32.7216 H   0  0  0  0  0  0  0  0  0  0  0  0
   19.5313    9.3249   32.8416 C   0  0  0  0  0  0  0  0  0  0  0  0
   18.4533    9.3904   33.6346 N   0  0  0  0  0  0  0  0  0  0  0  0
   17.6067    9.1434   33.1343 H   0  0  0  0  0  0  0  0  0  0  0  0
   18.5831    8.8322   34.4715 H   0  0  0  0  0  0  0  0  0  0  0  0
   20.2611   10.4327   32.5034 C   0  0  0  0  0  0  0  0  0  0  0  0
   19.9051   11.7467   32.9317 C   0  0  0  0  0  0  0  0  0  0  0  0
   19.6426   12.8349   33.2436 N   0  0  0  0  0  0  0  0  0  0  0  0
   22.3530   12.5329   31.9397 N   0  0  0  0  0  0  0  0  0  0  0  0
  1  2  1  0
  2  3  1  0
  3  4  2  0
  4  5  1  0
  4  6  1  0
  6  7  1  0
  7  8  2  0
  8  9  1  0
  9 10  1  0
 10 11  1  0
 10 12  1  0
 12 13  2  0
 12 14  1  0
 14 15  1  0
 14 16  1  0
 14 17  1  0
 17 18  2  0
 18 19  1  0
 18 20  1  0
 20 21  1  0
 21 22  1  0
 22 23  1  0
 22 24  1  0
 22 25  1  0
 20 26  2  0
 26 27  1  0
 26 28  1  0
 28 29  1  0
 28 30  2  0
 30 31  1  0
 31 32  1  0
 32 33  1  0
 32 34  1  0
 32 35  1  0
  9 36  2  0
 36 37  1  0
 36 38  1  0
 38 39  1  0
 39 40  1  0
 39 41  1  0
 38 42  2  0
 42 43  1  0
 43 44  3  0
  6 45  1  0
 45  2  2  0
 42  7  1  0
 30 17  1  0
M  END
>  <score>  (210) 
7.54533

$$$$

     RDKit          3D

 55 57  0  0  0  0  0  0  0  0999 V2000
   26.1672    5.4336   30.8543 H   0  0  0  0  0  0  0  0  0  0  0  0
   25.3269    4.7975   31.1044 C   0  0  0  0  0  0  0  0  0  0  0  0
   25.5228    3.6986   31.9470 C   0  0  0  0  0  0  0  0  0  0  0  0
   27.2747    3.3602   32.6433 Br  0  0  0  0  0  0  0  0  0  0  0  0
   24.4474    2.8550   32.2696 C   0  0  0  0  0  0  0  0  0  0  0  0
   24.6733    1.7851   33.1065 O   0  0  0  0  0  0  0  0  0  0  0  0
   23.6775    0.7508   33.1258 C   0  0  0  0  0  0  0  0  0  0  0  0
   23.4780    0.3875   32.1119 H   0  0  0  0  0  0  0  0  0  0  0  0
   22.7407    1.1167   33.5594 H   0  0  0  0  0  0  0  0  0  0  0  0
   24.0314   -0.0931   33.7284 H   0  0  0  0  0  0  0  0  0  0  0  0
   23.1793    3.1404   31.7336 C   0  0  0  0  0  0  0  0  0  0  0  0
   22.3458    2.4893   31.9831 H   0  0  0  0  0  0  0  0  0  0  0  0
   22.9808    4.2504   30.8957 C   0  0  0  0  0  0  0  0  0  0  0  0
   21.5960    4.5612   30.3629 C   0  0  0  0  0  0  0  0  0  0  0  0
   21.6707    4.8937   29.3239 H   0  0  0  0  0  0  0  0  0  0  0  0
   20.9648    3.6717   30.4057 H   0  0  0  0  0  0  0  0  0  0  0  0
   20.9260    5.6837   31.1384 C   0  0  0  0  0  0  0  0  0  0  0  0
   19.7326    5.6304   31.3965 O   0  0  0  0  0  0  0  0  0  0  0  0
   21.6181    6.8370   31.3296 N   0  0  0  0  0  0  0  0  0  0  0  0
   22.4731    6.9558   30.8057 H   0  0  0  0  0  0  0  0  0  0  0  0
   21.0480    7.9937   31.7122 C   0  0  0  0  0  0  0  0  0  0  0  0
   21.7860    9.0064   31.3186 N   0  0  0  0  0  0  0  0  0  0  0  0
   21.4056   10.2417   31.6491 C   0  0  0  0  0  0  0  0  0  0  0  0
   22.2764   11.4298   31.2636 C   0  0  0  0  0  0  0  0  0  0  0  0
   22.3416   12.0393   32.1630 H   0  0  0  0  0  0  0  0  0  0  0  0
   21.6133   12.2884   30.1723 C   0  0  0  0  0  0  0  0  0  0  0  0
   20.5623   12.4694   30.4232 H   0  0  0  0  0  0  0  0  0  0  0  0
   22.1130   13.2604   30.1289 H   0  0  0  0  0  0  0  0  0  0  0  0
   21.7063   11.6112   28.8068 C   0  0  0  0  0  0  0  0  0  0  0  0
   21.1994   10.6528   28.8750 H   0  0  0  0  0  0  0  0  0  0  0  0
   21.2135   12.2289   28.0444 H   0  0  0  0  0  0  0  0  0  0  0  0
   23.1436   11.2968   28.4141 C   0  0  0  0  0  0  0  0  0  0  0  0
   23.1537   10.7469   27.4698 H   0  0  0  0  0  0  0  0  0  0  0  0
   23.7026   12.2282   28.2847 H   0  0  0  0  0  0  0  0  0  0  0  0
   23.7921   10.4119   29.4725 C   0  0  0  0  0  0  0  0  0  0  0  0
   24.8341   10.2191   29.2052 H   0  0  0  0  0  0  0  0  0  0  0  0
   23.2732    9.4475   29.4812 H   0  0  0  0  0  0  0  0  0  0  0  0
   23.7212   11.0600   30.8612 C   0  0  0  0  0  0  0  0  0  0  0  0
   24.1443   10.3743   31.5992 H   0  0  0  0  0  0  0  0  0  0  0  0
   24.3373   11.9668   30.8716 H   0  0  0  0  0  0  0  0  0  0  0  0
   20.2684   10.4522   32.4209 C   0  0  0  0  0  0  0  0  0  0  0  0
   19.9214   11.7631   32.8502 C   0  0  0  0  0  0  0  0  0  0  0  0
   19.6914   12.8385   33.2229 N   0  0  0  0  0  0  0  0  0  0  0  0
   19.5293    9.3703   32.8165 C   0  0  0  0  0  0  0  0  0  0  0  0
   18.4643    9.4934   33.6402 N   0  0  0  0  0  0  0  0  0  0  0  0
   17.9302    8.6607   33.8813 H   0  0  0  0  0  0  0  0  0  0  0  0
   18.1522   10.4230   33.9065 H   0  0  0  0  0  0  0  0  0  0  0  0
   19.8919    8.1201   32.4395 C   0  0  0  0  0  0  0  0  0  0  0  0
   19.3175    7.2662   32.7500 H   0  0  0  0  0  0  0  0  0  0  0  0
   24.0627    5.0947   30.5765 C   0  0  0  0  0  0  0  0  0  0  0  0
   23.8408    6.1844   29.7604 O   0  0  0  0  0  0  0  0  0  0  0  0
   24.9337    7.0987   29.5876 C   0  0  0  0  0  0  0  0  0  0  0  0
   25.1631    7.5936   30.5361 H   0  0  0  0  0  0  0  0  0  0  0  0
   25.8346    6.5826   29.2350 H   0  0  0  0  0  0  0  0  0  0  0  0
   24.6643    7.8660   28.8545 H   0  0  0  0  0  0  0  0  0  0  0  0
  1  2  1  0
  2  3  2  0
  3  4  1  0
  3  5  1  0
  5  6  1  0
  6  7  1  0
  7  8  1  0
  7  9  1  0
  7 10  1  0
  5 11  2  0
 11 12  1  0
 11 13  1  0
 13 14  1  0
 14 15  1  0
 14 16  1  0
 14 17  1  0
 17 18  2  0
 17 19  1  0
 19 20  1  0
 19 21  1  0
 21 22  2  0
 22 23  1  0
 23 24  1  0
 24 25  1  0
 24 26  1  0
 26 27  1  0
 26 28  1  0
 26 29  1  0
 29 30  1  0
 29 31  1  0
 29 32  1  0
 32 33  1  0
 32 34  1  0
 32 35  1  0
 35 36  1  0
 35 37  1  0
 35 38  1  0
 38 39  1  0
 38 40  1  0
 23 41  2  0
 41 42  1  0
 42 43  3  0
 41 44  1  0
 44 45  1  0
 45 46  1  0
 45 47  1  0
 44 48  2  0
 48 49  1  0
 13 50  2  0
 50 51  1  0
 51 52  1  0
 52 53  1  0
 52 54  1  0
 52 55  1  0
 50  2  1  0
 48 21  1  0
 38 24  1  0
M  END
>  <score>  (211) 
7.54544

$$$$

     RDKit          3D

 56 57  0  0  0  0  0  0  0  0999 V2000
   26.1103    5.5034   30.9135 H   0  0  0  0  0  0  0  0  0  0  0  0
   25.2872    4.8296   31.1311 C   0  0  0  0  0  0  0  0  0  0  0  0
   25.4991    3.7251   31.9629 C   0  0  0  0  0  0  0  0  0  0  0  0
   27.2464    3.4380   32.6913 Br  0  0  0  0  0  0  0  0  0  0  0  0
   24.4411    2.8482   32.2486 C   0  0  0  0  0  0  0  0  0  0  0  0
   24.6667    1.7668   33.0694 O   0  0  0  0  0  0  0  0  0  0  0  0
   23.6273    0.7780   33.0950 C   0  0  0  0  0  0  0  0  0  0  0  0
   23.4153    0.4194   32.0816 H   0  0  0  0  0  0  0  0  0  0  0  0
   22.7084    1.1950   33.5203 H   0  0  0  0  0  0  0  0  0  0  0  0
   23.9401   -0.0730   33.7066 H   0  0  0  0  0  0  0  0  0  0  0  0
   23.1794    3.1116   31.6903 C   0  0  0  0  0  0  0  0  0  0  0  0
   22.3573    2.4439   31.9252 H   0  0  0  0  0  0  0  0  0  0  0  0
   22.9626    4.2150   30.8590 C   0  0  0  0  0  0  0  0  0  0  0  0
   21.5677    4.4602   30.3449 C   0  0  0  0  0  0  0  0  0  0  0  0
   20.9650    3.5558   30.4717 H   0  0  0  0  0  0  0  0  0  0  0  0
   21.6028    4.6945   29.2792 H   0  0  0  0  0  0  0  0  0  0  0  0
   20.9337    5.6203   31.1047 C   0  0  0  0  0  0  0  0  0  0  0  0
   19.7959    5.5200   31.5344 O   0  0  0  0  0  0  0  0  0  0  0  0
   21.6332    6.7912   31.2361 N   0  0  0  0  0  0  0  0  0  0  0  0
   22.4913    6.8930   30.7120 H   0  0  0  0  0  0  0  0  0  0  0  0
   21.1283    7.9357   31.7570 C   0  0  0  0  0  0  0  0  0  0  0  0
   21.8331    8.9937   31.4042 N   0  0  0  0  0  0  0  0  0  0  0  0
   21.4145   10.2211   31.7727 C   0  0  0  0  0  0  0  0  0  0  0  0
   22.2871   11.4353   31.4143 C   0  0  0  0  0  0  0  0  0  0  0  0
   23.3189   11.0953   31.2813 H   0  0  0  0  0  0  0  0  0  0  0  0
   22.2710   12.1095   32.2738 H   0  0  0  0  0  0  0  0  0  0  0  0
   21.8879   12.2444   30.2291 N   0  0  0  0  0  0  0  0  0  0  0  0
   22.4738   13.5953   30.1723 C   0  0  0  0  0  0  0  0  0  0  0  0
   22.5146   14.0264   31.1775 H   0  0  0  0  0  0  0  0  0  0  0  0
   23.4964   13.5377   29.7899 H   0  0  0  0  0  0  0  0  0  0  0  0
   21.6301   14.4940   29.2819 C   0  0  0  0  0  0  0  0  0  0  0  0
   21.5806   14.0790   28.2728 H   0  0  0  0  0  0  0  0  0  0  0  0
   22.0688   15.4932   29.2339 H   0  0  0  0  0  0  0  0  0  0  0  0
   20.6152   14.5750   29.6813 H   0  0  0  0  0  0  0  0  0  0  0  0
   21.8140   11.5093   28.9537 C   0  0  0  0  0  0  0  0  0  0  0  0
   21.2907   12.1148   28.2094 H   0  0  0  0  0  0  0  0  0  0  0  0
   21.2531   10.5837   29.0977 H   0  0  0  0  0  0  0  0  0  0  0  0
   23.1981   11.1517   28.4422 C   0  0  0  0  0  0  0  0  0  0  0  0
   23.1102   10.4959   27.5738 H   0  0  0  0  0  0  0  0  0  0  0  0
   23.7396   12.0506   28.1428 H   0  0  0  0  0  0  0  0  0  0  0  0
   23.7673   10.6373   29.2195 H   0  0  0  0  0  0  0  0  0  0  0  0
   20.2641   10.3721   32.5471 C   0  0  0  0  0  0  0  0  0  0  0  0
   19.8300   11.6573   32.9881 C   0  0  0  0  0  0  0  0  0  0  0  0
   19.4929   12.7093   33.3541 N   0  0  0  0  0  0  0  0  0  0  0  0
   19.5915    9.2398   32.9289 C   0  0  0  0  0  0  0  0  0  0  0  0
   18.5000    9.2827   33.7165 N   0  0  0  0  0  0  0  0  0  0  0  0
   17.9778   10.1562   33.6939 H   0  0  0  0  0  0  0  0  0  0  0  0
   17.9788    8.4108   33.7622 H   0  0  0  0  0  0  0  0  0  0  0  0
   20.0109    8.0071   32.5412 C   0  0  0  0  0  0  0  0  0  0  0  0
   19.4998    7.1200   32.8733 H   0  0  0  0  0  0  0  0  0  0  0  0
   24.0261    5.0956   30.5736 C   0  0  0  0  0  0  0  0  0  0  0  0
   23.8019    6.2068   29.7885 O   0  0  0  0  0  0  0  0  0  0  0  0
   24.9205    7.0897   29.6066 C   0  0  0  0  0  0  0  0  0  0  0  0
   25.2772    7.4576   30.5745 H   0  0  0  0  0  0  0  0  0  0  0  0
   25.7421    6.5674   29.1052 H   0  0  0  0  0  0  0  0  0  0  0  0
   24.6295    7.9486   28.9941 H   0  0  0  0  0  0  0  0  0  0  0  0
  1  2  1  0
  2  3  2  0
  3  4  1  0
  3  5  1  0
  5  6  1  0
  6  7  1  0
  7  8  1  0
  7  9  1  0
  7 10  1  0
  5 11  2  0
 11 12  1  0
 11 13  1  0
 13 14  1  0
 14 15  1  0
 14 16  1  0
 14 17  1  0
 17 18  2  0
 17 19  1  0
 19 20  1  0
 19 21  1  0
 21 22  2  0
 22 23  1  0
 23 24  1  0
 24 25  1  0
 24 26  1  0
 24 27  1  0
 27 28  1  0
 28 29  1  0
 28 30  1  0
 28 31  1  0
 31 32  1  0
 31 33  1  0
 31 34  1  0
 27 35  1  0
 35 36  1  0
 35 37  1  0
 35 38  1  0
 38 39  1  0
 38 40  1  0
 38 41  1  0
 23 42  2  0
 42 43  1  0
 43 44  3  0
 42 45  1  0
 45 46  1  0
 46 47  1  0
 46 48  1  0
 45 49  2  0
 49 50  1  0
 13 51  2  0
 51 52  1  0
 52 53  1  0
 53 54  1  0
 53 55  1  0
 53 56  1  0
 51  2  1  0
 49 21  1  0
M  END
>  <score>  (212) 
7.54574

$$$$

     RDKit          3D

 50 52  0  0  0  0  0  0  0  0999 V2000
   26.0342    9.2593   30.9049 H   0  0  0  0  0  0  0  0  0  0  0  0
   25.3929   10.0847   30.6188 C   0  0  0  0  0  0  0  0  0  0  0  0
   24.1025   10.1941   31.1456 C   0  0  0  0  0  0  0  0  0  0  0  0
   23.7243    9.4637   31.8552 H   0  0  0  0  0  0  0  0  0  0  0  0
   23.2794   11.2629   30.7676 C   0  0  0  0  0  0  0  0  0  0  0  0
   22.0054   11.4130   31.2343 O   0  0  0  0  0  0  0  0  0  0  0  0
   21.3491   10.2928   31.6581 C   0  0  0  0  0  0  0  0  0  0  0  0
   21.7226    9.0936   31.2097 N   0  0  0  0  0  0  0  0  0  0  0  0
   21.0044    8.0615   31.5590 C   0  0  0  0  0  0  0  0  0  0  0  0
   21.5057    6.9449   31.0062 N   0  0  0  0  0  0  0  0  0  0  0  0
   22.3713    7.0672   30.5001 H   0  0  0  0  0  0  0  0  0  0  0  0
   20.9407    5.7098   31.0839 C   0  0  0  0  0  0  0  0  0  0  0  0
   19.8887    5.5505   31.6846 O   0  0  0  0  0  0  0  0  0  0  0  0
   21.5852    4.5594   30.3288 C   0  0  0  0  0  0  0  0  0  0  0  0
   21.6722    4.8320   29.2720 H   0  0  0  0  0  0  0  0  0  0  0  0
   20.9366    3.6869   30.4007 H   0  0  0  0  0  0  0  0  0  0  0  0
   22.9602    4.2609   30.8830 C   0  0  0  0  0  0  0  0  0  0  0  0
   23.1589    3.1536   31.7254 C   0  0  0  0  0  0  0  0  0  0  0  0
   22.3276    2.4997   31.9719 H   0  0  0  0  0  0  0  0  0  0  0  0
   24.4283    2.8677   32.2611 C   0  0  0  0  0  0  0  0  0  0  0  0
   24.6604    1.7953   33.0932 O   0  0  0  0  0  0  0  0  0  0  0  0
   23.6686    0.7583   33.1179 C   0  0  0  0  0  0  0  0  0  0  0  0
   22.7343    1.1260   33.5538 H   0  0  0  0  0  0  0  0  0  0  0  0
   24.0293   -0.0812   33.7236 H   0  0  0  0  0  0  0  0  0  0  0  0
   23.4709    0.3930   32.1047 H   0  0  0  0  0  0  0  0  0  0  0  0
   25.5039    3.7124   31.9403 C   0  0  0  0  0  0  0  0  0  0  0  0
   27.2580    3.3719   32.6306 Br  0  0  0  0  0  0  0  0  0  0  0  0
   25.3067    4.8092   31.0976 C   0  0  0  0  0  0  0  0  0  0  0  0
   26.1494    5.4414   30.8434 H   0  0  0  0  0  0  0  0  0  0  0  0
   24.0431    5.1063   30.5697 C   0  0  0  0  0  0  0  0  0  0  0  0
   23.8320    6.1993   29.7563 O   0  0  0  0  0  0  0  0  0  0  0  0
   24.9319    7.1082   29.5992 C   0  0  0  0  0  0  0  0  0  0  0  0
   25.2819    7.4496   30.5784 H   0  0  0  0  0  0  0  0  0  0  0  0
   24.6128    7.9795   29.0175 H   0  0  0  0  0  0  0  0  0  0  0  0
   25.7638    6.6242   29.0765 H   0  0  0  0  0  0  0  0  0  0  0  0
   19.9083    8.1352   32.3756 C   0  0  0  0  0  0  0  0  0  0  0  0
   19.3358    7.2660   32.6426 H   0  0  0  0  0  0  0  0  0  0  0  0
   19.5794    9.3574   32.8693 C   0  0  0  0  0  0  0  0  0  0  0  0
   18.5400    9.4603   33.7208 N   0  0  0  0  0  0  0  0  0  0  0  0
   18.1684   10.3911   33.8980 H   0  0  0  0  0  0  0  0  0  0  0  0
   17.9522    8.6418   33.8532 H   0  0  0  0  0  0  0  0  0  0  0  0
   20.2787   10.4660   32.5031 C   0  0  0  0  0  0  0  0  0  0  0  0
   19.9251   11.7748   32.9434 C   0  0  0  0  0  0  0  0  0  0  0  0
   19.6602   12.8619   33.2548 N   0  0  0  0  0  0  0  0  0  0  0  0
   23.7529   12.2130   29.8684 C   0  0  0  0  0  0  0  0  0  0  0  0
   23.0761   12.9936   29.5468 H   0  0  0  0  0  0  0  0  0  0  0  0
   25.0487   12.1244   29.3515 C   0  0  0  0  0  0  0  0  0  0  0  0
   25.4071   12.8753   28.6508 H   0  0  0  0  0  0  0  0  0  0  0  0
   25.8775   11.0634   29.7388 C   0  0  0  0  0  0  0  0  0  0  0  0
   27.5239   10.9781   29.1567 Cl  0  0  0  0  0  0  0  0  0  0  0  0
  1  2  1  0
  2  3  2  0
  3  4  1  0
  3  5  1  0
  5  6  1  0
  6  7  1  0
  7  8  2  0
  8  9  1  0
  9 10  1  0
 10 11  1  0
 10 12  1  0
 12 13  2  0
 12 14  1  0
 14 15  1  0
 14 16  1  0
 14 17  1  0
 17 18  2  0
 18 19  1  0
 18 20  1  0
 20 21  1  0
 21 22  1  0
 22 23  1  0
 22 24  1  0
 22 25  1  0
 20 26  2  0
 26 27  1  0
 26 28  1  0
 28 29  1  0
 28 30  2  0
 30 31  1  0
 31 32  1  0
 32 33  1  0
 32 34  1  0
 32 35  1  0
  9 36  2  0
 36 37  1  0
 36 38  1  0
 38 39  1  0
 39 40  1  0
 39 41  1  0
 38 42  2  0
 42 43  1  0
 43 44  3  0
  5 45  2  0
 45 46  1  0
 45 47  1  0
 47 48  1  0
 47 49  2  0
 49 50  1  0
 49  2  1  0
 42  7  1  0
 30 17  1  0
M  END
>  <score>  (213) 
7.54719

$$$$

     RDKit          3D

 50 52  0  0  0  0  0  0  0  0999 V2000
   26.8597   10.9526   29.3015 H   0  0  0  0  0  0  0  0  0  0  0  0
   25.8633   11.0526   29.7194 C   0  0  0  0  0  0  0  0  0  0  0  0
   25.3856   10.0810   30.6087 C   0  0  0  0  0  0  0  0  0  0  0  0
   26.0198    9.2480   30.8920 H   0  0  0  0  0  0  0  0  0  0  0  0
   24.1052   10.2101   31.1534 C   0  0  0  0  0  0  0  0  0  0  0  0
   23.7255    9.4801   31.8610 H   0  0  0  0  0  0  0  0  0  0  0  0
   23.2859   11.2851   30.7865 C   0  0  0  0  0  0  0  0  0  0  0  0
   22.0031   11.4211   31.2376 O   0  0  0  0  0  0  0  0  0  0  0  0
   21.3486   10.2965   31.6591 C   0  0  0  0  0  0  0  0  0  0  0  0
   21.7220    9.0984   31.2092 N   0  0  0  0  0  0  0  0  0  0  0  0
   21.0058    8.0619   31.5592 C   0  0  0  0  0  0  0  0  0  0  0  0
   21.5026    6.9412   31.0026 N   0  0  0  0  0  0  0  0  0  0  0  0
   22.3626    7.0557   30.4861 H   0  0  0  0  0  0  0  0  0  0  0  0
   20.9340    5.7042   31.0831 C   0  0  0  0  0  0  0  0  0  0  0  0
   19.8829    5.5367   31.6826 O   0  0  0  0  0  0  0  0  0  0  0  0
   21.5865    4.5577   30.3259 C   0  0  0  0  0  0  0  0  0  0  0  0
   21.6783    4.8353   29.2698 H   0  0  0  0  0  0  0  0  0  0  0  0
   20.9430    3.6792   30.3918 H   0  0  0  0  0  0  0  0  0  0  0  0
   22.9606    4.2608   30.8839 C   0  0  0  0  0  0  0  0  0  0  0  0
   23.1590    3.1534   31.7260 C   0  0  0  0  0  0  0  0  0  0  0  0
   22.3264    2.5007   31.9724 H   0  0  0  0  0  0  0  0  0  0  0  0
   24.4285    2.8675   32.2619 C   0  0  0  0  0  0  0  0  0  0  0  0
   24.6609    1.7959   33.0947 O   0  0  0  0  0  0  0  0  0  0  0  0
   23.6705    0.7564   33.1197 C   0  0  0  0  0  0  0  0  0  0  0  0
   22.7344    1.1212   33.5556 H   0  0  0  0  0  0  0  0  0  0  0  0
   23.4719    0.3898   32.1068 H   0  0  0  0  0  0  0  0  0  0  0  0
   24.0327   -0.0833   33.7253 H   0  0  0  0  0  0  0  0  0  0  0  0
   25.5051    3.7104   31.9401 C   0  0  0  0  0  0  0  0  0  0  0  0
   27.2592    3.3670   32.6306 Br  0  0  0  0  0  0  0  0  0  0  0  0
   25.3082    4.8081   31.0983 C   0  0  0  0  0  0  0  0  0  0  0  0
   26.1521    5.4390   30.8443 H   0  0  0  0  0  0  0  0  0  0  0  0
   24.0439    5.1057   30.5700 C   0  0  0  0  0  0  0  0  0  0  0  0
   23.8314    6.1972   29.7546 O   0  0  0  0  0  0  0  0  0  0  0  0
   24.9300    7.1088   29.5986 C   0  0  0  0  0  0  0  0  0  0  0  0
   24.6091    7.9795   29.0167 H   0  0  0  0  0  0  0  0  0  0  0  0
   25.2804    7.4524   30.5776 H   0  0  0  0  0  0  0  0  0  0  0  0
   25.7643    6.6279   29.0758 H   0  0  0  0  0  0  0  0  0  0  0  0
   19.9103    8.1358   32.3795 C   0  0  0  0  0  0  0  0  0  0  0  0
   19.3380    7.2637   32.6444 H   0  0  0  0  0  0  0  0  0  0  0  0
   19.5765    9.3592   32.8702 C   0  0  0  0  0  0  0  0  0  0  0  0
   18.5355    9.4638   33.7205 N   0  0  0  0  0  0  0  0  0  0  0  0
   17.9515    8.6421   33.8543 H   0  0  0  0  0  0  0  0  0  0  0  0
   18.1653   10.3945   33.9023 H   0  0  0  0  0  0  0  0  0  0  0  0
   20.2777   10.4674   32.5045 C   0  0  0  0  0  0  0  0  0  0  0  0
   19.9245   11.7753   32.9421 C   0  0  0  0  0  0  0  0  0  0  0  0
   19.6651   12.8660   33.2494 N   0  0  0  0  0  0  0  0  0  0  0  0
   23.7642   12.2379   29.8906 C   0  0  0  0  0  0  0  0  0  0  0  0
   23.0921   13.0271   29.5776 H   0  0  0  0  0  0  0  0  0  0  0  0
   25.0554   12.1406   29.3624 C   0  0  0  0  0  0  0  0  0  0  0  0
   25.4150   12.9064   28.6775 H   0  0  0  0  0  0  0  0  0  0  0  0
  1  2  1  0
  2  3  2  0
  3  4  1  0
  3  5  1  0
  5  6  1  0
  5  7  2  0
  7  8  1  0
  8  9  1  0
  9 10  2  0
 10 11  1  0
 11 12  1  0
 12 13  1  0
 12 14  1  0
 14 15  2  0
 14 16  1  0
 16 17  1  0
 16 18  1  0
 16 19  1  0
 19 20  2  0
 20 21  1  0
 20 22  1  0
 22 23  1  0
 23 24  1  0
 24 25  1  0
 24 26  1  0
 24 27  1  0
 22 28  2  0
 28 29  1  0
 28 30  1  0
 30 31  1  0
 30 32  2  0
 32 33  1  0
 33 34  1  0
 34 35  1  0
 34 36  1  0
 34 37  1  0
 11 38  2  0
 38 39  1  0
 38 40  1  0
 40 41  1  0
 41 42  1  0
 41 43  1  0
 40 44  2  0
 44 45  1  0
 45 46  3  0
  7 47  1  0
 47 48  1  0
 47 49  2  0
 49 50  1  0
 49  2  1  0
 44  9  1  0
 32 19  1  0
M  END
>  <score>  (214) 
7.54877

$$$$

     RDKit          3D

 49 51  0  0  0  0  0  0  0  0999 V2000
   22.9186   14.0997   29.7616 H   0  0  0  0  0  0  0  0  0  0  0  0
   22.8728   13.1267   30.2490 C   0  0  0  0  0  0  0  0  0  0  0  0
   23.9804   12.4182   30.7032 N   0  0  0  0  0  0  0  0  0  0  0  0
   23.5036   11.3127   31.2196 C   0  0  0  0  0  0  0  0  0  0  0  0
   24.3293   10.2660   31.8743 C   0  0  0  0  0  0  0  0  0  0  0  0
   23.7261    9.7754   32.6425 H   0  0  0  0  0  0  0  0  0  0  0  0
   25.1999   10.7299   32.3420 H   0  0  0  0  0  0  0  0  0  0  0  0
   24.6580    9.5178   31.1481 H   0  0  0  0  0  0  0  0  0  0  0  0
   22.1281   11.2693   31.1609 N   0  0  0  0  0  0  0  0  0  0  0  0
   21.3733   10.2160   31.6617 C   0  0  0  0  0  0  0  0  0  0  0  0
   21.8368    9.0013   31.3806 N   0  0  0  0  0  0  0  0  0  0  0  0
   21.1102    7.9813   31.7584 C   0  0  0  0  0  0  0  0  0  0  0  0
   21.6643    6.8311   31.3450 N   0  0  0  0  0  0  0  0  0  0  0  0
   22.5295    6.9339   30.8359 H   0  0  0  0  0  0  0  0  0  0  0  0
   20.9452    5.6915   31.1380 C   0  0  0  0  0  0  0  0  0  0  0  0
   19.7637    5.6460   31.4402 O   0  0  0  0  0  0  0  0  0  0  0  0
   21.5924    4.5521   30.3553 C   0  0  0  0  0  0  0  0  0  0  0  0
   21.6639    4.8473   29.3033 H   0  0  0  0  0  0  0  0  0  0  0  0
   20.9599    3.6603   30.4156 H   0  0  0  0  0  0  0  0  0  0  0  0
   22.9813    4.2466   30.8802 C   0  0  0  0  0  0  0  0  0  0  0  0
   23.1778    3.1417   31.7254 C   0  0  0  0  0  0  0  0  0  0  0  0
   22.3434    2.4943   31.9791 H   0  0  0  0  0  0  0  0  0  0  0  0
   24.4455    2.8526   32.2648 C   0  0  0  0  0  0  0  0  0  0  0  0
   24.6733    1.7816   33.0996 O   0  0  0  0  0  0  0  0  0  0  0  0
   23.6704    0.7572   33.1186 C   0  0  0  0  0  0  0  0  0  0  0  0
   24.0184   -0.0864   33.7226 H   0  0  0  0  0  0  0  0  0  0  0  0
   23.4696    0.3962   32.1055 H   0  0  0  0  0  0  0  0  0  0  0  0
   22.7389    1.1340   33.5501 H   0  0  0  0  0  0  0  0  0  0  0  0
   25.5227    3.6982   31.9474 C   0  0  0  0  0  0  0  0  0  0  0  0
   27.2784    3.3722   32.6448 Br  0  0  0  0  0  0  0  0  0  0  0  0
   25.3295    4.7983   31.1042 C   0  0  0  0  0  0  0  0  0  0  0  0
   26.1693    5.4403   30.8585 H   0  0  0  0  0  0  0  0  0  0  0  0
   24.0658    5.0924   30.5695 C   0  0  0  0  0  0  0  0  0  0  0  0
   23.8391    6.1942   29.7730 O   0  0  0  0  0  0  0  0  0  0  0  0
   24.9359    7.1015   29.6039 C   0  0  0  0  0  0  0  0  0  0  0  0
   24.6108    7.9696   29.0225 H   0  0  0  0  0  0  0  0  0  0  0  0
   25.7601    6.6138   29.0747 H   0  0  0  0  0  0  0  0  0  0  0  0
   25.3002    7.4489   30.5754 H   0  0  0  0  0  0  0  0  0  0  0  0
   19.9428    8.0792   32.4607 C   0  0  0  0  0  0  0  0  0  0  0  0
   19.3793    7.2147   32.7579 H   0  0  0  0  0  0  0  0  0  0  0  0
   19.5299    9.3154   32.8168 C   0  0  0  0  0  0  0  0  0  0  0  0
   18.4416    9.3888   33.6129 N   0  0  0  0  0  0  0  0  0  0  0  0
   17.5746    9.2229   33.1119 H   0  0  0  0  0  0  0  0  0  0  0  0
   18.5380    8.8305   34.4546 H   0  0  0  0  0  0  0  0  0  0  0  0
   20.2245   10.4202   32.4158 C   0  0  0  0  0  0  0  0  0  0  0  0
   19.8446   11.7268   32.8447 C   0  0  0  0  0  0  0  0  0  0  0  0
   19.6005   12.8010   33.2149 N   0  0  0  0  0  0  0  0  0  0  0  0
   21.7186   12.4431   30.5418 C   0  0  0  0  0  0  0  0  0  0  0  0
   20.7008   12.7662   30.3255 H   0  0  0  0  0  0  0  0  0  0  0  0
  1  2  1  0
  2  3  1  0
  3  4  2  0
  4  5  1  0
  5  6  1  0
  5  7  1  0
  5  8  1  0
  4  9  1  0
  9 10  1  0
 10 11  2  0
 11 12  1  0
 12 13  1  0
 13 14  1  0
 13 15  1  0
 15 16  2  0
 15 17  1  0
 17 18  1  0
 17 19  1  0
 17 20  1  0
 20 21  2  0
 21 22  1  0
 21 23  1  0
 23 24  1  0
 24 25  1  0
 25 26  1  0
 25 27  1  0
 25 28  1  0
 23 29  2  0
 29 30  1  0
 29 31  1  0
 31 32  1  0
 31 33  2  0
 33 34  1  0
 34 35  1  0
 35 36  1  0
 35 37  1  0
 35 38  1  0
 12 39  2  0
 39 40  1  0
 39 41  1  0
 41 42  1  0
 42 43  1  0
 42 44  1  0
 41 45  2  0
 45 46  1  0
 46 47  3  0
  9 48  1  0
 48 49  1  0
 48  2  2  0
 45 10  1  0
 33 20  1  0
M  END
>  <score>  (215) 
7.5492

$$$$

     RDKit          3D

 58 60  0  0  0  0  0  0  0  0999 V2000
   26.1435    5.4630   30.8702 H   0  0  0  0  0  0  0  0  0  0  0  0
   25.3058    4.8158   31.1122 C   0  0  0  0  0  0  0  0  0  0  0  0
   25.5116    3.7161   31.9492 C   0  0  0  0  0  0  0  0  0  0  0  0
   27.2736    3.4275   32.6515 Br  0  0  0  0  0  0  0  0  0  0  0  0
   24.4408    2.8612   32.2572 C   0  0  0  0  0  0  0  0  0  0  0  0
   24.6776    1.7798   33.0740 O   0  0  0  0  0  0  0  0  0  0  0  0
   23.6546    0.7763   33.0987 C   0  0  0  0  0  0  0  0  0  0  0  0
   23.4465    0.4165   32.0864 H   0  0  0  0  0  0  0  0  0  0  0  0
   22.7325    1.1773   33.5284 H   0  0  0  0  0  0  0  0  0  0  0  0
   23.9787   -0.0730   33.7058 H   0  0  0  0  0  0  0  0  0  0  0  0
   23.1685    3.1521   31.7281 C   0  0  0  0  0  0  0  0  0  0  0  0
   22.3424    2.4942   31.9763 H   0  0  0  0  0  0  0  0  0  0  0  0
   22.9531    4.2641   30.9022 C   0  0  0  0  0  0  0  0  0  0  0  0
   21.5534    4.5394   30.3818 C   0  0  0  0  0  0  0  0  0  0  0  0
   21.6053    4.8120   29.3290 H   0  0  0  0  0  0  0  0  0  0  0  0
   20.9210    3.6523   30.4722 H   0  0  0  0  0  0  0  0  0  0  0  0
   20.8994    5.6974   31.1112 C   0  0  0  0  0  0  0  0  0  0  0  0
   19.7396    5.6326   31.4861 O   0  0  0  0  0  0  0  0  0  0  0  0
   21.6104    6.8468   31.2673 N   0  0  0  0  0  0  0  0  0  0  0  0
   22.4883    6.9393   30.7843 H   0  0  0  0  0  0  0  0  0  0  0  0
   21.0769    7.9971   31.6942 C   0  0  0  0  0  0  0  0  0  0  0  0
   21.8061    9.0147   31.2997 N   0  0  0  0  0  0  0  0  0  0  0  0
   21.4177   10.2345   31.6569 C   0  0  0  0  0  0  0  0  0  0  0  0
   22.3148   11.3705   31.2508 C   0  0  0  0  0  0  0  0  0  0  0  0
   23.3089   10.9778   31.0147 H   0  0  0  0  0  0  0  0  0  0  0  0
   22.4124   12.0463   32.1015 H   0  0  0  0  0  0  0  0  0  0  0  0
   21.7817   12.1658   30.0466 C   0  0  0  0  0  0  0  0  0  0  0  0
   20.7352   12.4264   30.2323 H   0  0  0  0  0  0  0  0  0  0  0  0
   21.8810   11.3365   28.7505 C   0  0  0  0  0  0  0  0  0  0  0  0
   21.3606   11.8559   27.9372 H   0  0  0  0  0  0  0  0  0  0  0  0
   21.3954   10.3680   28.8925 H   0  0  0  0  0  0  0  0  0  0  0  0
   23.3368   11.0954   28.3446 C   0  0  0  0  0  0  0  0  0  0  0  0
   23.3820   10.5483   27.4006 H   0  0  0  0  0  0  0  0  0  0  0  0
   23.8161   10.4733   29.1037 H   0  0  0  0  0  0  0  0  0  0  0  0
   24.1059   12.4169   28.2254 C   0  0  0  0  0  0  0  0  0  0  0  0
   25.1454   12.2180   27.9485 H   0  0  0  0  0  0  0  0  0  0  0  0
   23.6677   13.0486   27.4466 H   0  0  0  0  0  0  0  0  0  0  0  0
   24.0478   13.1643   29.5561 C   0  0  0  0  0  0  0  0  0  0  0  0
   24.4741   12.5302   30.3385 H   0  0  0  0  0  0  0  0  0  0  0  0
   24.6271   14.0934   29.5047 H   0  0  0  0  0  0  0  0  0  0  0  0
   22.5920   13.4702   29.9146 C   0  0  0  0  0  0  0  0  0  0  0  0
   22.1551   14.0981   29.1275 H   0  0  0  0  0  0  0  0  0  0  0  0
   22.5537   14.0230   30.8631 H   0  0  0  0  0  0  0  0  0  0  0  0
   20.2773   10.4476   32.4243 C   0  0  0  0  0  0  0  0  0  0  0  0
   19.9196   11.7586   32.8514 C   0  0  0  0  0  0  0  0  0  0  0  0
   19.6661   12.8370   33.2070 N   0  0  0  0  0  0  0  0  0  0  0  0
   19.5476    9.3494   32.8125 C   0  0  0  0  0  0  0  0  0  0  0  0
   18.4460    9.4775   33.5948 N   0  0  0  0  0  0  0  0  0  0  0  0
   18.1191   10.4006   33.8653 H   0  0  0  0  0  0  0  0  0  0  0  0
   17.9285    8.6473   33.8685 H   0  0  0  0  0  0  0  0  0  0  0  0
   19.9424    8.0978   32.4541 C   0  0  0  0  0  0  0  0  0  0  0  0
   19.4042    7.2217   32.7799 H   0  0  0  0  0  0  0  0  0  0  0  0
   24.0359    5.1097   30.5840 C   0  0  0  0  0  0  0  0  0  0  0  0
   23.8110    6.2102   29.7879 O   0  0  0  0  0  0  0  0  0  0  0  0
   24.9316    7.0880   29.6156 C   0  0  0  0  0  0  0  0  0  0  0  0
   25.2801    7.4596   30.5850 H   0  0  0  0  0  0  0  0  0  0  0  0
   25.7578    6.5644   29.1238 H   0  0  0  0  0  0  0  0  0  0  0  0
   24.6436    7.9422   28.9989 H   0  0  0  0  0  0  0  0  0  0  0  0
  1  2  1  0
  2  3  2  0
  3  4  1  0
  3  5  1  0
  5  6  1  0
  6  7  1  0
  7  8  1  0
  7  9  1  0
  7 10  1  0
  5 11  2  0
 11 12  1  0
 11 13  1  0
 13 14  1  0
 14 15  1  0
 14 16  1  0
 14 17  1  0
 17 18  2  0
 17 19  1  0
 19 20  1  0
 19 21  1  0
 21 22  2  0
 22 23  1  0
 23 24  1  0
 24 25  1  0
 24 26  1  0
 24 27  1  0
 27 28  1  0
 27 29  1  0
 29 30  1  0
 29 31  1  0
 29 32  1  0
 32 33  1  0
 32 34  1  0
 32 35  1  0
 35 36  1  0
 35 37  1  0
 35 38  1  0
 38 39  1  0
 38 40  1  0
 38 41  1  0
 41 42  1  0
 41 43  1  0
 23 44  2  0
 44 45  1  0
 45 46  3  0
 44 47  1  0
 47 48  1  0
 48 49  1  0
 48 50  1  0
 47 51  2  0
 51 52  1  0
 13 53  2  0
 53 54  1  0
 54 55  1  0
 55 56  1  0
 55 57  1  0
 55 58  1  0
 53  2  1  0
 51 21  1  0
 41 27  1  0
M  END
>  <score>  (216) 
7.54944

$$$$

     RDKit          3D

 53 54  0  0  0  0  0  0  0  0999 V2000
   26.0254    5.5631   30.9963 H   0  0  0  0  0  0  0  0  0  0  0  0
   25.2241    4.8707   31.2348 C   0  0  0  0  0  0  0  0  0  0  0  0
   25.4789    3.7210   31.9971 C   0  0  0  0  0  0  0  0  0  0  0  0
   27.2731    3.3433   32.5468 Br  0  0  0  0  0  0  0  0  0  0  0  0
   24.4368    2.8378   32.3237 C   0  0  0  0  0  0  0  0  0  0  0  0
   24.7244    1.7298   33.0883 O   0  0  0  0  0  0  0  0  0  0  0  0
   23.7170    0.7105   33.1603 C   0  0  0  0  0  0  0  0  0  0  0  0
   23.4723    0.3327   32.1614 H   0  0  0  0  0  0  0  0  0  0  0  0
   22.8050    1.0968   33.6263 H   0  0  0  0  0  0  0  0  0  0  0  0
   24.0877   -0.1241   33.7633 H   0  0  0  0  0  0  0  0  0  0  0  0
   23.1476    3.1179   31.8497 C   0  0  0  0  0  0  0  0  0  0  0  0
   22.3411    2.4404   32.1121 H   0  0  0  0  0  0  0  0  0  0  0  0
   22.9004    4.2382   31.0464 C   0  0  0  0  0  0  0  0  0  0  0  0
   21.5006    4.4793   30.5471 C   0  0  0  0  0  0  0  0  0  0  0  0
   21.5366    4.7030   29.4805 H   0  0  0  0  0  0  0  0  0  0  0  0
   20.8854    3.5877   30.6935 H   0  0  0  0  0  0  0  0  0  0  0  0
   20.8787    5.6686   31.2591 C   0  0  0  0  0  0  0  0  0  0  0  0
   19.7222    5.6295   31.6474 O   0  0  0  0  0  0  0  0  0  0  0  0
   21.5960    6.8282   31.3465 N   0  0  0  0  0  0  0  0  0  0  0  0
   22.4865    6.8944   30.8762 H   0  0  0  0  0  0  0  0  0  0  0  0
   21.0846    8.0077   31.7347 C   0  0  0  0  0  0  0  0  0  0  0  0
   21.8142    9.0087   31.3172 N   0  0  0  0  0  0  0  0  0  0  0  0
   21.4312   10.2477   31.6182 C   0  0  0  0  0  0  0  0  0  0  0  0
   22.2728   11.2573   31.1443 N   0  0  0  0  0  0  0  0  0  0  0  0
   23.1349   10.9653   29.9872 C   0  0  0  0  0  0  0  0  0  0  0  0
   24.1730   11.2258   30.2182 H   0  0  0  0  0  0  0  0  0  0  0  0
   23.1111    9.8970   29.7471 H   0  0  0  0  0  0  0  0  0  0  0  0
   22.6627   11.7607   28.7804 C   0  0  0  0  0  0  0  0  0  0  0  0
   22.7838   12.8336   28.9577 H   0  0  0  0  0  0  0  0  0  0  0  0
   23.2670   11.4699   27.9204 H   0  0  0  0  0  0  0  0  0  0  0  0
   21.6092   11.5650   28.5553 H   0  0  0  0  0  0  0  0  0  0  0  0
   22.2634   12.6318   31.6775 C   0  0  0  0  0  0  0  0  0  0  0  0
   21.5929   13.2499   31.0786 H   0  0  0  0  0  0  0  0  0  0  0  0
   21.8975   12.6411   32.7070 H   0  0  0  0  0  0  0  0  0  0  0  0
   23.6646   13.2455   31.6388 C   0  0  0  0  0  0  0  0  0  0  0  0
   23.7623   14.0382   32.3783 H   0  0  0  0  0  0  0  0  0  0  0  0
   23.8596   13.6741   30.6536 H   0  0  0  0  0  0  0  0  0  0  0  0
   24.4280   12.4952   31.8506 H   0  0  0  0  0  0  0  0  0  0  0  0
   20.2776   10.5022   32.3393 C   0  0  0  0  0  0  0  0  0  0  0  0
   19.8411   11.8309   32.5924 C   0  0  0  0  0  0  0  0  0  0  0  0
   19.4764   12.9222   32.7631 N   0  0  0  0  0  0  0  0  0  0  0  0
   19.5466    9.4192   32.7488 C   0  0  0  0  0  0  0  0  0  0  0  0
   18.3831    9.5029   33.4203 N   0  0  0  0  0  0  0  0  0  0  0  0
   17.8639    8.6283   33.4782 H   0  0  0  0  0  0  0  0  0  0  0  0
   17.8729   10.3802   33.3697 H   0  0  0  0  0  0  0  0  0  0  0  0
   19.9399    8.1592   32.4541 C   0  0  0  0  0  0  0  0  0  0  0  0
   19.3656    7.3164   32.7948 H   0  0  0  0  0  0  0  0  0  0  0  0
   23.9404    5.1396   30.7400 C   0  0  0  0  0  0  0  0  0  0  0  0
   23.6594    6.2534   29.9759 O   0  0  0  0  0  0  0  0  0  0  0  0
   24.7661    7.0982   29.6244 C   0  0  0  0  0  0  0  0  0  0  0  0
   24.4586    7.8069   28.8496 H   0  0  0  0  0  0  0  0  0  0  0  0
   25.1128    7.6656   30.4944 H   0  0  0  0  0  0  0  0  0  0  0  0
   25.5998    6.5053   29.2343 H   0  0  0  0  0  0  0  0  0  0  0  0
  1  2  1  0
  2  3  2  0
  3  4  1  0
  3  5  1  0
  5  6  1  0
  6  7  1  0
  7  8  1  0
  7  9  1  0
  7 10  1  0
  5 11  2  0
 11 12  1  0
 11 13  1  0
 13 14  1  0
 14 15  1  0
 14 16  1  0
 14 17  1  0
 17 18  2  0
 17 19  1  0
 19 20  1  0
 19 21  1  0
 21 22  2  0
 22 23  1  0
 23 24  1  0
 24 25  1  0
 25 26  1  0
 25 27  1  0
 25 28  1  0
 28 29  1  0
 28 30  1  0
 28 31  1  0
 24 32  1  0
 32 33  1  0
 32 34  1  0
 32 35  1  0
 35 36  1  0
 35 37  1  0
 35 38  1  0
 23 39  2  0
 39 40  1  0
 40 41  3  0
 39 42  1  0
 42 43  1  0
 43 44  1  0
 43 45  1  0
 42 46  2  0
 46 47  1  0
 13 48  2  0
 48 49  1  0
 49 50  1  0
 50 51  1  0
 50 52  1  0
 50 53  1  0
 48  2  1  0
 46 21  1  0
M  END
>  <score>  (217) 
7.55017

$$$$

     RDKit          3D

 55 57  0  0  0  0  0  0  0  0999 V2000
   22.4856   14.0920   28.4312 H   0  0  0  0  0  0  0  0  0  0  0  0
   22.0632   13.2756   28.1147 O   0  0  0  0  0  0  0  0  0  0  0  0
   22.4192   12.1635   28.9506 C   0  0  2  0  0  0  0  0  0  0  0  0
   22.1291   11.2316   28.4576 H   0  0  0  0  0  0  0  0  0  0  0  0
   21.6945   12.2400   30.3083 C   0  0  0  0  0  0  0  0  0  0  0  0
   21.8179   13.2468   30.7122 H   0  0  0  0  0  0  0  0  0  0  0  0
   20.6238   12.0773   30.1459 H   0  0  0  0  0  0  0  0  0  0  0  0
   22.2432   11.2668   31.2855 N   0  0  0  0  0  0  0  0  0  0  0  0
   21.4607   10.2219   31.7257 C   0  0  0  0  0  0  0  0  0  0  0  0
   21.8932    9.0180   31.3963 N   0  0  0  0  0  0  0  0  0  0  0  0
   21.1450    8.0157   31.7556 C   0  0  0  0  0  0  0  0  0  0  0  0
   21.6691    6.8748   31.3012 N   0  0  0  0  0  0  0  0  0  0  0  0
   22.5289    6.9864   30.7808 H   0  0  0  0  0  0  0  0  0  0  0  0
   20.9358    5.7410   31.1273 C   0  0  0  0  0  0  0  0  0  0  0  0
   19.7737    5.6925   31.5004 O   0  0  0  0  0  0  0  0  0  0  0  0
   21.5581    4.5670   30.3890 C   0  0  0  0  0  0  0  0  0  0  0  0
   21.6062    4.8216   29.3293 H   0  0  0  0  0  0  0  0  0  0  0  0
   20.9098    3.6922   30.4965 H   0  0  0  0  0  0  0  0  0  0  0  0
   22.9576    4.2753   30.9026 C   0  0  0  0  0  0  0  0  0  0  0  0
   23.1682    3.1631   31.7288 C   0  0  0  0  0  0  0  0  0  0  0  0
   22.3403    2.5083   31.9786 H   0  0  0  0  0  0  0  0  0  0  0  0
   24.4383    2.8675   32.2575 C   0  0  0  0  0  0  0  0  0  0  0  0
   24.6739    1.7822   33.0682 O   0  0  0  0  0  0  0  0  0  0  0  0
   23.6487    0.7808   33.0929 C   0  0  0  0  0  0  0  0  0  0  0  0
   23.9738   -0.0674   33.7026 H   0  0  0  0  0  0  0  0  0  0  0  0
   23.4426    0.4188   32.0785 H   0  0  0  0  0  0  0  0  0  0  0  0
   22.7277    1.1849   33.5268 H   0  0  0  0  0  0  0  0  0  0  0  0
   25.5106    3.7172   31.9476 C   0  0  0  0  0  0  0  0  0  0  0  0
   27.2675    3.4278   32.6504 Br  0  0  0  0  0  0  0  0  0  0  0  0
   25.3086    4.8200   31.1152 C   0  0  0  0  0  0  0  0  0  0  0  0
   26.1433    5.4679   30.8692 H   0  0  0  0  0  0  0  0  0  0  0  0
   24.0418    5.1181   30.5867 C   0  0  0  0  0  0  0  0  0  0  0  0
   23.8163    6.2195   29.7919 O   0  0  0  0  0  0  0  0  0  0  0  0
   24.9393    7.0935   29.6176 C   0  0  0  0  0  0  0  0  0  0  0  0
   24.6593    7.9357   28.9798 H   0  0  0  0  0  0  0  0  0  0  0  0
   25.2731    7.4849   30.5872 H   0  0  0  0  0  0  0  0  0  0  0  0
   25.7691    6.5584   29.1405 H   0  0  0  0  0  0  0  0  0  0  0  0
   19.9756    8.1154   32.4624 C   0  0  0  0  0  0  0  0  0  0  0  0
   19.4051    7.2456   32.7425 H   0  0  0  0  0  0  0  0  0  0  0  0
   19.5558    9.3642   32.7892 C   0  0  0  0  0  0  0  0  0  0  0  0
   18.3836    9.4898   33.4500 N   0  0  0  0  0  0  0  0  0  0  0  0
   18.1857   10.3993   33.8605 H   0  0  0  0  0  0  0  0  0  0  0  0
   17.9809    8.6534   33.8735 H   0  0  0  0  0  0  0  0  0  0  0  0
   20.3015   10.4542   32.4297 C   0  0  0  0  0  0  0  0  0  0  0  0
   19.9479   11.7795   32.8116 C   0  0  0  0  0  0  0  0  0  0  0  0
   19.6894   12.8662   33.1359 N   0  0  0  0  0  0  0  0  0  0  0  0
   23.7042   11.1888   31.4345 C   0  0  0  0  0  0  0  0  0  0  0  0
   23.9928   10.3524   32.0830 H   0  0  0  0  0  0  0  0  0  0  0  0
   24.0555   12.1113   31.9046 H   0  0  0  0  0  0  0  0  0  0  0  0
   24.3885   11.0458   30.0836 C   0  0  0  0  0  0  0  0  0  0  0  0
   24.1583   10.0652   29.6567 H   0  0  0  0  0  0  0  0  0  0  0  0
   25.4708   11.0957   30.2263 H   0  0  0  0  0  0  0  0  0  0  0  0
   23.9396   12.1709   29.1366 C   0  0  0  0  0  0  0  0  0  0  0  0
   24.4358   12.0574   28.1699 H   0  0  0  0  0  0  0  0  0  0  0  0
   24.2423   13.1382   29.5469 H   0  0  0  0  0  0  0  0  0  0  0  0
  1  2  1  0
  2  3  1  0
  3  4  1  6
  3  5  1  0
  5  6  1  0
  5  7  1  0
  5  8  1  0
  8  9  1  0
  9 10  2  0
 10 11  1  0
 11 12  1  0
 12 13  1  0
 12 14  1  0
 14 15  2  0
 14 16  1  0
 16 17  1  0
 16 18  1  0
 16 19  1  0
 19 20  2  0
 20 21  1  0
 20 22  1  0
 22 23  1  0
 23 24  1  0
 24 25  1  0
 24 26  1  0
 24 27  1  0
 22 28  2  0
 28 29  1  0
 28 30  1  0
 30 31  1  0
 30 32  2  0
 32 33  1  0
 33 34  1  0
 34 35  1  0
 34 36  1  0
 34 37  1  0
 11 38  2  0
 38 39  1  0
 38 40  1  0
 40 41  1  0
 41 42  1  0
 41 43  1  0
 40 44  2  0
 44 45  1  0
 45 46  3  0
  8 47  1  0
 47 48  1  0
 47 49  1  0
 47 50  1  0
 50 51  1  0
 50 52  1  0
 50 53  1  0
 53 54  1  0
 53 55  1  0
 53  3  1  0
 44  9  1  0
 32 19  1  0
M  END
>  <score>  (218) 
7.55041

$$$$

     RDKit          3D

 46 48  0  0  0  0  0  0  0  0999 V2000
   26.1339    5.4675   30.8742 H   0  0  0  0  0  0  0  0  0  0  0  0
   25.3051    4.8125   31.1174 C   0  0  0  0  0  0  0  0  0  0  0  0
   25.5101    3.7126   31.9540 C   0  0  0  0  0  0  0  0  0  0  0  0
   27.2651    3.3976   32.6559 Br  0  0  0  0  0  0  0  0  0  0  0  0
   24.4397    2.8589   32.2632 C   0  0  0  0  0  0  0  0  0  0  0  0
   24.6726    1.7826   33.0830 O   0  0  0  0  0  0  0  0  0  0  0  0
   23.6522    0.7704   33.1052 C   0  0  0  0  0  0  0  0  0  0  0  0
   23.9837   -0.0794   33.7136 H   0  0  0  0  0  0  0  0  0  0  0  0
   23.4442    0.4092   32.0905 H   0  0  0  0  0  0  0  0  0  0  0  0
   22.7242    1.1668   33.5337 H   0  0  0  0  0  0  0  0  0  0  0  0
   23.1743    3.1337   31.7204 C   0  0  0  0  0  0  0  0  0  0  0  0
   22.3434    2.4816   31.9770 H   0  0  0  0  0  0  0  0  0  0  0  0
   22.9729    4.2293   30.8747 C   0  0  0  0  0  0  0  0  0  0  0  0
   21.5859    4.4789   30.3329 C   0  0  0  0  0  0  0  0  0  0  0  0
   21.6428    4.7460   29.2753 H   0  0  0  0  0  0  0  0  0  0  0  0
   20.9682    3.5793   30.4178 H   0  0  0  0  0  0  0  0  0  0  0  0
   20.9336    5.6186   31.0962 C   0  0  0  0  0  0  0  0  0  0  0  0
   19.7764    5.5266   31.4728 O   0  0  0  0  0  0  0  0  0  0  0  0
   21.6207    6.7847   31.2519 N   0  0  0  0  0  0  0  0  0  0  0  0
   22.4737    6.9016   30.7271 H   0  0  0  0  0  0  0  0  0  0  0  0
   21.0725    7.9212   31.7109 C   0  0  0  0  0  0  0  0  0  0  0  0
   21.7168    8.9724   31.2581 N   0  0  0  0  0  0  0  0  0  0  0  0
   21.3048   10.1833   31.6378 C   0  0  0  0  0  0  0  0  0  0  0  0
   22.1078   11.3775   31.1613 C   0  0  0  0  0  0  0  0  0  0  0  0
   22.6854   11.8286   31.9665 H   0  0  0  0  0  0  0  0  0  0  0  0
   22.7694   11.3718   29.7805 C   0  0  0  0  0  0  0  0  0  0  0  0
   23.7829   11.7827   29.7032 H   0  0  0  0  0  0  0  0  0  0  0  0
   22.5618   10.5344   29.1027 H   0  0  0  0  0  0  0  0  0  0  0  0
   21.6323   12.3491   30.0760 C   0  0  0  0  0  0  0  0  0  0  0  0
   20.6622   12.1787   29.5940 H   0  0  0  0  0  0  0  0  0  0  0  0
   21.9080   13.4054   30.1945 H   0  0  0  0  0  0  0  0  0  0  0  0
   20.2313   10.3449   32.5027 C   0  0  0  0  0  0  0  0  0  0  0  0
   19.8256   11.6383   32.9476 C   0  0  0  0  0  0  0  0  0  0  0  0
   19.5453   12.7061   33.3087 N   0  0  0  0  0  0  0  0  0  0  0  0
   19.5786    9.2178   32.9277 C   0  0  0  0  0  0  0  0  0  0  0  0
   18.5022    9.2979   33.7333 N   0  0  0  0  0  0  0  0  0  0  0  0
   18.1185    8.4175   34.0622 H   0  0  0  0  0  0  0  0  0  0  0  0
   17.8656   10.0735   33.5640 H   0  0  0  0  0  0  0  0  0  0  0  0
   19.9926    7.9802   32.5469 C   0  0  0  0  0  0  0  0  0  0  0  0
   19.4931    7.0826   32.8790 H   0  0  0  0  0  0  0  0  0  0  0  0
   24.0428    5.0978   30.5728 C   0  0  0  0  0  0  0  0  0  0  0  0
   23.8120    6.2056   29.7838 O   0  0  0  0  0  0  0  0  0  0  0  0
   24.9289    7.0981   29.6088 C   0  0  0  0  0  0  0  0  0  0  0  0
   25.7586    6.5853   29.1040 H   0  0  0  0  0  0  0  0  0  0  0  0
   24.6285    7.9571   28.9981 H   0  0  0  0  0  0  0  0  0  0  0  0
   25.2871    7.4702   30.5787 H   0  0  0  0  0  0  0  0  0  0  0  0
  1  2  1  0
  2  3  2  0
  3  4  1  0
  3  5  1  0
  5  6  1  0
  6  7  1  0
  7  8  1  0
  7  9  1  0
  7 10  1  0
  5 11  2  0
 11 12  1  0
 11 13  1  0
 13 14  1  0
 14 15  1  0
 14 16  1  0
 14 17  1  0
 17 18  2  0
 17 19  1  0
 19 20  1  0
 19 21  1  0
 21 22  2  0
 22 23  1  0
 23 24  1  0
 24 25  1  0
 24 26  1  0
 26 27  1  0
 26 28  1  0
 26 29  1  0
 29 30  1  0
 29 31  1  0
 23 32  2  0
 32 33  1  0
 33 34  3  0
 32 35  1  0
 35 36  1  0
 36 37  1  0
 36 38  1  0
 35 39  2  0
 39 40  1  0
 13 41  2  0
 41 42  1  0
 42 43  1  0
 43 44  1  0
 43 45  1  0
 43 46  1  0
 41  2  1  0
 39 21  1  0
 29 24  1  0
M  END
>  <score>  (219) 
7.55247

$$$$

     RDKit          3D

 42 43  0  0  0  0  0  0  0  0999 V2000
   26.1459    5.4386   30.8385 H   0  0  0  0  0  0  0  0  0  0  0  0
   25.3125    4.7956   31.0968 C   0  0  0  0  0  0  0  0  0  0  0  0
   25.5060    3.6960   31.9413 C   0  0  0  0  0  0  0  0  0  0  0  0
   27.2578    3.3516   32.6303 Br  0  0  0  0  0  0  0  0  0  0  0  0
   24.4309    2.8557   32.2656 C   0  0  0  0  0  0  0  0  0  0  0  0
   24.6616    1.7896   33.1071 O   0  0  0  0  0  0  0  0  0  0  0  0
   23.6764    0.7494   33.1266 C   0  0  0  0  0  0  0  0  0  0  0  0
   23.4860    0.3834   32.1113 H   0  0  0  0  0  0  0  0  0  0  0  0
   22.7415    1.1087   33.5689 H   0  0  0  0  0  0  0  0  0  0  0  0
   24.0427   -0.0863   33.7310 H   0  0  0  0  0  0  0  0  0  0  0  0
   23.1659    3.1452   31.7266 C   0  0  0  0  0  0  0  0  0  0  0  0
   22.3460    2.4818   31.9772 H   0  0  0  0  0  0  0  0  0  0  0  0
   22.9647    4.2538   30.8837 C   0  0  0  0  0  0  0  0  0  0  0  0
   21.5862    4.5319   30.3164 C   0  0  0  0  0  0  0  0  0  0  0  0
   21.6827    4.8327   29.2709 H   0  0  0  0  0  0  0  0  0  0  0  0
   20.9656    3.6369   30.3430 H   0  0  0  0  0  0  0  0  0  0  0  0
   20.8805    5.6487   31.0696 C   0  0  0  0  0  0  0  0  0  0  0  0
   19.8352    5.4524   31.6702 O   0  0  0  0  0  0  0  0  0  0  0  0
   21.4222    6.8951   31.0152 N   0  0  0  0  0  0  0  0  0  0  0  0
   22.3041    7.0349   30.5451 H   0  0  0  0  0  0  0  0  0  0  0  0
   20.9260    8.0113   31.5743 C   0  0  0  0  0  0  0  0  0  0  0  0
   21.6572    9.0352   31.1791 N   0  0  0  0  0  0  0  0  0  0  0  0
   21.3706   10.2903   31.5843 C   0  0  0  0  0  0  0  0  0  0  0  0
   22.1598   11.4883   30.9828 C   0  0  0  0  0  0  0  0  0  0  0  0
   23.3661   11.1218   30.4506 F   0  0  0  0  0  0  0  0  0  0  0  0
   21.4085   12.0686   30.0052 F   0  0  0  0  0  0  0  0  0  0  0  0
   22.4000   12.4460   31.9229 F   0  0  0  0  0  0  0  0  0  0  0  0
   20.2977   10.4752   32.4785 C   0  0  0  0  0  0  0  0  0  0  0  0
   19.9319   11.7826   32.9238 C   0  0  0  0  0  0  0  0  0  0  0  0
   19.6289   12.8573   33.2571 N   0  0  0  0  0  0  0  0  0  0  0  0
   19.5629    9.3610   32.8813 C   0  0  0  0  0  0  0  0  0  0  0  0
   18.5062    9.4605   33.7321 N   0  0  0  0  0  0  0  0  0  0  0  0
   18.1542   10.3936   33.9218 H   0  0  0  0  0  0  0  0  0  0  0  0
   17.9110    8.6464   33.9034 H   0  0  0  0  0  0  0  0  0  0  0  0
   19.8555    8.1152   32.4179 C   0  0  0  0  0  0  0  0  0  0  0  0
   19.2664    7.2691   32.7343 H   0  0  0  0  0  0  0  0  0  0  0  0
   24.0510    5.0941   30.5659 C   0  0  0  0  0  0  0  0  0  0  0  0
   23.8407    6.1825   29.7455 O   0  0  0  0  0  0  0  0  0  0  0  0
   24.9305    7.1039   29.5930 C   0  0  0  0  0  0  0  0  0  0  0  0
   25.7758    6.6268   29.0841 H   0  0  0  0  0  0  0  0  0  0  0  0
   25.2552    7.4736   30.5720 H   0  0  0  0  0  0  0  0  0  0  0  0
   24.6090    7.9599   28.9923 H   0  0  0  0  0  0  0  0  0  0  0  0
  1  2  1  0
  2  3  2  0
  3  4  1  0
  3  5  1  0
  5  6  1  0
  6  7  1  0
  7  8  1  0
  7  9  1  0
  7 10  1  0
  5 11  2  0
 11 12  1  0
 11 13  1  0
 13 14  1  0
 14 15  1  0
 14 16  1  0
 14 17  1  0
 17 18  2  0
 17 19  1  0
 19 20  1  0
 19 21  1  0
 21 22  2  0
 22 23  1  0
 23 24  1  0
 24 25  1  0
 24 26  1  0
 24 27  1  0
 23 28  2  0
 28 29  1  0
 29 30  3  0
 28 31  1  0
 31 32  1  0
 32 33  1  0
 32 34  1  0
 31 35  2  0
 35 36  1  0
 13 37  2  0
 37 38  1  0
 38 39  1  0
 39 40  1  0
 39 41  1  0
 39 42  1  0
 37  2  1  0
 35 21  1  0
M  END
>  <score>  (220) 
7.55355

$$$$

     RDKit          3D

 56 58  0  0  0  0  0  0  0  0999 V2000
   26.1091    5.4841   30.8838 H   0  0  0  0  0  0  0  0  0  0  0  0
   25.2758    4.8315   31.1293 C   0  0  0  0  0  0  0  0  0  0  0  0
   25.4875    3.7220   31.9537 C   0  0  0  0  0  0  0  0  0  0  0  0
   27.2442    3.4104   32.6468 Br  0  0  0  0  0  0  0  0  0  0  0  0
   24.4228    2.8606   32.2625 C   0  0  0  0  0  0  0  0  0  0  0  0
   24.6621    1.7721   33.0713 O   0  0  0  0  0  0  0  0  0  0  0  0
   23.6383    0.7667   33.1024 C   0  0  0  0  0  0  0  0  0  0  0  0
   23.9703   -0.0781   33.7132 H   0  0  0  0  0  0  0  0  0  0  0  0
   23.4285    0.3998   32.0913 H   0  0  0  0  0  0  0  0  0  0  0  0
   22.7150    1.1652   33.5363 H   0  0  0  0  0  0  0  0  0  0  0  0
   23.1510    3.1471   31.7350 C   0  0  0  0  0  0  0  0  0  0  0  0
   22.3307    2.4781   31.9709 H   0  0  0  0  0  0  0  0  0  0  0  0
   22.9245    4.2666   30.9209 C   0  0  0  0  0  0  0  0  0  0  0  0
   21.5168    4.5379   30.4153 C   0  0  0  0  0  0  0  0  0  0  0  0
   21.5719    4.8620   29.3721 H   0  0  0  0  0  0  0  0  0  0  0  0
   20.9158    3.6258   30.4709 H   0  0  0  0  0  0  0  0  0  0  0  0
   20.8261    5.6451   31.2056 C   0  0  0  0  0  0  0  0  0  0  0  0
   19.6458    5.5801   31.5186 O   0  0  0  0  0  0  0  0  0  0  0  0
   21.5212    6.8005   31.3828 N   0  0  0  0  0  0  0  0  0  0  0  0
   22.4008    6.9034   30.8950 H   0  0  0  0  0  0  0  0  0  0  0  0
   21.0137    7.9715   31.8029 C   0  0  0  0  0  0  0  0  0  0  0  0
   21.8228    8.9246   31.4127 N   0  0  0  0  0  0  0  0  0  0  0  0
   21.5527   10.2064   31.6966 C   0  0  0  0  0  0  0  0  0  0  0  0
   22.5750   11.2850   31.2355 C   0  0  0  0  0  0  0  0  0  0  0  0
   23.4759   11.1557   31.8389 H   0  0  0  0  0  0  0  0  0  0  0  0
   22.1642   12.2737   31.4552 H   0  0  0  0  0  0  0  0  0  0  0  0
   23.0343   11.2963   29.8134 N   0  0  0  0  0  0  0  0  0  0  0  0
   21.9920   11.4819   28.7878 C   0  0  0  0  0  0  0  0  0  0  0  0
   21.1262   10.9078   29.0859 H   0  0  0  0  0  0  0  0  0  0  0  0
   22.3315   11.0748   27.8348 H   0  0  0  0  0  0  0  0  0  0  0  0
   21.6317   12.9706   28.6059 C   0  0  0  0  0  0  0  0  0  0  0  0
   20.8739   13.0825   27.8263 H   0  0  0  0  0  0  0  0  0  0  0  0
   21.2035   13.3469   29.5414 H   0  0  0  0  0  0  0  0  0  0  0  0
   22.8413   13.7486   28.2569 N   0  0  0  0  0  0  0  0  0  0  0  0
   23.1886   13.4794   27.3312 H   0  0  0  0  0  0  0  0  0  0  0  0
   23.8893   13.5770   29.2888 C   0  0  0  0  0  0  0  0  0  0  0  0
   23.5350   13.9824   30.2419 H   0  0  0  0  0  0  0  0  0  0  0  0
   24.7856   14.1284   28.9994 H   0  0  0  0  0  0  0  0  0  0  0  0
   24.2414   12.0921   29.4939 C   0  0  0  0  0  0  0  0  0  0  0  0
   24.9738   11.9870   30.2976 H   0  0  0  0  0  0  0  0  0  0  0  0
   24.6893   11.7024   28.5752 H   0  0  0  0  0  0  0  0  0  0  0  0
   20.4195   10.5083   32.4709 C   0  0  0  0  0  0  0  0  0  0  0  0
   20.1396   11.8630   32.8155 C   0  0  0  0  0  0  0  0  0  0  0  0
   19.9484   12.9818   33.0639 N   0  0  0  0  0  0  0  0  0  0  0  0
   19.5997    9.4675   32.8951 C   0  0  0  0  0  0  0  0  0  0  0  0
   18.4906    9.6333   33.6576 N   0  0  0  0  0  0  0  0  0  0  0  0
   18.1866   10.5651   33.9133 H   0  0  0  0  0  0  0  0  0  0  0  0
   17.8342    8.8578   33.6870 H   0  0  0  0  0  0  0  0  0  0  0  0
   19.8836    8.1797   32.5452 C   0  0  0  0  0  0  0  0  0  0  0  0
   19.2635    7.3615   32.8744 H   0  0  0  0  0  0  0  0  0  0  0  0
   24.0040    5.1234   30.6073 C   0  0  0  0  0  0  0  0  0  0  0  0
   23.7841    6.2258   29.8097 O   0  0  0  0  0  0  0  0  0  0  0  0
   24.9058    7.1029   29.6101 C   0  0  0  0  0  0  0  0  0  0  0  0
   24.6099    7.9593   28.9956 H   0  0  0  0  0  0  0  0  0  0  0  0
   25.2732    7.4778   30.5722 H   0  0  0  0  0  0  0  0  0  0  0  0
   25.7217    6.5773   29.1007 H   0  0  0  0  0  0  0  0  0  0  0  0
  1  2  1  0
  2  3  2  0
  3  4  1  0
  3  5  1  0
  5  6  1  0
  6  7  1  0
  7  8  1  0
  7  9  1  0
  7 10  1  0
  5 11  2  0
 11 12  1  0
 11 13  1  0
 13 14  1  0
 14 15  1  0
 14 16  1  0
 14 17  1  0
 17 18  2  0
 17 19  1  0
 19 20  1  0
 19 21  1  0
 21 22  2  0
 22 23  1  0
 23 24  1  0
 24 25  1  0
 24 26  1  0
 24 27  1  0
 27 28  1  0
 28 29  1  0
 28 30  1  0
 28 31  1  0
 31 32  1  0
 31 33  1  0
 31 34  1  0
 34 35  1  0
 34 36  1  0
 36 37  1  0
 36 38  1  0
 36 39  1  0
 39 40  1  0
 39 41  1  0
 23 42  2  0
 42 43  1  0
 43 44  3  0
 42 45  1  0
 45 46  1  0
 46 47  1  0
 46 48  1  0
 45 49  2  0
 49 50  1  0
 13 51  2  0
 51 52  1  0
 52 53  1  0
 53 54  1  0
 53 55  1  0
 53 56  1  0
 51  2  1  0
 49 21  1  0
 39 27  1  0
M  END
>  <score>  (221) 
7.5544

$$$$

     RDKit          3D

 47 49  0  0  0  0  0  0  0  0999 V2000
   26.1453    5.4418   30.8393 H   0  0  0  0  0  0  0  0  0  0  0  0
   25.3063    4.8058   31.0990 C   0  0  0  0  0  0  0  0  0  0  0  0
   25.5033    3.7054   31.9397 C   0  0  0  0  0  0  0  0  0  0  0  0
   27.2584    3.3650   32.6306 Br  0  0  0  0  0  0  0  0  0  0  0  0
   24.4268    2.8642   32.2633 C   0  0  0  0  0  0  0  0  0  0  0  0
   24.6625    1.7945   33.0977 O   0  0  0  0  0  0  0  0  0  0  0  0
   23.6729    0.7564   33.1211 C   0  0  0  0  0  0  0  0  0  0  0  0
   24.0326   -0.0827   33.7246 H   0  0  0  0  0  0  0  0  0  0  0  0
   22.7370    1.1173   33.5575 H   0  0  0  0  0  0  0  0  0  0  0  0
   23.4754    0.3894   32.1094 H   0  0  0  0  0  0  0  0  0  0  0  0
   23.1580    3.1538   31.7289 C   0  0  0  0  0  0  0  0  0  0  0  0
   22.3341    2.4910   31.9755 H   0  0  0  0  0  0  0  0  0  0  0  0
   22.9584    4.2633   30.8881 C   0  0  0  0  0  0  0  0  0  0  0  0
   21.5852    4.5542   30.3259 C   0  0  0  0  0  0  0  0  0  0  0  0
   20.9444    3.6728   30.3813 H   0  0  0  0  0  0  0  0  0  0  0  0
   21.6797    4.8423   29.2738 H   0  0  0  0  0  0  0  0  0  0  0  0
   20.9150    5.6908   31.0834 C   0  0  0  0  0  0  0  0  0  0  0  0
   19.8690    5.5200   31.6824 O   0  0  0  0  0  0  0  0  0  0  0  0
   21.4436    6.9403   30.9765 N   0  0  0  0  0  0  0  0  0  0  0  0
   22.3329    7.0564   30.5142 H   0  0  0  0  0  0  0  0  0  0  0  0
   20.9239    8.0623   31.5105 C   0  0  0  0  0  0  0  0  0  0  0  0
   21.6139    9.0944   31.1045 N   0  0  0  0  0  0  0  0  0  0  0  0
   21.3104   10.3045   31.5835 C   0  0  0  0  0  0  0  0  0  0  0  0
   22.0896   11.3825   31.1314 N   0  0  0  0  0  0  0  0  0  0  0  0
   22.7775   11.4331   29.9185 C   0  0  0  0  0  0  0  0  0  0  0  0
   22.6922   10.7153   29.1055 H   0  0  0  0  0  0  0  0  0  0  0  0
   23.6229   12.5061   29.9426 C   0  0  0  0  0  0  0  0  0  0  0  0
   24.3189   12.7794   29.1563 H   0  0  0  0  0  0  0  0  0  0  0  0
   23.4475   13.1808   31.2071 C   0  0  0  0  0  0  0  0  0  0  0  0
   23.9998   14.0440   31.5663 H   0  0  0  0  0  0  0  0  0  0  0  0
   22.4842   12.4898   31.8919 C   0  0  0  0  0  0  0  0  0  0  0  0
   22.1493   12.7234   32.8951 H   0  0  0  0  0  0  0  0  0  0  0  0
   20.2743   10.4854   32.4918 C   0  0  0  0  0  0  0  0  0  0  0  0
   19.9375   11.7912   32.9576 C   0  0  0  0  0  0  0  0  0  0  0  0
   19.6772   12.8751   33.2866 N   0  0  0  0  0  0  0  0  0  0  0  0
   19.5631    9.3776   32.8748 C   0  0  0  0  0  0  0  0  0  0  0  0
   18.5476    9.4688   33.7655 N   0  0  0  0  0  0  0  0  0  0  0  0
   18.1608   10.3964   33.9116 H   0  0  0  0  0  0  0  0  0  0  0  0
   17.9422    8.6550   33.8680 H   0  0  0  0  0  0  0  0  0  0  0  0
   19.8770    8.1478   32.3856 C   0  0  0  0  0  0  0  0  0  0  0  0
   19.3248    7.2789   32.6889 H   0  0  0  0  0  0  0  0  0  0  0  0
   24.0425    5.1056   30.5706 C   0  0  0  0  0  0  0  0  0  0  0  0
   23.8309    6.1903   29.7466 O   0  0  0  0  0  0  0  0  0  0  0  0
   24.9296    7.1019   29.5957 C   0  0  0  0  0  0  0  0  0  0  0  0
   25.2619    7.4667   30.5727 H   0  0  0  0  0  0  0  0  0  0  0  0
   25.7746    6.6198   29.0934 H   0  0  0  0  0  0  0  0  0  0  0  0
   24.6181    7.9603   28.9956 H   0  0  0  0  0  0  0  0  0  0  0  0
  1  2  1  0
  2  3  2  0
  3  4  1  0
  3  5  1  0
  5  6  1  0
  6  7  1  0
  7  8  1  0
  7  9  1  0
  7 10  1  0
  5 11  2  0
 11 12  1  0
 11 13  1  0
 13 14  1  0
 14 15  1  0
 14 16  1  0
 14 17  1  0
 17 18  2  0
 17 19  1  0
 19 20  1  0
 19 21  1  0
 21 22  2  0
 22 23  1  0
 23 24  1  0
 24 25  1  0
 25 26  1  0
 25 27  2  0
 27 28  1  0
 27 29  1  0
 29 30  1  0
 29 31  2  0
 31 32  1  0
 23 33  2  0
 33 34  1  0
 34 35  3  0
 33 36  1  0
 36 37  1  0
 37 38  1  0
 37 39  1  0
 36 40  2  0
 40 41  1  0
 13 42  2  0
 42 43  1  0
 43 44  1  0
 44 45  1  0
 44 46  1  0
 44 47  1  0
 42  2  1  0
 40 21  1  0
 31 24  1  0
M  END
>  <score>  (222) 
7.55877

$$$$

     RDKit          3D

 58 60  0  0  0  0  0  0  0  0999 V2000
   27.3137   10.1678   27.7084 H   0  0  0  0  0  0  0  0  0  0  0  0
   26.4114   10.6556   28.0703 C   0  0  0  0  0  0  0  0  0  0  0  0
   25.1660   10.3191   27.5278 C   0  0  0  0  0  0  0  0  0  0  0  0
   25.0982    9.5660   26.7445 H   0  0  0  0  0  0  0  0  0  0  0  0
   24.0175   10.9895   27.9678 C   0  0  0  0  0  0  0  0  0  0  0  0
   23.0577   10.7282   27.5387 H   0  0  0  0  0  0  0  0  0  0  0  0
   24.0919   11.9947   28.9415 C   0  0  0  0  0  0  0  0  0  0  0  0
   22.8589   12.7776   29.3222 C   0  0  0  0  0  0  0  0  0  0  0  0
   22.4850   13.2901   28.4307 H   0  0  0  0  0  0  0  0  0  0  0  0
   23.1200   13.5431   30.0556 H   0  0  0  0  0  0  0  0  0  0  0  0
   21.7633   11.8768   29.8983 C   0  0  0  0  0  0  0  0  0  0  0  0
   20.8392   12.4495   30.0159 H   0  0  0  0  0  0  0  0  0  0  0  0
   21.5609   11.0650   29.1924 H   0  0  0  0  0  0  0  0  0  0  0  0
   22.1992   11.3249   31.2636 C   0  0  0  0  0  0  0  0  0  0  0  0
   22.1501   12.1195   32.0112 H   0  0  0  0  0  0  0  0  0  0  0  0
   23.2406   10.9999   31.2021 H   0  0  0  0  0  0  0  0  0  0  0  0
   21.3598   10.1615   31.7198 C   0  0  0  0  0  0  0  0  0  0  0  0
   21.7569    8.9468   31.3356 N   0  0  0  0  0  0  0  0  0  0  0  0
   21.0825    7.8973   31.7515 C   0  0  0  0  0  0  0  0  0  0  0  0
   21.6017    6.7648   31.2341 N   0  0  0  0  0  0  0  0  0  0  0  0
   22.4242    6.9086   30.6658 H   0  0  0  0  0  0  0  0  0  0  0  0
   20.9114    5.5985   31.0776 C   0  0  0  0  0  0  0  0  0  0  0  0
   19.7651    5.5041   31.4875 O   0  0  0  0  0  0  0  0  0  0  0  0
   21.5764    4.4522   30.3247 C   0  0  0  0  0  0  0  0  0  0  0  0
   21.6280    4.6951   29.2605 H   0  0  0  0  0  0  0  0  0  0  0  0
   20.9751    3.5465   30.4351 H   0  0  0  0  0  0  0  0  0  0  0  0
   22.9678    4.2196   30.8650 C   0  0  0  0  0  0  0  0  0  0  0  0
   23.1809    3.1214   31.7066 C   0  0  0  0  0  0  0  0  0  0  0  0
   22.3587    2.4568   31.9510 H   0  0  0  0  0  0  0  0  0  0  0  0
   24.4441    2.8516   32.2552 C   0  0  0  0  0  0  0  0  0  0  0  0
   24.6711    1.7720   33.0777 O   0  0  0  0  0  0  0  0  0  0  0  0
   23.6404    0.7737   33.1008 C   0  0  0  0  0  0  0  0  0  0  0  0
   22.7184    1.1800   33.5280 H   0  0  0  0  0  0  0  0  0  0  0  0
   23.4313    0.4142   32.0879 H   0  0  0  0  0  0  0  0  0  0  0  0
   23.9590   -0.0768   33.7093 H   0  0  0  0  0  0  0  0  0  0  0  0
   25.5054    3.7206   31.9561 C   0  0  0  0  0  0  0  0  0  0  0  0
   27.2589    3.4213   32.6679 Br  0  0  0  0  0  0  0  0  0  0  0  0
   25.2929    4.8291   31.1283 C   0  0  0  0  0  0  0  0  0  0  0  0
   26.1154    5.5004   30.9047 H   0  0  0  0  0  0  0  0  0  0  0  0
   24.0305    5.1023   30.5792 C   0  0  0  0  0  0  0  0  0  0  0  0
   23.8021    6.2161   29.7982 O   0  0  0  0  0  0  0  0  0  0  0  0
   24.9209    7.0995   29.6112 C   0  0  0  0  0  0  0  0  0  0  0  0
   24.6265    7.9568   28.9990 H   0  0  0  0  0  0  0  0  0  0  0  0
   25.7398    6.5773   29.1057 H   0  0  0  0  0  0  0  0  0  0  0  0
   25.2856    7.4736   30.5741 H   0  0  0  0  0  0  0  0  0  0  0  0
   19.9955    7.9721   32.5788 C   0  0  0  0  0  0  0  0  0  0  0  0
   19.4708    7.0920   32.9099 H   0  0  0  0  0  0  0  0  0  0  0  0
   19.5848    9.2138   32.9466 C   0  0  0  0  0  0  0  0  0  0  0  0
   18.5039    9.2976   33.7475 N   0  0  0  0  0  0  0  0  0  0  0  0
   17.9106   10.1045   33.5741 H   0  0  0  0  0  0  0  0  0  0  0  0
   18.0607    8.4130   33.9875 H   0  0  0  0  0  0  0  0  0  0  0  0
   20.2439   10.3380   32.5228 C   0  0  0  0  0  0  0  0  0  0  0  0
   19.8303   11.6339   32.9490 C   0  0  0  0  0  0  0  0  0  0  0  0
   19.5321   12.6918   33.3267 N   0  0  0  0  0  0  0  0  0  0  0  0
   25.3396   12.2926   29.5063 C   0  0  0  0  0  0  0  0  0  0  0  0
   25.4173   13.0617   30.2650 H   0  0  0  0  0  0  0  0  0  0  0  0
   26.4949   11.6269   29.0753 C   0  0  0  0  0  0  0  0  0  0  0  0
   27.4626   11.8699   29.5049 H   0  0  0  0  0  0  0  0  0  0  0  0
  1  2  1  0
  2  3  2  0
  3  4  1  0
  3  5  1  0
  5  6  1  0
  5  7  2  0
  7  8  1  0
  8  9  1  0
  8 10  1  0
  8 11  1  0
 11 12  1  0
 11 13  1  0
 11 14  1  0
 14 15  1  0
 14 16  1  0
 14 17  1  0
 17 18  2  0
 18 19  1  0
 19 20  1  0
 20 21  1  0
 20 22  1  0
 22 23  2  0
 22 24  1  0
 24 25  1  0
 24 26  1  0
 24 27  1  0
 27 28  2  0
 28 29  1  0
 28 30  1  0
 30 31  1  0
 31 32  1  0
 32 33  1  0
 32 34  1  0
 32 35  1  0
 30 36  2  0
 36 37  1  0
 36 38  1  0
 38 39  1  0
 38 40  2  0
 40 41  1  0
 41 42  1  0
 42 43  1  0
 42 44  1  0
 42 45  1  0
 19 46  2  0
 46 47  1  0
 46 48  1  0
 48 49  1  0
 49 50  1  0
 49 51  1  0
 48 52  2  0
 52 53  1  0
 53 54  3  0
  7 55  1  0
 55 56  1  0
 55 57  2  0
 57 58  1  0
 57  2  1  0
 52 17  1  0
 40 27  1  0
M  END
>  <score>  (223) 
7.55959

$$$$

     RDKit          3D

 47 48  0  0  0  0  0  0  0  0999 V2000
   26.1870    5.4142   30.8455 H   0  0  0  0  0  0  0  0  0  0  0  0
   25.3430    4.7809   31.1011 C   0  0  0  0  0  0  0  0  0  0  0  0
   25.5231    3.6751   31.9459 C   0  0  0  0  0  0  0  0  0  0  0  0
   27.2723    3.3059   32.6354 Br  0  0  0  0  0  0  0  0  0  0  0  0
   24.4393    2.8435   32.2730 C   0  0  0  0  0  0  0  0  0  0  0  0
   24.6644    1.7830   33.1229 O   0  0  0  0  0  0  0  0  0  0  0  0
   23.6892    0.7332   33.1411 C   0  0  0  0  0  0  0  0  0  0  0  0
   23.4976    0.3620   32.1298 H   0  0  0  0  0  0  0  0  0  0  0  0
   24.0686   -0.0964   33.7433 H   0  0  0  0  0  0  0  0  0  0  0  0
   22.7503    1.0759   33.5846 H   0  0  0  0  0  0  0  0  0  0  0  0
   23.1784    3.1427   31.7304 C   0  0  0  0  0  0  0  0  0  0  0  0
   22.3446    2.4960   31.9812 H   0  0  0  0  0  0  0  0  0  0  0  0
   22.9921    4.2484   30.8833 C   0  0  0  0  0  0  0  0  0  0  0  0
   21.6119    4.5381   30.3335 C   0  0  0  0  0  0  0  0  0  0  0  0
   21.7119    4.8813   29.3025 H   0  0  0  0  0  0  0  0  0  0  0  0
   21.0086    3.6262   30.3189 H   0  0  0  0  0  0  0  0  0  0  0  0
   20.9010    5.6301   31.1304 C   0  0  0  0  0  0  0  0  0  0  0  0
   19.7108    5.5390   31.3835 O   0  0  0  0  0  0  0  0  0  0  0  0
   21.5620    6.7976   31.3776 N   0  0  0  0  0  0  0  0  0  0  0  0
   22.4552    6.9283   30.9258 H   0  0  0  0  0  0  0  0  0  0  0  0
   20.9788    7.9599   31.7346 C   0  0  0  0  0  0  0  0  0  0  0  0
   21.7338    8.9734   31.3485 N   0  0  0  0  0  0  0  0  0  0  0  0
   21.4214   10.2413   31.7001 C   0  0  0  0  0  0  0  0  0  0  0  0
   22.3240   11.3679   31.2541 C   0  0  0  0  0  0  0  0  0  0  0  0
   22.3190   12.4754   31.8006 O   0  0  0  0  0  0  0  0  0  0  0  0
   23.2729   11.1769   30.0658 C   0  0  0  0  0  0  0  0  0  0  0  0
   23.8189   10.2361   30.1848 H   0  0  0  0  0  0  0  0  0  0  0  0
   24.0075   11.9874   30.0398 H   0  0  0  0  0  0  0  0  0  0  0  0
   22.4821   11.1519   28.7564 C   0  0  0  0  0  0  0  0  0  0  0  0
   21.7604   10.3300   28.7574 H   0  0  0  0  0  0  0  0  0  0  0  0
   23.1613   11.0119   27.9127 H   0  0  0  0  0  0  0  0  0  0  0  0
   21.9403   12.0918   28.6097 H   0  0  0  0  0  0  0  0  0  0  0  0
   20.2830   10.4640   32.4882 C   0  0  0  0  0  0  0  0  0  0  0  0
   19.9321   11.7856   32.9112 C   0  0  0  0  0  0  0  0  0  0  0  0
   19.6654   12.8752   33.2219 N   0  0  0  0  0  0  0  0  0  0  0  0
   19.5162    9.3682   32.8519 C   0  0  0  0  0  0  0  0  0  0  0  0
   18.4364    9.4877   33.6583 N   0  0  0  0  0  0  0  0  0  0  0  0
   18.1388   10.4102   33.9560 H   0  0  0  0  0  0  0  0  0  0  0  0
   17.9009    8.6601   33.9096 H   0  0  0  0  0  0  0  0  0  0  0  0
   19.8352    8.1018   32.4644 C   0  0  0  0  0  0  0  0  0  0  0  0
   19.2274    7.2632   32.7701 H   0  0  0  0  0  0  0  0  0  0  0  0
   24.0819    5.0873   30.5679 C   0  0  0  0  0  0  0  0  0  0  0  0
   23.8600    6.1789   29.7546 O   0  0  0  0  0  0  0  0  0  0  0  0
   24.9316    7.1180   29.5872 C   0  0  0  0  0  0  0  0  0  0  0  0
   25.2600    7.5078   30.5551 H   0  0  0  0  0  0  0  0  0  0  0  0
   24.5855    7.9592   28.9804 H   0  0  0  0  0  0  0  0  0  0  0  0
   25.7822    6.6572   29.0766 H   0  0  0  0  0  0  0  0  0  0  0  0
  1  2  1  0
  2  3  2  0
  3  4  1  0
  3  5  1  0
  5  6  1  0
  6  7  1  0
  7  8  1  0
  7  9  1  0
  7 10  1  0
  5 11  2  0
 11 12  1  0
 11 13  1  0
 13 14  1  0
 14 15  1  0
 14 16  1  0
 14 17  1  0
 17 18  2  0
 17 19  1  0
 19 20  1  0
 19 21  1  0
 21 22  2  0
 22 23  1  0
 23 24  1  0
 24 25  2  0
 24 26  1  0
 26 27  1  0
 26 28  1  0
 26 29  1  0
 29 30  1  0
 29 31  1  0
 29 32  1  0
 23 33  2  0
 33 34  1  0
 34 35  3  0
 33 36  1  0
 36 37  1  0
 37 38  1  0
 37 39  1  0
 36 40  2  0
 40 41  1  0
 13 42  2  0
 42 43  1  0
 43 44  1  0
 44 45  1  0
 44 46  1  0
 44 47  1  0
 42  2  1  0
 40 21  1  0
M  END
>  <score>  (224) 
7.55963

$$$$

     RDKit          3D

 61 63  0  0  0  0  0  0  0  0999 V2000
   26.1294    5.4717   30.8541 H   0  0  0  0  0  0  0  0  0  0  0  0
   25.2951    4.8251   31.1027 C   0  0  0  0  0  0  0  0  0  0  0  0
   25.4920    3.7285   31.9450 C   0  0  0  0  0  0  0  0  0  0  0  0
   27.2504    3.4204   32.6351 Br  0  0  0  0  0  0  0  0  0  0  0  0
   24.4207    2.8756   32.2561 C   0  0  0  0  0  0  0  0  0  0  0  0
   24.6579    1.7974   33.0753 O   0  0  0  0  0  0  0  0  0  0  0  0
   23.6488    0.7797   33.0969 C   0  0  0  0  0  0  0  0  0  0  0  0
   22.7209    1.1669   33.5294 H   0  0  0  0  0  0  0  0  0  0  0  0
   23.9928   -0.0626   33.7050 H   0  0  0  0  0  0  0  0  0  0  0  0
   23.4447    0.4151   32.0841 H   0  0  0  0  0  0  0  0  0  0  0  0
   23.1531    3.1587   31.7179 C   0  0  0  0  0  0  0  0  0  0  0  0
   22.3162    2.5130   31.9684 H   0  0  0  0  0  0  0  0  0  0  0  0
   22.9564    4.2625   30.8760 C   0  0  0  0  0  0  0  0  0  0  0  0
   21.5698    4.5592   30.3591 C   0  0  0  0  0  0  0  0  0  0  0  0
   20.9076    3.6943   30.4770 H   0  0  0  0  0  0  0  0  0  0  0  0
   21.6206    4.8003   29.2951 H   0  0  0  0  0  0  0  0  0  0  0  0
   20.9874    5.7509   31.1015 C   0  0  0  0  0  0  0  0  0  0  0  0
   19.9349    5.6353   31.7040 O   0  0  0  0  0  0  0  0  0  0  0  0
   21.6072    6.9632   31.0015 N   0  0  0  0  0  0  0  0  0  0  0  0
   22.4741    7.0457   30.4929 H   0  0  0  0  0  0  0  0  0  0  0  0
   21.1167    8.1077   31.5062 C   0  0  0  0  0  0  0  0  0  0  0  0
   21.8643    9.1257   31.1722 N   0  0  0  0  0  0  0  0  0  0  0  0
   21.5019   10.3140   31.6216 C   0  0  0  0  0  0  0  0  0  0  0  0
   22.2837   11.3587   31.2434 N   0  0  0  0  0  0  0  0  0  0  0  0
   21.9079   12.2905   31.2225 H   0  0  0  0  0  0  0  0  0  0  0  0
   23.4736   11.1292   30.6430 C   0  0  0  0  0  0  0  0  0  0  0  0
   24.1055   10.1128   30.8647 O   0  0  0  0  0  0  0  0  0  0  0  0
   24.0145   12.1896   29.9762 N   0  0  0  0  0  0  0  0  0  0  0  0
   23.5226   13.0688   30.0593 H   0  0  0  0  0  0  0  0  0  0  0  0
   25.4089   12.1761   29.5786 C   0  0  0  0  0  0  0  0  0  0  0  0
   25.9614   11.7070   30.3774 H   0  0  0  0  0  0  0  0  0  0  0  0
   25.6092   11.3300   28.3315 C   0  0  0  0  0  0  0  0  0  0  0  0
   25.0332   11.7626   27.5109 H   0  0  0  0  0  0  0  0  0  0  0  0
   25.2378   10.3158   28.5102 H   0  0  0  0  0  0  0  0  0  0  0  0
   27.0986   11.2715   27.9781 C   0  0  0  0  0  0  0  0  0  0  0  0
   27.2365   10.6792   27.0695 H   0  0  0  0  0  0  0  0  0  0  0  0
   27.6368   10.7733   28.7918 H   0  0  0  0  0  0  0  0  0  0  0  0
   27.6820   12.6751   27.7876 C   0  0  0  0  0  0  0  0  0  0  0  0
   27.2079   13.1606   26.9282 H   0  0  0  0  0  0  0  0  0  0  0  0
   28.7557   12.5938   27.5850 H   0  0  0  0  0  0  0  0  0  0  0  0
   27.4598   13.5200   29.0457 C   0  0  0  0  0  0  0  0  0  0  0  0
   28.0227   13.0675   29.8684 H   0  0  0  0  0  0  0  0  0  0  0  0
   27.8511   14.5308   28.8937 H   0  0  0  0  0  0  0  0  0  0  0  0
   25.9687   13.5801   29.4139 C   0  0  0  0  0  0  0  0  0  0  0  0
   25.8497   14.1126   30.3565 H   0  0  0  0  0  0  0  0  0  0  0  0
   25.4084   14.1147   28.6418 H   0  0  0  0  0  0  0  0  0  0  0  0
   20.4009   10.5229   32.4172 C   0  0  0  0  0  0  0  0  0  0  0  0
   20.0468   11.8291   32.8674 C   0  0  0  0  0  0  0  0  0  0  0  0
   19.7788   12.9048   33.2131 N   0  0  0  0  0  0  0  0  0  0  0  0
   19.6789    9.4225   32.7750 C   0  0  0  0  0  0  0  0  0  0  0  0
   18.6462    9.5143   33.6406 N   0  0  0  0  0  0  0  0  0  0  0  0
   18.0630    8.6952   33.7722 H   0  0  0  0  0  0  0  0  0  0  0  0
   18.2613   10.4348   33.8292 H   0  0  0  0  0  0  0  0  0  0  0  0
   20.0037    8.1966   32.2939 C   0  0  0  0  0  0  0  0  0  0  0  0
   19.4142    7.3370   32.5537 H   0  0  0  0  0  0  0  0  0  0  0  0
   24.0346    5.1135   30.5628 C   0  0  0  0  0  0  0  0  0  0  0  0
   23.8135    6.2153   29.7640 O   0  0  0  0  0  0  0  0  0  0  0  0
   24.9266    7.1087   29.6139 C   0  0  0  0  0  0  0  0  0  0  0  0
   25.7594    6.5987   29.1169 H   0  0  0  0  0  0  0  0  0  0  0  0
   24.6355    7.9750   29.0121 H   0  0  0  0  0  0  0  0  0  0  0  0
   25.2669    7.4627   30.5936 H   0  0  0  0  0  0  0  0  0  0  0  0
  1  2  1  0
  2  3  2  0
  3  4  1  0
  3  5  1  0
  5  6  1  0
  6  7  1  0
  7  8  1  0
  7  9  1  0
  7 10  1  0
  5 11  2  0
 11 12  1  0
 11 13  1  0
 13 14  1  0
 14 15  1  0
 14 16  1  0
 14 17  1  0
 17 18  2  0
 17 19  1  0
 19 20  1  0
 19 21  1  0
 21 22  2  0
 22 23  1  0
 23 24  1  0
 24 25  1  0
 24 26  1  0
 26 27  2  0
 26 28  1  0
 28 29  1  0
 28 30  1  0
 30 31  1  0
 30 32  1  0
 32 33  1  0
 32 34  1  0
 32 35  1  0
 35 36  1  0
 35 37  1  0
 35 38  1  0
 38 39  1  0
 38 40  1  0
 38 41  1  0
 41 42  1  0
 41 43  1  0
 41 44  1  0
 44 45  1  0
 44 46  1  0
 23 47  2  0
 47 48  1  0
 48 49  3  0
 47 50  1  0
 50 51  1  0
 51 52  1  0
 51 53  1  0
 50 54  2  0
 54 55  1  0
 13 56  2  0
 56 57  1  0
 57 58  1  0
 58 59  1  0
 58 60  1  0
 58 61  1  0
 56  2  1  0
 54 21  1  0
 44 30  1  0
M  END
>  <score>  (225) 
7.56186

$$$$

     RDKit          3D

 57 59  0  0  0  0  0  0  0  0999 V2000
   26.1548    5.4660   30.8713 H   0  0  0  0  0  0  0  0  0  0  0  0
   25.3179    4.8201   31.1153 C   0  0  0  0  0  0  0  0  0  0  0  0
   25.5162    3.7169   31.9509 C   0  0  0  0  0  0  0  0  0  0  0  0
   27.2713    3.3979   32.6515 Br  0  0  0  0  0  0  0  0  0  0  0  0
   24.4409    2.8685   32.2608 C   0  0  0  0  0  0  0  0  0  0  0  0
   24.6696    1.7847   33.0771 O   0  0  0  0  0  0  0  0  0  0  0  0
   23.6470    0.7789   33.0972 C   0  0  0  0  0  0  0  0  0  0  0  0
   23.4407    0.4171   32.0842 H   0  0  0  0  0  0  0  0  0  0  0  0
   22.7221    1.1770   33.5257 H   0  0  0  0  0  0  0  0  0  0  0  0
   23.9755   -0.0692   33.7055 H   0  0  0  0  0  0  0  0  0  0  0  0
   23.1720    3.1628   31.7286 C   0  0  0  0  0  0  0  0  0  0  0  0
   22.3376    2.5169   31.9829 H   0  0  0  0  0  0  0  0  0  0  0  0
   22.9744    4.2679   30.8901 C   0  0  0  0  0  0  0  0  0  0  0  0
   21.5948    4.5538   30.3525 C   0  0  0  0  0  0  0  0  0  0  0  0
   20.9424    3.6905   30.4907 H   0  0  0  0  0  0  0  0  0  0  0  0
   21.6516    4.7684   29.2846 H   0  0  0  0  0  0  0  0  0  0  0  0
   20.9865    5.7484   31.0640 C   0  0  0  0  0  0  0  0  0  0  0  0
   19.8342    5.6923   31.4625 O   0  0  0  0  0  0  0  0  0  0  0  0
   21.6920    6.9100   31.1891 N   0  0  0  0  0  0  0  0  0  0  0  0
   22.5509    7.0269   30.6710 H   0  0  0  0  0  0  0  0  0  0  0  0
   21.1625    8.0440   31.6834 C   0  0  0  0  0  0  0  0  0  0  0  0
   21.8330    9.1014   31.3073 N   0  0  0  0  0  0  0  0  0  0  0  0
   21.3649   10.2479   31.7360 C   0  0  0  0  0  0  0  0  0  0  0  0
   22.1890   11.2136   31.2970 N   0  0  0  0  0  0  0  0  0  0  0  0
   22.9283   10.7113   30.8152 H   0  0  0  0  0  0  0  0  0  0  0  0
   21.6295   12.2839   30.4796 C   0  0  0  0  0  0  0  0  0  0  0  0
   20.5616   12.4641   30.6752 H   0  0  0  0  0  0  0  0  0  0  0  0
   22.4120   13.5803   30.7310 C   0  0  0  0  0  0  0  0  0  0  0  0
   22.1672   13.9589   31.7264 H   0  0  0  0  0  0  0  0  0  0  0  0
   23.4846   13.3607   30.7092 H   0  0  0  0  0  0  0  0  0  0  0  0
   22.0838   14.6495   29.6726 C   0  0  0  0  0  0  0  0  0  0  0  0
   21.0360   14.9426   29.7709 H   0  0  0  0  0  0  0  0  0  0  0  0
   22.6668   15.5519   29.8176 H   0  0  0  0  0  0  0  0  0  0  0  0
   22.3277   14.0923   28.2746 C   0  0  0  0  0  0  0  0  0  0  0  0
   22.1781   14.8740   27.5261 H   0  0  0  0  0  0  0  0  0  0  0  0
   23.3612   13.7366   28.1716 H   0  0  0  0  0  0  0  0  0  0  0  0
   21.3498   12.9290   28.1144 C   0  0  0  0  0  0  0  0  0  0  0  0
   20.3407   13.2455   28.3859 H   0  0  0  0  0  0  0  0  0  0  0  0
   21.3040   12.5813   27.0963 H   0  0  0  0  0  0  0  0  0  0  0  0
   21.8171   11.8150   29.0423 C   0  0  0  0  0  0  0  0  0  0  0  0
   22.8791   11.6095   28.8668 H   0  0  0  0  0  0  0  0  0  0  0  0
   21.2768   10.8813   28.8700 H   0  0  0  0  0  0  0  0  0  0  0  0
   20.2415   10.4283   32.4889 C   0  0  0  0  0  0  0  0  0  0  0  0
   19.8376   11.7295   32.9048 C   0  0  0  0  0  0  0  0  0  0  0  0
   19.5213   12.7884   33.2589 N   0  0  0  0  0  0  0  0  0  0  0  0
   19.5964    9.2936   32.8662 C   0  0  0  0  0  0  0  0  0  0  0  0
   18.5042    9.3322   33.6514 N   0  0  0  0  0  0  0  0  0  0  0  0
   18.1627    8.4499   34.0177 H   0  0  0  0  0  0  0  0  0  0  0  0
   17.8423   10.0826   33.4890 H   0  0  0  0  0  0  0  0  0  0  0  0
   20.0538    8.0764   32.4884 C   0  0  0  0  0  0  0  0  0  0  0  0
   19.5524    7.1863   32.8236 H   0  0  0  0  0  0  0  0  0  0  0  0
   24.0540    5.1166   30.5827 C   0  0  0  0  0  0  0  0  0  0  0  0
   23.8319    6.2231   29.7919 O   0  0  0  0  0  0  0  0  0  0  0  0
   24.9475    7.1054   29.6113 C   0  0  0  0  0  0  0  0  0  0  0  0
   25.7682    6.5839   29.1084 H   0  0  0  0  0  0  0  0  0  0  0  0
   24.6502    7.9614   28.9990 H   0  0  0  0  0  0  0  0  0  0  0  0
   25.3040    7.4758   30.5783 H   0  0  0  0  0  0  0  0  0  0  0  0
  1  2  1  0
  2  3  2  0
  3  4  1  0
  3  5  1  0
  5  6  1  0
  6  7  1  0
  7  8  1  0
  7  9  1  0
  7 10  1  0
  5 11  2  0
 11 12  1  0
 11 13  1  0
 13 14  1  0
 14 15  1  0
 14 16  1  0
 14 17  1  0
 17 18  2  0
 17 19  1  0
 19 20  1  0
 19 21  1  0
 21 22  2  0
 22 23  1  0
 23 24  1  0
 24 25  1  0
 24 26  1  0
 26 27  1  0
 26 28  1  0
 28 29  1  0
 28 30  1  0
 28 31  1  0
 31 32  1  0
 31 33  1  0
 31 34  1  0
 34 35  1  0
 34 36  1  0
 34 37  1  0
 37 38  1  0
 37 39  1  0
 37 40  1  0
 40 41  1  0
 40 42  1  0
 23 43  2  0
 43 44  1  0
 44 45  3  0
 43 46  1  0
 46 47  1  0
 47 48  1  0
 47 49  1  0
 46 50  2  0
 50 51  1  0
 13 52  2  0
 52 53  1  0
 53 54  1  0
 54 55  1  0
 54 56  1  0
 54 57  1  0
 52  2  1  0
 50 21  1  0
 40 26  1  0
M  END
>  <score>  (226) 
7.56229

$$$$

     RDKit          3D

 55 56  0  0  0  0  0  0  0  0999 V2000
   26.1001    5.4926   30.8742 H   0  0  0  0  0  0  0  0  0  0  0  0
   25.2680    4.8437   31.1237 C   0  0  0  0  0  0  0  0  0  0  0  0
   25.4822    3.7375   31.9482 C   0  0  0  0  0  0  0  0  0  0  0  0
   27.2434    3.4360   32.6438 Br  0  0  0  0  0  0  0  0  0  0  0  0
   24.4172    2.8762   32.2520 C   0  0  0  0  0  0  0  0  0  0  0  0
   24.6629    1.7813   33.0466 O   0  0  0  0  0  0  0  0  0  0  0  0
   23.6319    0.7870   33.0831 C   0  0  0  0  0  0  0  0  0  0  0  0
   22.7151    1.2005   33.5126 H   0  0  0  0  0  0  0  0  0  0  0  0
   23.4164    0.4229   32.0739 H   0  0  0  0  0  0  0  0  0  0  0  0
   23.9531   -0.0596   33.6961 H   0  0  0  0  0  0  0  0  0  0  0  0
   23.1391    3.1723   31.7436 C   0  0  0  0  0  0  0  0  0  0  0  0
   22.3179    2.5075   31.9932 H   0  0  0  0  0  0  0  0  0  0  0  0
   22.9171    4.2995   30.9376 C   0  0  0  0  0  0  0  0  0  0  0  0
   21.5151    4.6030   30.4519 C   0  0  0  0  0  0  0  0  0  0  0  0
   20.8655    3.7339   30.5775 H   0  0  0  0  0  0  0  0  0  0  0  0
   21.5409    4.8490   29.3881 H   0  0  0  0  0  0  0  0  0  0  0  0
   20.9151    5.7841   31.2010 C   0  0  0  0  0  0  0  0  0  0  0  0
   19.7586    5.7332   31.5916 O   0  0  0  0  0  0  0  0  0  0  0  0
   21.6228    6.9485   31.2816 N   0  0  0  0  0  0  0  0  0  0  0  0
   22.5145    7.0078   30.8113 H   0  0  0  0  0  0  0  0  0  0  0  0
   21.0913    8.1382   31.6319 C   0  0  0  0  0  0  0  0  0  0  0  0
   21.8234    9.1540   31.2152 N   0  0  0  0  0  0  0  0  0  0  0  0
   21.5092   10.4248   31.5648 C   0  0  0  0  0  0  0  0  0  0  0  0
   22.4317   11.5672   31.1080 C   0  0  0  0  0  0  0  0  0  0  0  0
   22.6883   12.4954   31.8799 O   0  0  0  0  0  0  0  0  0  0  0  0
   22.9661   11.6480   29.8042 N   0  0  0  0  0  0  0  0  0  0  0  0
   22.0870   11.1942   28.7323 C   0  0  0  0  0  0  0  0  0  0  0  0
   21.1010   11.0460   29.1501 H   0  0  0  0  0  0  0  0  0  0  0  0
   21.9830   11.9842   27.9843 H   0  0  0  0  0  0  0  0  0  0  0  0
   22.5224    9.9043   28.0603 C   0  0  0  0  0  0  0  0  0  0  0  0
   23.4651   10.0456   27.5260 H   0  0  0  0  0  0  0  0  0  0  0  0
   22.6471    9.1050   28.7933 H   0  0  0  0  0  0  0  0  0  0  0  0
   21.7473    9.6024   27.3492 H   0  0  0  0  0  0  0  0  0  0  0  0
   23.8685   12.7452   29.4391 C   0  0  0  0  0  0  0  0  0  0  0  0
   24.7673   12.7552   30.0653 H   0  0  0  0  0  0  0  0  0  0  0  0
   24.1985   12.6321   28.3994 H   0  0  0  0  0  0  0  0  0  0  0  0
   23.1021   14.0504   29.5960 C   0  0  0  0  0  0  0  0  0  0  0  0
   22.9400   14.2655   30.6554 H   0  0  0  0  0  0  0  0  0  0  0  0
   22.1289   13.9627   29.1114 H   0  0  0  0  0  0  0  0  0  0  0  0
   23.6404   14.8788   29.1336 H   0  0  0  0  0  0  0  0  0  0  0  0
   20.3447   10.6317   32.3416 C   0  0  0  0  0  0  0  0  0  0  0  0
   19.9708   11.9460   32.7520 C   0  0  0  0  0  0  0  0  0  0  0  0
   19.7324   13.0302   33.0963 N   0  0  0  0  0  0  0  0  0  0  0  0
   19.5755    9.5385   32.7032 C   0  0  0  0  0  0  0  0  0  0  0  0
   18.4486    9.6111   33.4474 N   0  0  0  0  0  0  0  0  0  0  0  0
   18.1383   10.5254   33.7568 H   0  0  0  0  0  0  0  0  0  0  0  0
   18.2518    8.7941   34.0193 H   0  0  0  0  0  0  0  0  0  0  0  0
   19.9578    8.2822   32.3690 C   0  0  0  0  0  0  0  0  0  0  0  0
   19.3982    7.4211   32.6880 H   0  0  0  0  0  0  0  0  0  0  0  0
   23.9966    5.1465   30.6132 C   0  0  0  0  0  0  0  0  0  0  0  0
   23.7809    6.2562   29.8248 O   0  0  0  0  0  0  0  0  0  0  0  0
   24.9242    7.1004   29.6193 C   0  0  0  0  0  0  0  0  0  0  0  0
   25.7321    6.5456   29.1305 H   0  0  0  0  0  0  0  0  0  0  0  0
   24.6571    7.9522   28.9893 H   0  0  0  0  0  0  0  0  0  0  0  0
   25.2929    7.4773   30.5787 H   0  0  0  0  0  0  0  0  0  0  0  0
  1  2  1  0
  2  3  2  0
  3  4  1  0
  3  5  1  0
  5  6  1  0
  6  7  1  0
  7  8  1  0
  7  9  1  0
  7 10  1  0
  5 11  2  0
 11 12  1  0
 11 13  1  0
 13 14  1  0
 14 15  1  0
 14 16  1  0
 14 17  1  0
 17 18  2  0
 17 19  1  0
 19 20  1  0
 19 21  1  0
 21 22  2  0
 22 23  1  0
 23 24  1  0
 24 25  2  0
 24 26  1  0
 26 27  1  0
 27 28  1  0
 27 29  1  0
 27 30  1  0
 30 31  1  0
 30 32  1  0
 30 33  1  0
 26 34  1  0
 34 35  1  0
 34 36  1  0
 34 37  1  0
 37 38  1  0
 37 39  1  0
 37 40  1  0
 23 41  2  0
 41 42  1  0
 42 43  3  0
 41 44  1  0
 44 45  1  0
 45 46  1  0
 45 47  1  0
 44 48  2  0
 48 49  1  0
 13 50  2  0
 50 51  1  0
 51 52  1  0
 52 53  1  0
 52 54  1  0
 52 55  1  0
 50  2  1  0
 48 21  1  0
M  END
>  <score>  (227) 
7.5623

$$$$

     RDKit          3D

 53 55  0  0  0  0  0  0  0  0999 V2000
   23.7737   14.7603   27.6114 H   0  0  0  0  0  0  0  0  0  0  0  0
   24.1536   14.1667   28.4410 C   0  0  0  0  0  0  0  0  0  0  0  0
   25.3628   14.4722   28.9250 N   0  0  0  0  0  0  0  0  0  0  0  0
   25.8638   13.7144   29.9108 C   0  0  0  0  0  0  0  0  0  0  0  0
   26.8490   13.9587   30.2985 H   0  0  0  0  0  0  0  0  0  0  0  0
   25.1541   12.6351   30.4522 C   0  0  0  0  0  0  0  0  0  0  0  0
   25.5793   12.0742   31.2687 H   0  0  0  0  0  0  0  0  0  0  0  0
   23.8970   12.2771   29.9520 C   0  0  0  0  0  0  0  0  0  0  0  0
   23.1989   10.9927   30.3684 C   0  0  0  0  0  0  0  0  0  0  0  0
   22.8048   10.5177   29.4554 H   0  0  0  0  0  0  0  0  0  0  0  0
   23.9449   10.3145   30.8108 H   0  0  0  0  0  0  0  0  0  0  0  0
   22.1015   11.2076   31.3418 N   0  0  0  0  0  0  0  0  0  0  0  0
   21.7920   12.1469   31.5610 H   0  0  0  0  0  0  0  0  0  0  0  0
   21.3164   10.1718   31.7727 C   0  0  0  0  0  0  0  0  0  0  0  0
   21.7125    8.9751   31.3942 N   0  0  0  0  0  0  0  0  0  0  0  0
   20.9945    7.9561   31.7721 C   0  0  0  0  0  0  0  0  0  0  0  0
   21.5493    6.8190   31.3151 N   0  0  0  0  0  0  0  0  0  0  0  0
   22.4400    6.9435   30.8593 H   0  0  0  0  0  0  0  0  0  0  0  0
   20.8784    5.6471   31.1358 C   0  0  0  0  0  0  0  0  0  0  0  0
   19.7134    5.5431   31.4853 O   0  0  0  0  0  0  0  0  0  0  0  0
   21.5646    4.5270   30.3639 C   0  0  0  0  0  0  0  0  0  0  0  0
   20.9552    3.6230   30.4271 H   0  0  0  0  0  0  0  0  0  0  0  0
   21.6256    4.8170   29.3120 H   0  0  0  0  0  0  0  0  0  0  0  0
   22.9566    4.2598   30.8986 C   0  0  0  0  0  0  0  0  0  0  0  0
   23.1672    3.1518   31.7304 C   0  0  0  0  0  0  0  0  0  0  0  0
   22.3374    2.4967   31.9766 H   0  0  0  0  0  0  0  0  0  0  0  0
   24.4380    2.8632   32.2591 C   0  0  0  0  0  0  0  0  0  0  0  0
   24.6702    1.7828   33.0774 O   0  0  0  0  0  0  0  0  0  0  0  0
   23.6540    0.7699   33.1035 C   0  0  0  0  0  0  0  0  0  0  0  0
   22.7279    1.1619   33.5349 H   0  0  0  0  0  0  0  0  0  0  0  0
   23.4475    0.4069   32.0915 H   0  0  0  0  0  0  0  0  0  0  0  0
   23.9904   -0.0758   33.7113 H   0  0  0  0  0  0  0  0  0  0  0  0
   25.5088    3.7167   31.9479 C   0  0  0  0  0  0  0  0  0  0  0  0
   27.2643    3.3973   32.6502 Br  0  0  0  0  0  0  0  0  0  0  0  0
   25.3037    4.8187   31.1144 C   0  0  0  0  0  0  0  0  0  0  0  0
   26.1433    5.4613   30.8722 H   0  0  0  0  0  0  0  0  0  0  0  0
   24.0355    5.1142   30.5876 C   0  0  0  0  0  0  0  0  0  0  0  0
   23.8170    6.2169   29.7915 O   0  0  0  0  0  0  0  0  0  0  0  0
   24.9345    7.1005   29.6101 C   0  0  0  0  0  0  0  0  0  0  0  0
   25.7587    6.5842   29.1066 H   0  0  0  0  0  0  0  0  0  0  0  0
   24.6359    7.9571   28.9992 H   0  0  0  0  0  0  0  0  0  0  0  0
   25.2909    7.4703   30.5772 H   0  0  0  0  0  0  0  0  0  0  0  0
   19.8614    8.0514   32.5284 C   0  0  0  0  0  0  0  0  0  0  0  0
   19.3138    7.1698   32.8237 H   0  0  0  0  0  0  0  0  0  0  0  0
   19.4749    9.3053   32.9043 C   0  0  0  0  0  0  0  0  0  0  0  0
   18.3568    9.4305   33.6504 N   0  0  0  0  0  0  0  0  0  0  0  0
   17.8512    8.5902   33.9294 H   0  0  0  0  0  0  0  0  0  0  0  0
   18.0465   10.3524   33.9394 H   0  0  0  0  0  0  0  0  0  0  0  0
   20.2053   10.4034   32.5403 C   0  0  0  0  0  0  0  0  0  0  0  0
   19.8664   11.7294   32.9282 C   0  0  0  0  0  0  0  0  0  0  0  0
   19.6580   12.8357   33.2187 N   0  0  0  0  0  0  0  0  0  0  0  0
   23.3993   13.0967   28.9365 C   0  0  0  0  0  0  0  0  0  0  0  0
   22.4443   12.8856   28.4808 H   0  0  0  0  0  0  0  0  0  0  0  0
  1  2  1  0
  2  3  2  0
  3  4  1  0
  4  5  1  0
  4  6  2  0
  6  7  1  0
  6  8  1  0
  8  9  1  0
  9 10  1  0
  9 11  1  0
  9 12  1  0
 12 13  1  0
 12 14  1  0
 14 15  2  0
 15 16  1  0
 16 17  1  0
 17 18  1  0
 17 19  1  0
 19 20  2  0
 19 21  1  0
 21 22  1  0
 21 23  1  0
 21 24  1  0
 24 25  2  0
 25 26  1  0
 25 27  1  0
 27 28  1  0
 28 29  1  0
 29 30  1  0
 29 31  1  0
 29 32  1  0
 27 33  2  0
 33 34  1  0
 33 35  1  0
 35 36  1  0
 35 37  2  0
 37 38  1  0
 38 39  1  0
 39 40  1  0
 39 41  1  0
 39 42  1  0
 16 43  2  0
 43 44  1  0
 43 45  1  0
 45 46  1  0
 46 47  1  0
 46 48  1  0
 45 49  2  0
 49 50  1  0
 50 51  3  0
  8 52  2  0
 52 53  1  0
 52  2  1  0
 49 14  1  0
 37 24  1  0
M  END
>  <score>  (228) 
7.56334

$$$$

     RDKit          3D

 47 49  0  0  0  0  0  0  0  0999 V2000
   23.5552   14.2517   32.2754 H   0  0  0  0  0  0  0  0  0  0  0  0
   23.3574   13.4430   31.5790 C   0  0  0  0  0  0  0  0  0  0  0  0
   24.0505   13.4170   30.4383 N   0  0  0  0  0  0  0  0  0  0  0  0
   23.8437   12.3879   29.6226 C   0  0  0  0  0  0  0  0  0  0  0  0
   24.3860   12.3368   28.6844 H   0  0  0  0  0  0  0  0  0  0  0  0
   22.9623   11.3746   29.9530 C   0  0  0  0  0  0  0  0  0  0  0  0
   22.8445   10.5367   29.2804 H   0  0  0  0  0  0  0  0  0  0  0  0
   22.2532   11.4294   31.1574 C   0  0  0  0  0  0  0  0  0  0  0  0
   21.3374   10.2817   31.5920 C   0  0  0  0  0  0  0  0  0  0  0  0
   21.6095    9.0444   31.1251 N   0  0  0  0  0  0  0  0  0  0  0  0
   20.8892    8.0149   31.5144 C   0  0  0  0  0  0  0  0  0  0  0  0
   21.4117    6.8884   30.9977 N   0  0  0  0  0  0  0  0  0  0  0  0
   22.3075    7.0076   30.5514 H   0  0  0  0  0  0  0  0  0  0  0  0
   20.8852    5.6410   31.0938 C   0  0  0  0  0  0  0  0  0  0  0  0
   19.8364    5.4596   31.6857 O   0  0  0  0  0  0  0  0  0  0  0  0
   21.5709    4.5172   30.3271 C   0  0  0  0  0  0  0  0  0  0  0  0
   21.6556    4.8117   29.2762 H   0  0  0  0  0  0  0  0  0  0  0  0
   20.9468    3.6236   30.3782 H   0  0  0  0  0  0  0  0  0  0  0  0
   22.9535    4.2416   30.8800 C   0  0  0  0  0  0  0  0  0  0  0  0
   23.1647    3.1394   31.7237 C   0  0  0  0  0  0  0  0  0  0  0  0
   22.3404    2.4762   31.9722 H   0  0  0  0  0  0  0  0  0  0  0  0
   24.4344    2.8633   32.2631 C   0  0  0  0  0  0  0  0  0  0  0  0
   24.6668    1.7919   33.0957 O   0  0  0  0  0  0  0  0  0  0  0  0
   23.6684    0.7609   33.1175 C   0  0  0  0  0  0  0  0  0  0  0  0
   23.4699    0.4007   32.1030 H   0  0  0  0  0  0  0  0  0  0  0  0
   24.0208   -0.0820   33.7220 H   0  0  0  0  0  0  0  0  0  0  0  0
   22.7351    1.1354   33.5495 H   0  0  0  0  0  0  0  0  0  0  0  0
   25.5041    3.7158   31.9420 C   0  0  0  0  0  0  0  0  0  0  0  0
   27.2609    3.3901   32.6337 Br  0  0  0  0  0  0  0  0  0  0  0  0
   25.2976    4.8092   31.0981 C   0  0  0  0  0  0  0  0  0  0  0  0
   26.1343    5.4504   30.8443 H   0  0  0  0  0  0  0  0  0  0  0  0
   24.0330    5.0958   30.5660 C   0  0  0  0  0  0  0  0  0  0  0  0
   23.8240    6.1870   29.7516 O   0  0  0  0  0  0  0  0  0  0  0  0
   24.9291    7.0932   29.5999 C   0  0  0  0  0  0  0  0  0  0  0  0
   25.2632    7.4497   30.5794 H   0  0  0  0  0  0  0  0  0  0  0  0
   25.7707    6.5993   29.1031 H   0  0  0  0  0  0  0  0  0  0  0  0
   24.6246    7.9558   28.9984 H   0  0  0  0  0  0  0  0  0  0  0  0
   19.8300    8.1082   32.3799 C   0  0  0  0  0  0  0  0  0  0  0  0
   19.2717    7.2420   32.6926 H   0  0  0  0  0  0  0  0  0  0  0  0
   19.5359    9.3456   32.8788 C   0  0  0  0  0  0  0  0  0  0  0  0
   18.5175    9.4532   33.7751 N   0  0  0  0  0  0  0  0  0  0  0  0
   17.9147    8.6426   33.8885 H   0  0  0  0  0  0  0  0  0  0  0  0
   18.1310   10.3808   33.9345 H   0  0  0  0  0  0  0  0  0  0  0  0
   20.2647   10.4519   32.4873 C   0  0  0  0  0  0  0  0  0  0  0  0
   19.9159   11.7500   32.9698 C   0  0  0  0  0  0  0  0  0  0  0  0
   19.6252   12.8185   33.3269 N   0  0  0  0  0  0  0  0  0  0  0  0
   22.4624   12.5127   31.9378 N   0  0  0  0  0  0  0  0  0  0  0  0
  1  2  1  0
  2  3  2  0
  3  4  1  0
  4  5  1  0
  4  6  2  0
  6  7  1  0
  6  8  1  0
  8  9  1  0
  9 10  2  0
 10 11  1  0
 11 12  1  0
 12 13  1  0
 12 14  1  0
 14 15  2  0
 14 16  1  0
 16 17  1  0
 16 18  1  0
 16 19  1  0
 19 20  2  0
 20 21  1  0
 20 22  1  0
 22 23  1  0
 23 24  1  0
 24 25  1  0
 24 26  1  0
 24 27  1  0
 22 28  2  0
 28 29  1  0
 28 30  1  0
 30 31  1  0
 30 32  2  0
 32 33  1  0
 33 34  1  0
 34 35  1  0
 34 36  1  0
 34 37  1  0
 11 38  2  0
 38 39  1  0
 38 40  1  0
 40 41  1  0
 41 42  1  0
 41 43  1  0
 40 44  2  0
 44 45  1  0
 45 46  3  0
  8 47  2  0
 47  2  1  0
 44  9  1  0
 32 19  1  0
M  END
>  <score>  (229) 
7.56561

$$$$

     RDKit          3D

 46 48  0  0  0  0  0  0  0  0999 V2000
   22.9143   14.3242   29.7762 H   0  0  0  0  0  0  0  0  0  0  0  0
   22.9942   13.3445   30.2385 C   0  0  0  0  0  0  0  0  0  0  0  0
   24.1960   12.7226   30.4336 C   0  0  0  0  0  0  0  0  0  0  0  0
   25.7304   13.4323   29.9936 Cl  0  0  0  0  0  0  0  0  0  0  0  0
   24.0056   11.1307   31.1488 S   0  0  0  0  0  0  0  0  0  0  0  0
   22.2538   11.3163   31.1952 C   0  0  0  0  0  0  0  0  0  0  0  0
   21.3883   10.2323   31.6830 C   0  0  0  0  0  0  0  0  0  0  0  0
   21.7664    8.9886   31.3710 N   0  0  0  0  0  0  0  0  0  0  0  0
   21.0097    7.9789   31.7436 C   0  0  0  0  0  0  0  0  0  0  0  0
   21.5812    6.8106   31.3834 N   0  0  0  0  0  0  0  0  0  0  0  0
   22.4769    6.9335   30.9413 H   0  0  0  0  0  0  0  0  0  0  0  0
   20.9122    5.6463   31.1320 C   0  0  0  0  0  0  0  0  0  0  0  0
   19.7245    5.5587   31.3919 O   0  0  0  0  0  0  0  0  0  0  0  0
   21.6160    4.5473   30.3338 C   0  0  0  0  0  0  0  0  0  0  0  0
   21.7206    4.8858   29.3009 H   0  0  0  0  0  0  0  0  0  0  0  0
   21.0126    3.6350   30.3201 H   0  0  0  0  0  0  0  0  0  0  0  0
   22.9928    4.2522   30.8844 C   0  0  0  0  0  0  0  0  0  0  0  0
   23.1754    3.1463   31.7319 C   0  0  0  0  0  0  0  0  0  0  0  0
   22.3378    2.5033   31.9802 H   0  0  0  0  0  0  0  0  0  0  0  0
   24.4371    2.8445   32.2728 C   0  0  0  0  0  0  0  0  0  0  0  0
   24.6620    1.7842   33.1224 O   0  0  0  0  0  0  0  0  0  0  0  0
   23.6901    0.7311   33.1426 C   0  0  0  0  0  0  0  0  0  0  0  0
   22.7507    1.0715   33.5863 H   0  0  0  0  0  0  0  0  0  0  0  0
   24.0746   -0.0966   33.7452 H   0  0  0  0  0  0  0  0  0  0  0  0
   23.4982    0.3587   32.1320 H   0  0  0  0  0  0  0  0  0  0  0  0
   25.5232    3.6734   31.9459 C   0  0  0  0  0  0  0  0  0  0  0  0
   27.2708    3.2960   32.6357 Br  0  0  0  0  0  0  0  0  0  0  0  0
   25.3449    4.7783   31.1000 C   0  0  0  0  0  0  0  0  0  0  0  0
   26.1908    5.4090   30.8444 H   0  0  0  0  0  0  0  0  0  0  0  0
   24.0841    5.0884   30.5679 C   0  0  0  0  0  0  0  0  0  0  0  0
   23.8652    6.1785   29.7510 O   0  0  0  0  0  0  0  0  0  0  0  0
   24.9319    7.1232   29.5846 C   0  0  0  0  0  0  0  0  0  0  0  0
   24.5783    7.9659   28.9835 H   0  0  0  0  0  0  0  0  0  0  0  0
   25.7820    6.6673   29.0697 H   0  0  0  0  0  0  0  0  0  0  0  0
   25.2629    7.5080   30.5529 H   0  0  0  0  0  0  0  0  0  0  0  0
   19.8517    8.1167   32.4501 C   0  0  0  0  0  0  0  0  0  0  0  0
   19.2466    7.2768   32.7588 H   0  0  0  0  0  0  0  0  0  0  0  0
   19.5155    9.3832   32.8243 C   0  0  0  0  0  0  0  0  0  0  0  0
   18.4591    9.5016   33.6502 N   0  0  0  0  0  0  0  0  0  0  0  0
   18.1490   10.4203   33.9463 H   0  0  0  0  0  0  0  0  0  0  0  0
   17.9324    8.6696   33.8922 H   0  0  0  0  0  0  0  0  0  0  0  0
   20.2548   10.4799   32.4453 C   0  0  0  0  0  0  0  0  0  0  0  0
   19.9331   11.8060   32.8600 C   0  0  0  0  0  0  0  0  0  0  0  0
   19.7068   12.9033   33.1860 N   0  0  0  0  0  0  0  0  0  0  0  0
   21.8619   12.5441   30.6968 C   0  0  0  0  0  0  0  0  0  0  0  0
   20.8290   12.8720   30.5949 H   0  0  0  0  0  0  0  0  0  0  0  0
  1  2  1  0
  2  3  2  0
  3  4  1  0
  3  5  1  0
  5  6  1  0
  6  7  1  0
  7  8  2  0
  8  9  1  0
  9 10  1  0
 10 11  1  0
 10 12  1  0
 12 13  2  0
 12 14  1  0
 14 15  1  0
 14 16  1  0
 14 17  1  0
 17 18  2  0
 18 19  1  0
 18 20  1  0
 20 21  1  0
 21 22  1  0
 22 23  1  0
 22 24  1  0
 22 25  1  0
 20 26  2  0
 26 27  1  0
 26 28  1  0
 28 29  1  0
 28 30  2  0
 30 31  1  0
 31 32  1  0
 32 33  1  0
 32 34  1  0
 32 35  1  0
  9 36  2  0
 36 37  1  0
 36 38  1  0
 38 39  1  0
 39 40  1  0
 39 41  1  0
 38 42  2  0
 42 43  1  0
 43 44  3  0
  6 45  2  0
 45 46  1  0
 45  2  1  0
 42  7  1  0
 30 17  1  0
M  END
>  <score>  (230) 
7.56827

$$$$

     RDKit          3D

 48 50  0  0  0  0  0  0  0  0999 V2000
   24.0331   10.4112   31.9884 H   0  0  0  0  0  0  0  0  0  0  0  0
   23.6119   11.2492   31.4361 C   0  0  0  0  0  0  0  0  0  0  0  0
   24.4646   12.1842   31.0027 N   0  0  0  0  0  0  0  0  0  0  0  0
   23.9914   13.2219   30.2992 C   0  0  0  0  0  0  0  0  0  0  0  0
   25.1321   14.3234   29.5736 Cl  0  0  0  0  0  0  0  0  0  0  0  0
   22.6247   13.3916   30.0651 C   0  0  0  0  0  0  0  0  0  0  0  0
   22.3050   14.2511   29.4871 H   0  0  0  0  0  0  0  0  0  0  0  0
   21.7136   12.4414   30.5272 C   0  0  0  0  0  0  0  0  0  0  0  0
   20.6488   12.5433   30.2966 H   0  0  0  0  0  0  0  0  0  0  0  0
   22.2376   11.3342   31.2146 C   0  0  0  0  0  0  0  0  0  0  0  0
   21.4100   10.2448   31.6893 C   0  0  0  0  0  0  0  0  0  0  0  0
   21.8141    9.0081   31.3836 N   0  0  0  0  0  0  0  0  0  0  0  0
   21.0522    7.9924   31.7490 C   0  0  0  0  0  0  0  0  0  0  0  0
   21.6021    6.8197   31.3709 N   0  0  0  0  0  0  0  0  0  0  0  0
   22.4996    6.9264   30.9236 H   0  0  0  0  0  0  0  0  0  0  0  0
   20.9187    5.6598   31.1313 C   0  0  0  0  0  0  0  0  0  0  0  0
   19.7307    5.5823   31.3904 O   0  0  0  0  0  0  0  0  0  0  0  0
   21.6133    4.5525   30.3385 C   0  0  0  0  0  0  0  0  0  0  0  0
   21.0024    3.6446   30.3295 H   0  0  0  0  0  0  0  0  0  0  0  0
   21.7158    4.8888   29.3050 H   0  0  0  0  0  0  0  0  0  0  0  0
   22.9909    4.2532   30.8867 C   0  0  0  0  0  0  0  0  0  0  0  0
   23.1770    3.1459   31.7321 C   0  0  0  0  0  0  0  0  0  0  0  0
   22.3438    2.4982   31.9810 H   0  0  0  0  0  0  0  0  0  0  0  0
   24.4382    2.8442   32.2726 C   0  0  0  0  0  0  0  0  0  0  0  0
   24.6618    1.7826   33.1218 O   0  0  0  0  0  0  0  0  0  0  0  0
   23.6881    0.7327   33.1405 C   0  0  0  0  0  0  0  0  0  0  0  0
   23.4980    0.3618   32.1291 H   0  0  0  0  0  0  0  0  0  0  0  0
   22.7503    1.0758   33.5850 H   0  0  0  0  0  0  0  0  0  0  0  0
   24.0696   -0.0953   33.7431 H   0  0  0  0  0  0  0  0  0  0  0  0
   25.5222    3.6758   31.9458 C   0  0  0  0  0  0  0  0  0  0  0  0
   27.2703    3.3049   32.6347 Br  0  0  0  0  0  0  0  0  0  0  0  0
   25.3426    4.7813   31.1005 C   0  0  0  0  0  0  0  0  0  0  0  0
   26.1861    5.4148   30.8438 H   0  0  0  0  0  0  0  0  0  0  0  0
   24.0817    5.0900   30.5702 C   0  0  0  0  0  0  0  0  0  0  0  0
   23.8631    6.1806   29.7552 O   0  0  0  0  0  0  0  0  0  0  0  0
   24.9331    7.1195   29.5871 C   0  0  0  0  0  0  0  0  0  0  0  0
   25.2628    7.5035   30.5559 H   0  0  0  0  0  0  0  0  0  0  0  0
   24.5841    7.9628   28.9851 H   0  0  0  0  0  0  0  0  0  0  0  0
   25.7799    6.6586   29.0718 H   0  0  0  0  0  0  0  0  0  0  0  0
   19.8828    8.1295   32.4462 C   0  0  0  0  0  0  0  0  0  0  0  0
   19.2657    7.2882   32.7327 H   0  0  0  0  0  0  0  0  0  0  0  0
   19.5364    9.3936   32.8218 C   0  0  0  0  0  0  0  0  0  0  0  0
   18.4652    9.5046   33.6336 N   0  0  0  0  0  0  0  0  0  0  0  0
   17.9446    8.6698   33.8846 H   0  0  0  0  0  0  0  0  0  0  0  0
   18.1577   10.4198   33.9405 H   0  0  0  0  0  0  0  0  0  0  0  0
   20.2748   10.4911   32.4443 C   0  0  0  0  0  0  0  0  0  0  0  0
   19.9445   11.8206   32.8614 C   0  0  0  0  0  0  0  0  0  0  0  0
   19.7009   12.9109   33.1879 N   0  0  0  0  0  0  0  0  0  0  0  0
  1  2  1  0
  2  3  2  0
  3  4  1  0
  4  5  1  0
  4  6  2  0
  6  7  1  0
  6  8  1  0
  8  9  1  0
  8 10  2  0
 10 11  1  0
 11 12  2  0
 12 13  1  0
 13 14  1  0
 14 15  1  0
 14 16  1  0
 16 17  2  0
 16 18  1  0
 18 19  1  0
 18 20  1  0
 18 21  1  0
 21 22  2  0
 22 23  1  0
 22 24  1  0
 24 25  1  0
 25 26  1  0
 26 27  1  0
 26 28  1  0
 26 29  1  0
 24 30  2  0
 30 31  1  0
 30 32  1  0
 32 33  1  0
 32 34  2  0
 34 35  1  0
 35 36  1  0
 36 37  1  0
 36 38  1  0
 36 39  1  0
 13 40  2  0
 40 41  1  0
 40 42  1  0
 42 43  1  0
 43 44  1  0
 43 45  1  0
 42 46  2  0
 46 47  1  0
 47 48  3  0
 10  2  1  0
 46 11  1  0
 34 21  1  0
M  END
>  <score>  (231) 
7.57338

$$$$

     RDKit          3D

 50 51  0  0  0  0  0  0  0  0999 V2000
   26.1713    5.4285   30.8482 H   0  0  0  0  0  0  0  0  0  0  0  0
   25.3297    4.7951   31.1027 C   0  0  0  0  0  0  0  0  0  0  0  0
   25.5231    3.6950   31.9439 C   0  0  0  0  0  0  0  0  0  0  0  0
   27.2731    3.3489   32.6369 Br  0  0  0  0  0  0  0  0  0  0  0  0
   24.4441    2.8560   32.2678 C   0  0  0  0  0  0  0  0  0  0  0  0
   24.6709    1.7872   33.1054 O   0  0  0  0  0  0  0  0  0  0  0  0
   23.6779    0.7488   33.1267 C   0  0  0  0  0  0  0  0  0  0  0  0
   23.4802    0.3831   32.1131 H   0  0  0  0  0  0  0  0  0  0  0  0
   24.0375   -0.0927   33.7305 H   0  0  0  0  0  0  0  0  0  0  0  0
   22.7408    1.1108   33.5634 H   0  0  0  0  0  0  0  0  0  0  0  0
   23.1759    3.1465   31.7336 C   0  0  0  0  0  0  0  0  0  0  0  0
   22.3408    2.4983   31.9836 H   0  0  0  0  0  0  0  0  0  0  0  0
   22.9808    4.2613   30.9005 C   0  0  0  0  0  0  0  0  0  0  0  0
   21.6020    4.5906   30.3711 C   0  0  0  0  0  0  0  0  0  0  0  0
   20.9555    3.7137   30.4206 H   0  0  0  0  0  0  0  0  0  0  0  0
   21.6797    4.9051   29.3271 H   0  0  0  0  0  0  0  0  0  0  0  0
   20.9602    5.7355   31.1370 C   0  0  0  0  0  0  0  0  0  0  0  0
   19.7681    5.6914   31.4039 O   0  0  0  0  0  0  0  0  0  0  0  0
   21.6595    6.8943   31.3209 N   0  0  0  0  0  0  0  0  0  0  0  0
   22.5304    6.9931   30.8208 H   0  0  0  0  0  0  0  0  0  0  0  0
   21.0898    8.0545   31.7238 C   0  0  0  0  0  0  0  0  0  0  0  0
   21.8134    9.0862   31.3653 N   0  0  0  0  0  0  0  0  0  0  0  0
   21.3583   10.2752   31.6895 C   0  0  0  0  0  0  0  0  0  0  0  0
   22.2122   11.2558   31.2842 N   0  0  0  0  0  0  0  0  0  0  0  0
   23.0962   10.8304   31.0299 H   0  0  0  0  0  0  0  0  0  0  0  0
   21.7287   12.2533   30.3256 C   0  0  0  0  0  0  0  0  0  0  0  0
   20.6381   12.3590   30.3690 H   0  0  0  0  0  0  0  0  0  0  0  0
   22.1528   11.7825   28.9452 C   0  0  0  0  0  0  0  0  0  0  0  0
   21.8134   12.4975   28.1891 H   0  0  0  0  0  0  0  0  0  0  0  0
   21.7223   10.7993   28.7292 H   0  0  0  0  0  0  0  0  0  0  0  0
   23.2458   11.7077   28.9052 H   0  0  0  0  0  0  0  0  0  0  0  0
   22.3720   13.6046   30.6024 C   0  0  0  0  0  0  0  0  0  0  0  0
   23.4612   13.5184   30.5387 H   0  0  0  0  0  0  0  0  0  0  0  0
   22.0318   14.3320   29.8589 H   0  0  0  0  0  0  0  0  0  0  0  0
   22.1008   13.9699   31.5972 H   0  0  0  0  0  0  0  0  0  0  0  0
   20.2190   10.5043   32.4214 C   0  0  0  0  0  0  0  0  0  0  0  0
   19.8971   11.8272   32.8318 C   0  0  0  0  0  0  0  0  0  0  0  0
   19.6902   12.9068   33.2096 N   0  0  0  0  0  0  0  0  0  0  0  0
   19.5091    9.3980   32.8091 C   0  0  0  0  0  0  0  0  0  0  0  0
   18.4372    9.4975   33.6242 N   0  0  0  0  0  0  0  0  0  0  0  0
   17.9327    8.6503   33.8878 H   0  0  0  0  0  0  0  0  0  0  0  0
   18.1327   10.4217   33.9240 H   0  0  0  0  0  0  0  0  0  0  0  0
   19.9080    8.1522   32.4256 C   0  0  0  0  0  0  0  0  0  0  0  0
   19.3444    7.2784   32.7083 H   0  0  0  0  0  0  0  0  0  0  0  0
   24.0658    5.0972   30.5776 C   0  0  0  0  0  0  0  0  0  0  0  0
   23.8424    6.1878   29.7638 O   0  0  0  0  0  0  0  0  0  0  0  0
   24.9345    7.1058   29.5975 C   0  0  0  0  0  0  0  0  0  0  0  0
   24.6095    7.9590   28.9937 H   0  0  0  0  0  0  0  0  0  0  0  0
   25.7777    6.6252   29.0886 H   0  0  0  0  0  0  0  0  0  0  0  0
   25.2732    7.4802   30.5701 H   0  0  0  0  0  0  0  0  0  0  0  0
  1  2  1  0
  2  3  2  0
  3  4  1  0
  3  5  1  0
  5  6  1  0
  6  7  1  0
  7  8  1  0
  7  9  1  0
  7 10  1  0
  5 11  2  0
 11 12  1  0
 11 13  1  0
 13 14  1  0
 14 15  1  0
 14 16  1  0
 14 17  1  0
 17 18  2  0
 17 19  1  0
 19 20  1  0
 19 21  1  0
 21 22  2  0
 22 23  1  0
 23 24  1  0
 24 25  1  0
 24 26  1  0
 26 27  1  0
 26 28  1  0
 28 29  1  0
 28 30  1  0
 28 31  1  0
 26 32  1  0
 32 33  1  0
 32 34  1  0
 32 35  1  0
 23 36  2  0
 36 37  1  0
 37 38  3  0
 36 39  1  0
 39 40  1  0
 40 41  1  0
 40 42  1  0
 39 43  2  0
 43 44  1  0
 13 45  2  0
 45 46  1  0
 46 47  1  0
 47 48  1  0
 47 49  1  0
 47 50  1  0
 45  2  1  0
 43 21  1  0
M  END
>  <score>  (232) 
7.57431

$$$$

     RDKit          3D

 47 48  0  0  0  0  0  0  0  0999 V2000
   22.7607   14.8316   28.5378 H   0  0  0  0  0  0  0  0  0  0  0  0
   22.0703   14.2794   29.1722 C   0  0  0  0  0  0  0  0  0  0  0  0
   21.0318   14.6077   29.2143 H   0  0  0  0  0  0  0  0  0  0  0  0
   22.4864   13.1697   29.8865 C   0  0  0  0  0  0  0  0  0  0  0  0
   23.5231   12.8528   29.8432 H   0  0  0  0  0  0  0  0  0  0  0  0
   21.6193   12.3837   30.7535 C   0  0  0  0  0  0  0  0  0  0  0  0
   20.4115   12.5728   30.7920 O   0  0  0  0  0  0  0  0  0  0  0  0
   22.2006   11.3036   31.3565 N   0  0  0  0  0  0  0  0  0  0  0  0
   23.0181   10.9500   30.8737 H   0  0  0  0  0  0  0  0  0  0  0  0
   21.3848   10.3110   31.7662 C   0  0  0  0  0  0  0  0  0  0  0  0
   21.7919    9.1521   31.2971 N   0  0  0  0  0  0  0  0  0  0  0  0
   21.0598    8.1009   31.5921 C   0  0  0  0  0  0  0  0  0  0  0  0
   21.5507    6.9689   31.0522 N   0  0  0  0  0  0  0  0  0  0  0  0
   22.3986    7.0725   30.5146 H   0  0  0  0  0  0  0  0  0  0  0  0
   20.9482    5.7477   31.1261 C   0  0  0  0  0  0  0  0  0  0  0  0
   19.8925    5.6129   31.7232 O   0  0  0  0  0  0  0  0  0  0  0  0
   21.5493    4.5616   30.3865 C   0  0  0  0  0  0  0  0  0  0  0  0
   21.5613    4.7767   29.3137 H   0  0  0  0  0  0  0  0  0  0  0  0
   20.9168    3.6828   30.5463 H   0  0  0  0  0  0  0  0  0  0  0  0
   22.9473    4.2858   30.8868 C   0  0  0  0  0  0  0  0  0  0  0  0
   23.1564    3.1702   31.7075 C   0  0  0  0  0  0  0  0  0  0  0  0
   22.3269    2.5135   31.9541 H   0  0  0  0  0  0  0  0  0  0  0  0
   24.4231    2.8825   32.2389 C   0  0  0  0  0  0  0  0  0  0  0  0
   24.6458    1.7968   33.0527 O   0  0  0  0  0  0  0  0  0  0  0  0
   23.6101    0.8019   33.0747 C   0  0  0  0  0  0  0  0  0  0  0  0
   23.9237   -0.0518   33.6847 H   0  0  0  0  0  0  0  0  0  0  0  0
   23.4023    0.4444   32.0601 H   0  0  0  0  0  0  0  0  0  0  0  0
   22.6862    1.2113   33.4976 H   0  0  0  0  0  0  0  0  0  0  0  0
   25.4906    3.7438   31.9431 C   0  0  0  0  0  0  0  0  0  0  0  0
   27.2375    3.4485   32.6746 Br  0  0  0  0  0  0  0  0  0  0  0  0
   25.2838    4.8510   31.1159 C   0  0  0  0  0  0  0  0  0  0  0  0
   26.1129    5.5091   30.8870 H   0  0  0  0  0  0  0  0  0  0  0  0
   24.0205    5.1439   30.5798 C   0  0  0  0  0  0  0  0  0  0  0  0
   23.7997    6.2535   29.7926 O   0  0  0  0  0  0  0  0  0  0  0  0
   24.9392    7.1080   29.6046 C   0  0  0  0  0  0  0  0  0  0  0  0
   25.3054    7.4720   30.5721 H   0  0  0  0  0  0  0  0  0  0  0  0
   24.6678    7.9698   28.9874 H   0  0  0  0  0  0  0  0  0  0  0  0
   25.7518    6.5634   29.1080 H   0  0  0  0  0  0  0  0  0  0  0  0
   19.9254    8.1537   32.3592 C   0  0  0  0  0  0  0  0  0  0  0  0
   19.3268    7.2922   32.6012 H   0  0  0  0  0  0  0  0  0  0  0  0
   19.5566    9.3677   32.8381 C   0  0  0  0  0  0  0  0  0  0  0  0
   18.4838    9.3993   33.6465 N   0  0  0  0  0  0  0  0  0  0  0  0
   18.0553   10.3014   33.8397 H   0  0  0  0  0  0  0  0  0  0  0  0
   17.9349    8.5484   33.7238 H   0  0  0  0  0  0  0  0  0  0  0  0
   20.2697   10.4926   32.5489 C   0  0  0  0  0  0  0  0  0  0  0  0
   19.8968   11.7762   33.0414 C   0  0  0  0  0  0  0  0  0  0  0  0
   19.6196   12.8462   33.4031 N   0  0  0  0  0  0  0  0  0  0  0  0
  1  2  1  0
  2  3  1  0
  2  4  2  0
  4  5  1  0
  4  6  1  0
  6  7  2  0
  6  8  1  0
  8  9  1  0
  8 10  1  0
 10 11  2  0
 11 12  1  0
 12 13  1  0
 13 14  1  0
 13 15  1  0
 15 16  2  0
 15 17  1  0
 17 18  1  0
 17 19  1  0
 17 20  1  0
 20 21  2  0
 21 22  1  0
 21 23  1  0
 23 24  1  0
 24 25  1  0
 25 26  1  0
 25 27  1  0
 25 28  1  0
 23 29  2  0
 29 30  1  0
 29 31  1  0
 31 32  1  0
 31 33  2  0
 33 34  1  0
 34 35  1  0
 35 36  1  0
 35 37  1  0
 35 38  1  0
 12 39  2  0
 39 40  1  0
 39 41  1  0
 41 42  1  0
 42 43  1  0
 42 44  1  0
 41 45  2  0
 45 46  1  0
 46 47  3  0
 45 10  1  0
 33 20  1  0
M  END
>  <score>  (233) 
7.57464

$$$$

     RDKit          3D

 51 53  0  0  0  0  0  0  0  0999 V2000
   26.8911   10.5505   29.3332 H   0  0  0  0  0  0  0  0  0  0  0  0
   25.9199   10.7695   29.7669 C   0  0  0  0  0  0  0  0  0  0  0  0
   25.1880   11.8817   29.3401 C   0  0  0  0  0  0  0  0  0  0  0  0
   25.5916   12.5414   28.5749 H   0  0  0  0  0  0  0  0  0  0  0  0
   23.9082   12.1031   29.8724 C   0  0  0  0  0  0  0  0  0  0  0  0
   23.3064   12.9330   29.5269 H   0  0  0  0  0  0  0  0  0  0  0  0
   23.3735   11.2258   30.8161 C   0  0  0  0  0  0  0  0  0  0  0  0
   22.0800   11.3759   31.2837 N   0  0  0  0  0  0  0  0  0  0  0  0
   21.5787   12.2166   31.0424 H   0  0  0  0  0  0  0  0  0  0  0  0
   21.3196   10.2984   31.6625 C   0  0  0  0  0  0  0  0  0  0  0  0
   21.6990    9.1092   31.2186 N   0  0  0  0  0  0  0  0  0  0  0  0
   20.9944    8.0702   31.5737 C   0  0  0  0  0  0  0  0  0  0  0  0
   21.5054    6.9463   31.0351 N   0  0  0  0  0  0  0  0  0  0  0  0
   22.3469    7.0791   30.4935 H   0  0  0  0  0  0  0  0  0  0  0  0
   20.9365    5.7068   31.0953 C   0  0  0  0  0  0  0  0  0  0  0  0
   19.8769    5.5528   31.6789 O   0  0  0  0  0  0  0  0  0  0  0  0
   21.5828    4.5544   30.3381 C   0  0  0  0  0  0  0  0  0  0  0  0
   20.9477    3.6673   30.4044 H   0  0  0  0  0  0  0  0  0  0  0  0
   21.6601    4.8306   29.2848 H   0  0  0  0  0  0  0  0  0  0  0  0
   22.9626    4.2638   30.8787 C   0  0  0  0  0  0  0  0  0  0  0  0
   23.1552    3.1592   31.7229 C   0  0  0  0  0  0  0  0  0  0  0  0
   22.3179    2.5133   31.9713 H   0  0  0  0  0  0  0  0  0  0  0  0
   24.4226    2.8684   32.2604 C   0  0  0  0  0  0  0  0  0  0  0  0
   24.6577    1.7964   33.0905 O   0  0  0  0  0  0  0  0  0  0  0  0
   23.6641    0.7633   33.1137 C   0  0  0  0  0  0  0  0  0  0  0  0
   24.0230   -0.0748   33.7190 H   0  0  0  0  0  0  0  0  0  0  0  0
   23.4626    0.3956   32.1033 H   0  0  0  0  0  0  0  0  0  0  0  0
   22.7303    1.1310   33.5476 H   0  0  0  0  0  0  0  0  0  0  0  0
   25.5006    3.7122   31.9447 C   0  0  0  0  0  0  0  0  0  0  0  0
   27.2582    3.3730   32.6341 Br  0  0  0  0  0  0  0  0  0  0  0  0
   25.3090    4.8095   31.0985 C   0  0  0  0  0  0  0  0  0  0  0  0
   26.1525    5.4445   30.8477 H   0  0  0  0  0  0  0  0  0  0  0  0
   24.0468    5.1069   30.5617 C   0  0  0  0  0  0  0  0  0  0  0  0
   23.8292    6.2003   29.7498 O   0  0  0  0  0  0  0  0  0  0  0  0
   24.9274    7.1092   29.5974 C   0  0  0  0  0  0  0  0  0  0  0  0
   24.6109    7.9823   29.0188 H   0  0  0  0  0  0  0  0  0  0  0  0
   25.2783    7.4444   30.5764 H   0  0  0  0  0  0  0  0  0  0  0  0
   25.7606    6.6266   29.0783 H   0  0  0  0  0  0  0  0  0  0  0  0
   19.8921    8.1448   32.3843 C   0  0  0  0  0  0  0  0  0  0  0  0
   19.3230    7.2707   32.6456 H   0  0  0  0  0  0  0  0  0  0  0  0
   19.5443    9.3785   32.8560 C   0  0  0  0  0  0  0  0  0  0  0  0
   18.5067    9.4755   33.7156 N   0  0  0  0  0  0  0  0  0  0  0  0
   17.9373    8.6512   33.8637 H   0  0  0  0  0  0  0  0  0  0  0  0
   18.1226   10.3953   33.9223 H   0  0  0  0  0  0  0  0  0  0  0  0
   20.2354   10.4909   32.4775 C   0  0  0  0  0  0  0  0  0  0  0  0
   19.8962   11.7999   32.9226 C   0  0  0  0  0  0  0  0  0  0  0  0
   19.6790   12.8979   33.2397 N   0  0  0  0  0  0  0  0  0  0  0  0
   24.1256   10.1427   31.2598 C   0  0  0  0  0  0  0  0  0  0  0  0
   23.7009    9.4766   32.0026 H   0  0  0  0  0  0  0  0  0  0  0  0
   25.3883    9.9058   30.7282 C   0  0  0  0  0  0  0  0  0  0  0  0
   25.9538    9.0512   31.0669 H   0  0  0  0  0  0  0  0  0  0  0  0
  1  2  1  0
  2  3  2  0
  3  4  1  0
  3  5  1  0
  5  6  1  0
  5  7  2  0
  7  8  1  0
  8  9  1  0
  8 10  1  0
 10 11  2  0
 11 12  1  0
 12 13  1  0
 13 14  1  0
 13 15  1  0
 15 16  2  0
 15 17  1  0
 17 18  1  0
 17 19  1  0
 17 20  1  0
 20 21  2  0
 21 22  1  0
 21 23  1  0
 23 24  1  0
 24 25  1  0
 25 26  1  0
 25 27  1  0
 25 28  1  0
 23 29  2  0
 29 30  1  0
 29 31  1  0
 31 32  1  0
 31 33  2  0
 33 34  1  0
 34 35  1  0
 35 36  1  0
 35 37  1  0
 35 38  1  0
 12 39  2  0
 39 40  1  0
 39 41  1  0
 41 42  1  0
 42 43  1  0
 42 44  1  0
 41 45  2  0
 45 46  1  0
 46 47  3  0
  7 48  1  0
 48 49  1  0
 48 50  2  0
 50 51  1  0
 50  2  1  0
 45 10  1  0
 33 20  1  0
M  END
>  <score>  (234) 
7.57579

$$$$

     RDKit          3D

 47 49  0  0  0  0  0  0  0  0999 V2000
   22.8888   13.6989   29.0923 H   0  0  0  0  0  0  0  0  0  0  0  0
   22.9299   12.8505   29.7640 C   0  0  0  0  0  0  0  0  0  0  0  0
   24.0364   12.1838   30.2329 C   0  0  0  0  0  0  0  0  0  0  0  0
   25.0827   12.3738   30.0285 H   0  0  0  0  0  0  0  0  0  0  0  0
   23.5568   11.1505   31.1211 C   0  0  0  0  0  0  0  0  0  0  0  0
   24.2296   10.3310   31.7187 O   0  0  0  0  0  0  0  0  0  0  0  0
   22.2126   11.2969   31.2619 N   0  0  0  0  0  0  0  0  0  0  0  0
   21.4086   10.2945   31.6502 C   0  0  0  0  0  0  0  0  0  0  0  0
   21.7490    9.1159   31.1813 N   0  0  0  0  0  0  0  0  0  0  0  0
   21.0028    8.0936   31.5304 C   0  0  0  0  0  0  0  0  0  0  0  0
   21.4710    6.9716   30.9605 N   0  0  0  0  0  0  0  0  0  0  0  0
   22.3305    7.0834   30.4472 H   0  0  0  0  0  0  0  0  0  0  0  0
   20.9208    5.7271   31.0509 C   0  0  0  0  0  0  0  0  0  0  0  0
   19.8700    5.5635   31.6471 O   0  0  0  0  0  0  0  0  0  0  0  0
   21.5988    4.5723   30.3185 C   0  0  0  0  0  0  0  0  0  0  0  0
   21.7064    4.8606   29.2679 H   0  0  0  0  0  0  0  0  0  0  0  0
   20.9582    3.6832   30.3641 H   0  0  0  0  0  0  0  0  0  0  0  0
   22.9756    4.2697   30.8854 C   0  0  0  0  0  0  0  0  0  0  0  0
   23.1643    3.1571   31.7293 C   0  0  0  0  0  0  0  0  0  0  0  0
   22.3380    2.4994   31.9770 H   0  0  0  0  0  0  0  0  0  0  0  0
   24.4280    2.8523   32.2668 C   0  0  0  0  0  0  0  0  0  0  0  0
   24.6614    1.7891   33.1108 O   0  0  0  0  0  0  0  0  0  0  0  0
   23.6834    0.7433   33.1330 C   0  0  0  0  0  0  0  0  0  0  0  0
   24.0558   -0.0885   33.7354 H   0  0  0  0  0  0  0  0  0  0  0  0
   22.7459    1.0892   33.5760 H   0  0  0  0  0  0  0  0  0  0  0  0
   23.4901    0.3709   32.1229 H   0  0  0  0  0  0  0  0  0  0  0  0
   25.5116    3.6826   31.9398 C   0  0  0  0  0  0  0  0  0  0  0  0
   27.2628    3.3266   32.6322 Br  0  0  0  0  0  0  0  0  0  0  0  0
   25.3301    4.7897   31.0996 C   0  0  0  0  0  0  0  0  0  0  0  0
   26.1722    5.4232   30.8403 H   0  0  0  0  0  0  0  0  0  0  0  0
   24.0699    5.1007   30.5681 C   0  0  0  0  0  0  0  0  0  0  0  0
   23.8523    6.1816   29.7406 O   0  0  0  0  0  0  0  0  0  0  0  0
   24.9308    7.1132   29.5901 C   0  0  0  0  0  0  0  0  0  0  0  0
   25.2563    7.4905   30.5643 H   0  0  0  0  0  0  0  0  0  0  0  0
   25.7816    6.6521   29.0795 H   0  0  0  0  0  0  0  0  0  0  0  0
   24.5972    7.9631   28.9918 H   0  0  0  0  0  0  0  0  0  0  0  0
   19.9212    8.1834   32.3706 C   0  0  0  0  0  0  0  0  0  0  0  0
   19.3464    7.3251   32.6850 H   0  0  0  0  0  0  0  0  0  0  0  0
   19.5939    9.4286   32.8117 C   0  0  0  0  0  0  0  0  0  0  0  0
   18.5448    9.5149   33.6530 N   0  0  0  0  0  0  0  0  0  0  0  0
   18.0005    8.6795   33.8488 H   0  0  0  0  0  0  0  0  0  0  0  0
   18.1857   10.4284   33.9049 H   0  0  0  0  0  0  0  0  0  0  0  0
   20.3163   10.5312   32.4399 C   0  0  0  0  0  0  0  0  0  0  0  0
   19.9822   11.8531   32.8625 C   0  0  0  0  0  0  0  0  0  0  0  0
   19.7073   12.9287   33.2052 N   0  0  0  0  0  0  0  0  0  0  0  0
   21.7786   12.2302   30.3787 C   0  0  0  0  0  0  0  0  0  0  0  0
   20.6088   12.4850   30.1612 O   0  0  0  0  0  0  0  0  0  0  0  0
  1  2  1  0
  2  3  2  0
  3  4  1  0
  3  5  1  0
  5  6  2  0
  5  7  1  0
  7  8  1  0
  8  9  2  0
  9 10  1  0
 10 11  1  0
 11 12  1  0
 11 13  1  0
 13 14  2  0
 13 15  1  0
 15 16  1  0
 15 17  1  0
 15 18  1  0
 18 19  2  0
 19 20  1  0
 19 21  1  0
 21 22  1  0
 22 23  1  0
 23 24  1  0
 23 25  1  0
 23 26  1  0
 21 27  2  0
 27 28  1  0
 27 29  1  0
 29 30  1  0
 29 31  2  0
 31 32  1  0
 32 33  1  0
 33 34  1  0
 33 35  1  0
 33 36  1  0
 10 37  2  0
 37 38  1  0
 37 39  1  0
 39 40  1  0
 40 41  1  0
 40 42  1  0
 39 43  2  0
 43 44  1  0
 44 45  3  0
  7 46  1  0
 46 47  2  0
 46  2  1  0
 43  8  1  0
 31 18  1  0
M  END
>  <score>  (235) 
7.57772

$$$$

     RDKit          3D

 51 53  0  0  0  0  0  0  0  0999 V2000
   26.1399    5.4709   30.8676 H   0  0  0  0  0  0  0  0  0  0  0  0
   25.3057    4.8219   31.1153 C   0  0  0  0  0  0  0  0  0  0  0  0
   25.5102    3.7194   31.9479 C   0  0  0  0  0  0  0  0  0  0  0  0
   27.2704    3.4366   32.6497 Br  0  0  0  0  0  0  0  0  0  0  0  0
   24.4394    2.8649   32.2557 C   0  0  0  0  0  0  0  0  0  0  0  0
   24.6767    1.7791   33.0659 O   0  0  0  0  0  0  0  0  0  0  0  0
   23.6479    0.7825   33.0908 C   0  0  0  0  0  0  0  0  0  0  0  0
   23.4395    0.4228   32.0783 H   0  0  0  0  0  0  0  0  0  0  0  0
   23.9676   -0.0666   33.6994 H   0  0  0  0  0  0  0  0  0  0  0  0
   22.7290    1.1901   33.5215 H   0  0  0  0  0  0  0  0  0  0  0  0
   23.1669    3.1614   31.7303 C   0  0  0  0  0  0  0  0  0  0  0  0
   22.3417    2.5024   31.9788 H   0  0  0  0  0  0  0  0  0  0  0  0
   22.9531    4.2800   30.9107 C   0  0  0  0  0  0  0  0  0  0  0  0
   21.5530    4.5872   30.4117 C   0  0  0  0  0  0  0  0  0  0  0  0
   21.5931    4.8315   29.3494 H   0  0  0  0  0  0  0  0  0  0  0  0
   20.8915    3.7242   30.5396 H   0  0  0  0  0  0  0  0  0  0  0  0
   20.9560    5.7835   31.1320 C   0  0  0  0  0  0  0  0  0  0  0  0
   19.7910    5.7643   31.4946 O   0  0  0  0  0  0  0  0  0  0  0  0
   21.6983    6.9202   31.2599 N   0  0  0  0  0  0  0  0  0  0  0  0
   22.5579    6.9923   30.7371 H   0  0  0  0  0  0  0  0  0  0  0  0
   21.1673    8.0833   31.6603 C   0  0  0  0  0  0  0  0  0  0  0  0
   21.8773    9.1048   31.2545 N   0  0  0  0  0  0  0  0  0  0  0  0
   21.4314   10.3116   31.5594 C   0  0  0  0  0  0  0  0  0  0  0  0
   22.2709   11.3627   31.1035 C   0  0  0  0  0  0  0  0  0  0  0  0
   23.6872   11.3084   31.1699 C   0  0  0  0  0  0  0  0  0  0  0  0
   24.4435   10.1440   31.7149 C   0  0  0  0  0  0  0  0  0  0  0  0
   25.2656   10.4825   32.3474 H   0  0  0  0  0  0  0  0  0  0  0  0
   24.8703    9.5544   30.9048 H   0  0  0  0  0  0  0  0  0  0  0  0
   23.7717    9.5020   32.2905 H   0  0  0  0  0  0  0  0  0  0  0  0
   24.2128   12.4084   30.7116 N   0  0  0  0  0  0  0  0  0  0  0  0
   23.1240   13.2069   30.2405 O   0  0  0  0  0  0  0  0  0  0  0  0
   21.9689   12.5275   30.5006 C   0  0  0  0  0  0  0  0  0  0  0  0
   20.6174   12.9825   30.0661 C   0  0  0  0  0  0  0  0  0  0  0  0
   20.4030   13.9651   30.4864 H   0  0  0  0  0  0  0  0  0  0  0  0
   20.5819   13.0577   28.9750 H   0  0  0  0  0  0  0  0  0  0  0  0
   19.8556   12.2764   30.3956 H   0  0  0  0  0  0  0  0  0  0  0  0
   20.2894   10.5340   32.3034 C   0  0  0  0  0  0  0  0  0  0  0  0
   19.9209   11.8453   32.7244 C   0  0  0  0  0  0  0  0  0  0  0  0
   19.6556   12.9096   33.1078 N   0  0  0  0  0  0  0  0  0  0  0  0
   19.5892    9.4287   32.7147 C   0  0  0  0  0  0  0  0  0  0  0  0
   18.4670    9.5312   33.4642 N   0  0  0  0  0  0  0  0  0  0  0  0
   18.1918   10.4442   33.8151 H   0  0  0  0  0  0  0  0  0  0  0  0
   18.0389    8.6874   33.8389 H   0  0  0  0  0  0  0  0  0  0  0  0
   20.0216    8.1810   32.4019 C   0  0  0  0  0  0  0  0  0  0  0  0
   19.4937    7.3088   32.7529 H   0  0  0  0  0  0  0  0  0  0  0  0
   24.0374    5.1208   30.5918 C   0  0  0  0  0  0  0  0  0  0  0  0
   23.8117    6.2254   29.8020 O   0  0  0  0  0  0  0  0  0  0  0  0
   24.9395    7.0900   29.6223 C   0  0  0  0  0  0  0  0  0  0  0  0
   25.3052    7.4423   30.5924 H   0  0  0  0  0  0  0  0  0  0  0  0
   25.7490    6.5590   29.1111 H   0  0  0  0  0  0  0  0  0  0  0  0
   24.6547    7.9560   29.0213 H   0  0  0  0  0  0  0  0  0  0  0  0
  1  2  1  0
  2  3  2  0
  3  4  1  0
  3  5  1  0
  5  6  1  0
  6  7  1  0
  7  8  1  0
  7  9  1  0
  7 10  1  0
  5 11  2  0
 11 12  1  0
 11 13  1  0
 13 14  1  0
 14 15  1  0
 14 16  1  0
 14 17  1  0
 17 18  2  0
 17 19  1  0
 19 20  1  0
 19 21  1  0
 21 22  2  0
 22 23  1  0
 23 24  1  0
 24 25  1  0
 25 26  1  0
 26 27  1  0
 26 28  1  0
 26 29  1  0
 25 30  2  0
 30 31  1  0
 31 32  1  0
 32 33  1  0
 33 34  1  0
 33 35  1  0
 33 36  1  0
 23 37  2  0
 37 38  1  0
 38 39  3  0
 37 40  1  0
 40 41  1  0
 41 42  1  0
 41 43  1  0
 40 44  2  0
 44 45  1  0
 13 46  2  0
 46 47  1  0
 47 48  1  0
 48 49  1  0
 48 50  1  0
 48 51  1  0
 46  2  1  0
 44 21  1  0
 32 24  2  0
M  END
>  <score>  (236) 
7.58212

$$$$

     RDKit          3D

 52 54  0  0  0  0  0  0  0  0999 V2000
   23.6655   15.2987   28.8044 H   0  0  0  0  0  0  0  0  0  0  0  0
   24.2244   14.4223   29.1206 C   0  0  0  0  0  0  0  0  0  0  0  0
   23.5969   13.4445   29.7986 N   0  0  0  0  0  0  0  0  0  0  0  0
   24.2469   12.2973   30.1403 C   0  0  0  0  0  0  0  0  0  0  0  0
   23.5061   11.1788   30.8656 C   0  0  0  0  0  0  0  0  0  0  0  0
   24.0622   10.1064   31.0871 O   0  0  0  0  0  0  0  0  0  0  0  0
   22.1892   11.2785   31.3001 N   0  0  0  0  0  0  0  0  0  0  0  0
   21.7019   12.1626   31.2607 H   0  0  0  0  0  0  0  0  0  0  0  0
   21.4413   10.2178   31.7348 C   0  0  0  0  0  0  0  0  0  0  0  0
   21.8293    9.0045   31.3907 N   0  0  0  0  0  0  0  0  0  0  0  0
   21.0630    7.9960   31.7454 C   0  0  0  0  0  0  0  0  0  0  0  0
   21.6236    6.8342   31.3570 N   0  0  0  0  0  0  0  0  0  0  0  0
   22.5050    6.9489   30.8826 H   0  0  0  0  0  0  0  0  0  0  0  0
   20.9336    5.6745   31.1325 C   0  0  0  0  0  0  0  0  0  0  0  0
   19.7412    5.6098   31.3893 O   0  0  0  0  0  0  0  0  0  0  0  0
   21.6121    4.5584   30.3456 C   0  0  0  0  0  0  0  0  0  0  0  0
   20.9869    3.6614   30.3554 H   0  0  0  0  0  0  0  0  0  0  0  0
   21.7060    4.8975   29.3120 H   0  0  0  0  0  0  0  0  0  0  0  0
   22.9912    4.2564   30.8903 C   0  0  0  0  0  0  0  0  0  0  0  0
   23.1761    3.1483   31.7335 C   0  0  0  0  0  0  0  0  0  0  0  0
   22.3416    2.5018   31.9820 H   0  0  0  0  0  0  0  0  0  0  0  0
   24.4374    2.8472   32.2720 C   0  0  0  0  0  0  0  0  0  0  0  0
   24.6640    1.7841   33.1172 O   0  0  0  0  0  0  0  0  0  0  0  0
   23.6852    0.7369   33.1365 C   0  0  0  0  0  0  0  0  0  0  0  0
   24.0615   -0.0943   33.7399 H   0  0  0  0  0  0  0  0  0  0  0  0
   22.7472    1.0839   33.5809 H   0  0  0  0  0  0  0  0  0  0  0  0
   23.4939    0.3659   32.1239 H   0  0  0  0  0  0  0  0  0  0  0  0
   25.5208    3.6776   31.9451 C   0  0  0  0  0  0  0  0  0  0  0  0
   27.2695    3.3155   32.6344 Br  0  0  0  0  0  0  0  0  0  0  0  0
   25.3399    4.7831   31.1020 C   0  0  0  0  0  0  0  0  0  0  0  0
   26.1813    5.4172   30.8435 H   0  0  0  0  0  0  0  0  0  0  0  0
   24.0802    5.0923   30.5715 C   0  0  0  0  0  0  0  0  0  0  0  0
   23.8590    6.1795   29.7521 O   0  0  0  0  0  0  0  0  0  0  0  0
   24.9314    7.1192   29.5913 C   0  0  0  0  0  0  0  0  0  0  0  0
   25.7779    6.6608   29.0691 H   0  0  0  0  0  0  0  0  0  0  0  0
   25.2642    7.4951   30.5644 H   0  0  0  0  0  0  0  0  0  0  0  0
   24.5842    7.9695   28.9972 H   0  0  0  0  0  0  0  0  0  0  0  0
   19.8897    8.1237   32.4433 C   0  0  0  0  0  0  0  0  0  0  0  0
   19.2703    7.2845   32.7252 H   0  0  0  0  0  0  0  0  0  0  0  0
   19.5563    9.3838   32.8231 C   0  0  0  0  0  0  0  0  0  0  0  0
   18.4710    9.5074   33.6080 N   0  0  0  0  0  0  0  0  0  0  0  0
   18.1833   10.4277   33.9231 H   0  0  0  0  0  0  0  0  0  0  0  0
   17.9530    8.6760   33.8783 H   0  0  0  0  0  0  0  0  0  0  0  0
   20.3062   10.4739   32.4647 C   0  0  0  0  0  0  0  0  0  0  0  0
   19.9722   11.8038   32.8672 C   0  0  0  0  0  0  0  0  0  0  0  0
   19.7180   12.8949   33.1804 N   0  0  0  0  0  0  0  0  0  0  0  0
   25.6076   12.1587   29.7654 C   0  0  0  0  0  0  0  0  0  0  0  0
   26.1446   11.2356   29.9630 H   0  0  0  0  0  0  0  0  0  0  0  0
   26.2810   13.1988   29.1171 C   0  0  0  0  0  0  0  0  0  0  0  0
   27.3278   13.1124   28.8368 H   0  0  0  0  0  0  0  0  0  0  0  0
   25.5738   14.3503   28.7939 C   0  0  0  0  0  0  0  0  0  0  0  0
   26.0497   15.1764   28.2713 H   0  0  0  0  0  0  0  0  0  0  0  0
  1  2  1  0
  2  3  2  0
  3  4  1  0
  4  5  1  0
  5  6  2  0
  5  7  1  0
  7  8  1  0
  7  9  1  0
  9 10  2  0
 10 11  1  0
 11 12  1  0
 12 13  1  0
 12 14  1  0
 14 15  2  0
 14 16  1  0
 16 17  1  0
 16 18  1  0
 16 19  1  0
 19 20  2  0
 20 21  1  0
 20 22  1  0
 22 23  1  0
 23 24  1  0
 24 25  1  0
 24 26  1  0
 24 27  1  0
 22 28  2  0
 28 29  1  0
 28 30  1  0
 30 31  1  0
 30 32  2  0
 32 33  1  0
 33 34  1  0
 34 35  1  0
 34 36  1  0
 34 37  1  0
 11 38  2  0
 38 39  1  0
 38 40  1  0
 40 41  1  0
 41 42  1  0
 41 43  1  0
 40 44  2  0
 44 45  1  0
 45 46  3  0
  4 47  2  0
 47 48  1  0
 47 49  1  0
 49 50  1  0
 49 51  2  0
 51 52  1  0
 51  2  1  0
 44  9  1  0
 32 19  1  0
M  END
>  <score>  (237) 
7.58358

$$$$

     RDKit          3D

 51 53  0  0  0  0  0  0  0  0999 V2000
   23.5006   14.2925   32.3322 H   0  0  0  0  0  0  0  0  0  0  0  0
   23.3375   13.4609   31.6526 C   0  0  0  0  0  0  0  0  0  0  0  0
   22.4372   12.5218   31.9844 N   0  0  0  0  0  0  0  0  0  0  0  0
   22.2546   11.4337   31.1872 C   0  0  0  0  0  0  0  0  0  0  0  0
   21.3521   10.2917   31.6059 C   0  0  0  0  0  0  0  0  0  0  0  0
   21.6266    9.0586   31.1308 N   0  0  0  0  0  0  0  0  0  0  0  0
   20.9060    8.0268   31.5140 C   0  0  0  0  0  0  0  0  0  0  0  0
   21.4247    6.8945   30.9954 N   0  0  0  0  0  0  0  0  0  0  0  0
   22.3117    7.0104   30.5264 H   0  0  0  0  0  0  0  0  0  0  0  0
   20.8969    5.6474   31.0907 C   0  0  0  0  0  0  0  0  0  0  0  0
   19.8481    5.4647   31.6810 O   0  0  0  0  0  0  0  0  0  0  0  0
   21.5791    4.5230   30.3203 C   0  0  0  0  0  0  0  0  0  0  0  0
   21.6667    4.8172   29.2679 H   0  0  0  0  0  0  0  0  0  0  0  0
   20.9489    3.6341   30.3782 H   0  0  0  0  0  0  0  0  0  0  0  0
   22.9549    4.2477   30.8828 C   0  0  0  0  0  0  0  0  0  0  0  0
   23.1609    3.1454   31.7272 C   0  0  0  0  0  0  0  0  0  0  0  0
   22.3331    2.4850   31.9727 H   0  0  0  0  0  0  0  0  0  0  0  0
   24.4313    2.8660   32.2631 C   0  0  0  0  0  0  0  0  0  0  0  0
   24.6646    1.7952   33.0944 O   0  0  0  0  0  0  0  0  0  0  0  0
   23.6695    0.7593   33.1185 C   0  0  0  0  0  0  0  0  0  0  0  0
   22.7341    1.1291   33.5519 H   0  0  0  0  0  0  0  0  0  0  0  0
   23.4707    0.3963   32.1045 H   0  0  0  0  0  0  0  0  0  0  0  0
   24.0251   -0.0836   33.7232 H   0  0  0  0  0  0  0  0  0  0  0  0
   25.5043    3.7136   31.9392 C   0  0  0  0  0  0  0  0  0  0  0  0
   27.2593    3.3803   32.6321 Br  0  0  0  0  0  0  0  0  0  0  0  0
   25.2994    4.8085   31.0984 C   0  0  0  0  0  0  0  0  0  0  0  0
   26.1394    5.4448   30.8443 H   0  0  0  0  0  0  0  0  0  0  0  0
   24.0348    5.1007   30.5684 C   0  0  0  0  0  0  0  0  0  0  0  0
   23.8247    6.1880   29.7482 O   0  0  0  0  0  0  0  0  0  0  0  0
   24.9281    7.0975   29.5979 C   0  0  0  0  0  0  0  0  0  0  0  0
   24.6204    7.9595   28.9971 H   0  0  0  0  0  0  0  0  0  0  0  0
   25.7725    6.6085   29.0987 H   0  0  0  0  0  0  0  0  0  0  0  0
   25.2625    7.4570   30.5774 H   0  0  0  0  0  0  0  0  0  0  0  0
   19.8442    8.1197   32.3786 C   0  0  0  0  0  0  0  0  0  0  0  0
   19.2866    7.2510   32.6844 H   0  0  0  0  0  0  0  0  0  0  0  0
   19.5386    9.3557   32.8709 C   0  0  0  0  0  0  0  0  0  0  0  0
   18.5150    9.4587   33.7647 N   0  0  0  0  0  0  0  0  0  0  0  0
   17.9126    8.6463   33.8920 H   0  0  0  0  0  0  0  0  0  0  0  0
   18.1372   10.3892   33.9354 H   0  0  0  0  0  0  0  0  0  0  0  0
   20.2728   10.4609   32.4877 C   0  0  0  0  0  0  0  0  0  0  0  0
   19.9168   11.7576   32.9688 C   0  0  0  0  0  0  0  0  0  0  0  0
   19.6268   12.8294   33.3132 N   0  0  0  0  0  0  0  0  0  0  0  0
   22.9574   11.3481   29.9684 C   0  0  0  0  0  0  0  0  0  0  0  0
   22.8068   10.4942   29.3164 H   0  0  0  0  0  0  0  0  0  0  0  0
   23.8483   12.3439   29.5819 C   0  0  0  0  0  0  0  0  0  0  0  0
   24.5136   12.3224   28.2363 C   0  0  0  0  0  0  0  0  0  0  0  0
   23.9063   12.8869   27.5157 H   0  0  0  0  0  0  0  0  0  0  0  0
   25.5057   12.7838   28.2985 H   0  0  0  0  0  0  0  0  0  0  0  0
   24.6218   11.2899   27.8856 H   0  0  0  0  0  0  0  0  0  0  0  0
   24.0725   13.3907   30.4692 C   0  0  0  0  0  0  0  0  0  0  0  0
   24.8040   14.1553   30.2418 H   0  0  0  0  0  0  0  0  0  0  0  0
  1  2  1  0
  2  3  2  0
  3  4  1  0
  4  5  1  0
  5  6  2  0
  6  7  1  0
  7  8  1  0
  8  9  1  0
  8 10  1  0
 10 11  2  0
 10 12  1  0
 12 13  1  0
 12 14  1  0
 12 15  1  0
 15 16  2  0
 16 17  1  0
 16 18  1  0
 18 19  1  0
 19 20  1  0
 20 21  1  0
 20 22  1  0
 20 23  1  0
 18 24  2  0
 24 25  1  0
 24 26  1  0
 26 27  1  0
 26 28  2  0
 28 29  1  0
 29 30  1  0
 30 31  1  0
 30 32  1  0
 30 33  1  0
  7 34  2  0
 34 35  1  0
 34 36  1  0
 36 37  1  0
 37 38  1  0
 37 39  1  0
 36 40  2  0
 40 41  1  0
 41 42  3  0
  4 43  2  0
 43 44  1  0
 43 45  1  0
 45 46  1  0
 46 47  1  0
 46 48  1  0
 46 49  1  0
 45 50  2  0
 50 51  1  0
 50  2  1  0
 40  5  1  0
 28 15  1  0
M  END
>  <score>  (238) 
7.58384

$$$$

     RDKit          3D

 52 54  0  0  0  0  0  0  0  0999 V2000
   26.7020   13.8840   30.2049 H   0  0  0  0  0  0  0  0  0  0  0  0
   25.6843   13.6850   29.8889 C   0  0  0  0  0  0  0  0  0  0  0  0
   25.0815   12.5798   30.3497 N   0  0  0  0  0  0  0  0  0  0  0  0
   23.7998   12.3411   29.9967 C   0  0  0  0  0  0  0  0  0  0  0  0
   23.1159   11.0711   30.4575 C   0  0  0  0  0  0  0  0  0  0  0  0
   23.8474   10.4470   30.9842 H   0  0  0  0  0  0  0  0  0  0  0  0
   22.8169   10.5347   29.5493 H   0  0  0  0  0  0  0  0  0  0  0  0
   21.9604   11.3000   31.3085 O   0  0  0  0  0  0  0  0  0  0  0  0
   21.2755   10.1842   31.7336 C   0  0  0  0  0  0  0  0  0  0  0  0
   21.7113    8.9784   31.3778 N   0  0  0  0  0  0  0  0  0  0  0  0
   21.0201    7.9372   31.7629 C   0  0  0  0  0  0  0  0  0  0  0  0
   21.5971    6.8068   31.3210 N   0  0  0  0  0  0  0  0  0  0  0  0
   22.4592    6.9392   30.8108 H   0  0  0  0  0  0  0  0  0  0  0  0
   20.9147    5.6457   31.1229 C   0  0  0  0  0  0  0  0  0  0  0  0
   19.7397    5.5651   31.4469 O   0  0  0  0  0  0  0  0  0  0  0  0
   21.5858    4.5216   30.3472 C   0  0  0  0  0  0  0  0  0  0  0  0
   21.6539    4.8252   29.3005 H   0  0  0  0  0  0  0  0  0  0  0  0
   20.9696    3.6207   30.4014 H   0  0  0  0  0  0  0  0  0  0  0  0
   22.9741    4.2448   30.8826 C   0  0  0  0  0  0  0  0  0  0  0  0
   23.1775    3.1433   31.7256 C   0  0  0  0  0  0  0  0  0  0  0  0
   22.3461    2.4926   31.9758 H   0  0  0  0  0  0  0  0  0  0  0  0
   24.4453    2.8570   32.2631 C   0  0  0  0  0  0  0  0  0  0  0  0
   24.6726    1.7831   33.0929 O   0  0  0  0  0  0  0  0  0  0  0  0
   23.6628    0.7646   33.1116 C   0  0  0  0  0  0  0  0  0  0  0  0
   23.4619    0.4037   32.0974 H   0  0  0  0  0  0  0  0  0  0  0  0
   24.0034   -0.0810   33.7170 H   0  0  0  0  0  0  0  0  0  0  0  0
   22.7336    1.1485   33.5440 H   0  0  0  0  0  0  0  0  0  0  0  0
   25.5189    3.7048   31.9471 C   0  0  0  0  0  0  0  0  0  0  0  0
   27.2732    3.3867   32.6486 Br  0  0  0  0  0  0  0  0  0  0  0  0
   25.3185    4.8043   31.1070 C   0  0  0  0  0  0  0  0  0  0  0  0
   26.1554    5.4502   30.8635 H   0  0  0  0  0  0  0  0  0  0  0  0
   24.0534    5.0966   30.5729 C   0  0  0  0  0  0  0  0  0  0  0  0
   23.8318    6.1967   29.7725 O   0  0  0  0  0  0  0  0  0  0  0  0
   24.9349    7.0988   29.6066 C   0  0  0  0  0  0  0  0  0  0  0  0
   25.2787    7.4674   30.5787 H   0  0  0  0  0  0  0  0  0  0  0  0
   25.7680    6.5982   29.1028 H   0  0  0  0  0  0  0  0  0  0  0  0
   24.6259    7.9552   29.0007 H   0  0  0  0  0  0  0  0  0  0  0  0
   19.8756    8.0044   32.5067 C   0  0  0  0  0  0  0  0  0  0  0  0
   19.3362    7.1170   32.7955 H   0  0  0  0  0  0  0  0  0  0  0  0
   19.4647    9.2382   32.8869 C   0  0  0  0  0  0  0  0  0  0  0  0
   18.3768    9.3133   33.6702 N   0  0  0  0  0  0  0  0  0  0  0  0
   18.4683    8.7536   34.5115 H   0  0  0  0  0  0  0  0  0  0  0  0
   17.5165    9.1471   33.1611 H   0  0  0  0  0  0  0  0  0  0  0  0
   20.1548   10.3528   32.5128 C   0  0  0  0  0  0  0  0  0  0  0  0
   19.7822   11.6599   32.9404 C   0  0  0  0  0  0  0  0  0  0  0  0
   19.5514   12.7429   33.2874 N   0  0  0  0  0  0  0  0  0  0  0  0
   23.1077   13.2039   29.1317 C   0  0  0  0  0  0  0  0  0  0  0  0
   22.0769   12.9871   28.8682 H   0  0  0  0  0  0  0  0  0  0  0  0
   23.7358   14.3391   28.6336 C   0  0  0  0  0  0  0  0  0  0  0  0
   23.2193   15.0209   27.9628 H   0  0  0  0  0  0  0  0  0  0  0  0
   25.0415   14.5835   29.0344 C   0  0  0  0  0  0  0  0  0  0  0  0
   25.5481   15.4799   28.7080 H   0  0  0  0  0  0  0  0  0  0  0  0
  1  2  1  0
  2  3  2  0
  3  4  1  0
  4  5  1  0
  5  6  1  0
  5  7  1  0
  5  8  1  0
  8  9  1  0
  9 10  2  0
 10 11  1  0
 11 12  1  0
 12 13  1  0
 12 14  1  0
 14 15  2  0
 14 16  1  0
 16 17  1  0
 16 18  1  0
 16 19  1  0
 19 20  2  0
 20 21  1  0
 20 22  1  0
 22 23  1  0
 23 24  1  0
 24 25  1  0
 24 26  1  0
 24 27  1  0
 22 28  2  0
 28 29  1  0
 28 30  1  0
 30 31  1  0
 30 32  2  0
 32 33  1  0
 33 34  1  0
 34 35  1  0
 34 36  1  0
 34 37  1  0
 11 38  2  0
 38 39  1  0
 38 40  1  0
 40 41  1  0
 41 42  1  0
 41 43  1  0
 40 44  2  0
 44 45  1  0
 45 46  3  0
  4 47  2  0
 47 48  1  0
 47 49  1  0
 49 50  1  0
 49 51  2  0
 51 52  1  0
 51  2  1  0
 44  9  1  0
 32 19  1  0
M  END
>  <score>  (239) 
7.58399

$$$$

     RDKit          3D

 49 51  0  0  0  0  0  0  0  0999 V2000
   26.7678   11.0145   29.2640 H   0  0  0  0  0  0  0  0  0  0  0  0
   25.7683   11.0855   29.6803 C   0  0  0  0  0  0  0  0  0  0  0  0
   25.0066   12.1406   29.3520 N   0  0  0  0  0  0  0  0  0  0  0  0
   23.7692   12.2215   29.8879 C   0  0  0  0  0  0  0  0  0  0  0  0
   23.1450   13.0663   29.6132 H   0  0  0  0  0  0  0  0  0  0  0  0
   23.2324   11.2428   30.7585 C   0  0  0  0  0  0  0  0  0  0  0  0
   21.9524   11.3569   31.2791 O   0  0  0  0  0  0  0  0  0  0  0  0
   21.3074   10.2164   31.7132 C   0  0  0  0  0  0  0  0  0  0  0  0
   21.7179    9.0165   31.2941 N   0  0  0  0  0  0  0  0  0  0  0  0
   21.0762    7.9606   31.7195 C   0  0  0  0  0  0  0  0  0  0  0  0
   21.6157    6.8429   31.2123 N   0  0  0  0  0  0  0  0  0  0  0  0
   22.4515    6.9929   30.6703 H   0  0  0  0  0  0  0  0  0  0  0  0
   20.9402    5.6713   31.0655 C   0  0  0  0  0  0  0  0  0  0  0  0
   19.8001    5.5718   31.4824 O   0  0  0  0  0  0  0  0  0  0  0  0
   21.5882    4.5018   30.3391 C   0  0  0  0  0  0  0  0  0  0  0  0
   20.9595    3.6169   30.4650 H   0  0  0  0  0  0  0  0  0  0  0  0
   21.6389    4.7346   29.2741 H   0  0  0  0  0  0  0  0  0  0  0  0
   22.9735    4.2459   30.8807 C   0  0  0  0  0  0  0  0  0  0  0  0
   23.1778    3.1407   31.7179 C   0  0  0  0  0  0  0  0  0  0  0  0
   22.3489    2.4827   31.9616 H   0  0  0  0  0  0  0  0  0  0  0  0
   24.4427    2.8614   32.2550 C   0  0  0  0  0  0  0  0  0  0  0  0
   24.6674    1.7765   33.0712 O   0  0  0  0  0  0  0  0  0  0  0  0
   23.6408    0.7753   33.0969 C   0  0  0  0  0  0  0  0  0  0  0  0
   22.7194    1.1807   33.5255 H   0  0  0  0  0  0  0  0  0  0  0  0
   23.4313    0.4147   32.0845 H   0  0  0  0  0  0  0  0  0  0  0  0
   23.9653   -0.0738   33.7066 H   0  0  0  0  0  0  0  0  0  0  0  0
   25.5099    3.7220   31.9539 C   0  0  0  0  0  0  0  0  0  0  0  0
   27.2620    3.4063   32.6617 Br  0  0  0  0  0  0  0  0  0  0  0  0
   25.3033    4.8308   31.1253 C   0  0  0  0  0  0  0  0  0  0  0  0
   26.1317    5.4884   30.8933 H   0  0  0  0  0  0  0  0  0  0  0  0
   24.0412    5.1175   30.5890 C   0  0  0  0  0  0  0  0  0  0  0  0
   23.8144    6.2329   29.8090 O   0  0  0  0  0  0  0  0  0  0  0  0
   24.9343    7.1097   29.6175 C   0  0  0  0  0  0  0  0  0  0  0  0
   25.3158    7.4632   30.5808 H   0  0  0  0  0  0  0  0  0  0  0  0
   25.7402    6.5898   29.0903 H   0  0  0  0  0  0  0  0  0  0  0  0
   24.6339    7.9777   29.0239 H   0  0  0  0  0  0  0  0  0  0  0  0
   20.0164    7.9935   32.5733 C   0  0  0  0  0  0  0  0  0  0  0  0
   19.5343    7.0967   32.9191 H   0  0  0  0  0  0  0  0  0  0  0  0
   19.5899    9.2133   32.9658 C   0  0  0  0  0  0  0  0  0  0  0  0
   18.4974    9.2710   33.7579 N   0  0  0  0  0  0  0  0  0  0  0  0
   17.8646   10.0333   33.5461 H   0  0  0  0  0  0  0  0  0  0  0  0
   18.0922    8.3821   34.0442 H   0  0  0  0  0  0  0  0  0  0  0  0
   20.2128   10.3512   32.5431 C   0  0  0  0  0  0  0  0  0  0  0  0
   19.7823   11.6335   32.9841 C   0  0  0  0  0  0  0  0  0  0  0  0
   19.4461   12.6847   33.3494 N   0  0  0  0  0  0  0  0  0  0  0  0
   24.0594   10.1787   31.1288 C   0  0  0  0  0  0  0  0  0  0  0  0
   23.7065    9.4253   31.8323 H   0  0  0  0  0  0  0  0  0  0  0  0
   25.3339   10.0963   30.5678 C   0  0  0  0  0  0  0  0  0  0  0  0
   26.0063    9.2867   30.8224 H   0  0  0  0  0  0  0  0  0  0  0  0
  1  2  1  0
  2  3  2  0
  3  4  1  0
  4  5  1  0
  4  6  2  0
  6  7  1  0
  7  8  1  0
  8  9  2  0
  9 10  1  0
 10 11  1  0
 11 12  1  0
 11 13  1  0
 13 14  2  0
 13 15  1  0
 15 16  1  0
 15 17  1  0
 15 18  1  0
 18 19  2  0
 19 20  1  0
 19 21  1  0
 21 22  1  0
 22 23  1  0
 23 24  1  0
 23 25  1  0
 23 26  1  0
 21 27  2  0
 27 28  1  0
 27 29  1  0
 29 30  1  0
 29 31  2  0
 31 32  1  0
 32 33  1  0
 33 34  1  0
 33 35  1  0
 33 36  1  0
 10 37  2  0
 37 38  1  0
 37 39  1  0
 39 40  1  0
 40 41  1  0
 40 42  1  0
 39 43  2  0
 43 44  1  0
 44 45  3  0
  6 46  1  0
 46 47  1  0
 46 48  2  0
 48 49  1  0
 48  2  1  0
 43  8  1  0
 31 18  1  0
M  END
>  <score>  (240) 
7.58404

$$$$

     RDKit          3D

 60 62  0  0  0  0  0  0  0  0999 V2000
   26.1671    5.4335   30.8554 H   0  0  0  0  0  0  0  0  0  0  0  0
   25.3232    4.7979   31.1038 C   0  0  0  0  0  0  0  0  0  0  0  0
   25.5203    3.7004   31.9464 C   0  0  0  0  0  0  0  0  0  0  0  0
   27.2762    3.3713   32.6400 Br  0  0  0  0  0  0  0  0  0  0  0  0
   24.4432    2.8563   32.2659 C   0  0  0  0  0  0  0  0  0  0  0  0
   24.6727    1.7839   33.0989 O   0  0  0  0  0  0  0  0  0  0  0  0
   23.6711    0.7565   33.1196 C   0  0  0  0  0  0  0  0  0  0  0  0
   24.0208   -0.0878   33.7239 H   0  0  0  0  0  0  0  0  0  0  0  0
   23.4714    0.3948   32.1055 H   0  0  0  0  0  0  0  0  0  0  0  0
   22.7384    1.1314   33.5527 H   0  0  0  0  0  0  0  0  0  0  0  0
   23.1733    3.1487   31.7324 C   0  0  0  0  0  0  0  0  0  0  0  0
   22.3387    2.5008   31.9832 H   0  0  0  0  0  0  0  0  0  0  0  0
   22.9709    4.2586   30.8961 C   0  0  0  0  0  0  0  0  0  0  0  0
   21.5839    4.5636   30.3662 C   0  0  0  0  0  0  0  0  0  0  0  0
   20.9545    3.6760   30.4262 H   0  0  0  0  0  0  0  0  0  0  0  0
   21.6574    4.8737   29.3193 H   0  0  0  0  0  0  0  0  0  0  0  0
   20.9136    5.6890   31.1349 C   0  0  0  0  0  0  0  0  0  0  0  0
   19.7292    5.6232   31.4344 O   0  0  0  0  0  0  0  0  0  0  0  0
   21.6139    6.8483   31.2907 N   0  0  0  0  0  0  0  0  0  0  0  0
   22.4999    6.9464   30.8135 H   0  0  0  0  0  0  0  0  0  0  0  0
   21.0701    8.0076   31.7105 C   0  0  0  0  0  0  0  0  0  0  0  0
   21.8104    9.0222   31.3262 N   0  0  0  0  0  0  0  0  0  0  0  0
   21.4295   10.2500   31.6681 C   0  0  0  0  0  0  0  0  0  0  0  0
   22.3033   11.3735   31.2021 C   0  0  0  0  0  0  0  0  0  0  0  0
   23.3230   11.0118   31.0402 H   0  0  0  0  0  0  0  0  0  0  0  0
   22.3327   12.1423   31.9739 H   0  0  0  0  0  0  0  0  0  0  0  0
   21.7469   11.9626   29.9156 C   0  0  0  0  0  0  0  0  0  0  0  0
   21.6385   11.1866   29.1484 H   0  0  0  0  0  0  0  0  0  0  0  0
   20.7444   12.3606   30.1167 H   0  0  0  0  0  0  0  0  0  0  0  0
   22.6124   13.0470   29.4118 N   0  0  0  0  0  0  0  0  0  0  0  0
   21.9426   13.8941   28.4176 C   0  0  0  0  0  0  0  0  0  0  0  0
   21.3715   14.6925   28.8996 H   0  0  0  0  0  0  0  0  0  0  0  0
   21.2594   13.2878   27.8153 H   0  0  0  0  0  0  0  0  0  0  0  0
   23.0192   14.4715   27.5279 C   0  0  0  0  0  0  0  0  0  0  0  0
   22.6860   14.5041   26.4872 H   0  0  0  0  0  0  0  0  0  0  0  0
   23.2790   15.4847   27.8482 H   0  0  0  0  0  0  0  0  0  0  0  0
   24.2086   13.5568   27.6928 C   0  0  0  0  0  0  0  0  0  0  0  0
   25.1150   14.1566   27.7297 H   0  0  0  0  0  0  0  0  0  0  0  0
   24.2918   12.8984   26.8367 H   0  0  0  0  0  0  0  0  0  0  0  0
   23.9946   12.7588   28.9813 C   0  0  1  0  0  0  0  0  0  0  0  0
   24.1342   11.6872   28.7999 H   0  0  0  0  0  0  0  0  0  0  0  0
   25.0164   13.2580   30.0064 C   0  0  0  0  0  0  0  0  0  0  0  0
   24.9396   14.3441   30.1032 H   0  0  0  0  0  0  0  0  0  0  0  0
   24.8650   12.8097   30.9917 H   0  0  0  0  0  0  0  0  0  0  0  0
   26.0292   13.0209   29.6680 H   0  0  0  0  0  0  0  0  0  0  0  0
   20.2892   10.4679   32.4367 C   0  0  0  0  0  0  0  0  0  0  0  0
   19.9297   11.7805   32.8526 C   0  0  0  0  0  0  0  0  0  0  0  0
   19.6899   12.8564   33.2221 N   0  0  0  0  0  0  0  0  0  0  0  0
   19.5470    9.3788   32.8299 C   0  0  0  0  0  0  0  0  0  0  0  0
   18.4487    9.5028   33.6192 N   0  0  0  0  0  0  0  0  0  0  0  0
   17.9297    8.6691   33.8839 H   0  0  0  0  0  0  0  0  0  0  0  0
   18.1378   10.4286   33.9149 H   0  0  0  0  0  0  0  0  0  0  0  0
   19.9203    8.1245   32.4505 C   0  0  0  0  0  0  0  0  0  0  0  0
   19.3433    7.2661   32.7473 H   0  0  0  0  0  0  0  0  0  0  0  0
   24.0575    5.0974   30.5764 C   0  0  0  0  0  0  0  0  0  0  0  0
   23.8372    6.1924   29.7690 O   0  0  0  0  0  0  0  0  0  0  0  0
   24.9333    7.1020   29.6015 C   0  0  0  0  0  0  0  0  0  0  0  0
   25.2743    7.4704   30.5744 H   0  0  0  0  0  0  0  0  0  0  0  0
   25.7708    6.6091   29.0972 H   0  0  0  0  0  0  0  0  0  0  0  0
   24.6145    7.9568   28.9963 H   0  0  0  0  0  0  0  0  0  0  0  0
  1  2  1  0
  2  3  2  0
  3  4  1  0
  3  5  1  0
  5  6  1  0
  6  7  1  0
  7  8  1  0
  7  9  1  0
  7 10  1  0
  5 11  2  0
 11 12  1  0
 11 13  1  0
 13 14  1  0
 14 15  1  0
 14 16  1  0
 14 17  1  0
 17 18  2  0
 17 19  1  0
 19 20  1  0
 19 21  1  0
 21 22  2  0
 22 23  1  0
 23 24  1  0
 24 25  1  0
 24 26  1  0
 24 27  1  0
 27 28  1  0
 27 29  1  0
 27 30  1  0
 30 31  1  0
 31 32  1  0
 31 33  1  0
 31 34  1  0
 34 35  1  0
 34 36  1  0
 34 37  1  0
 37 38  1  0
 37 39  1  0
 37 40  1  0
 40 41  1  6
 40 42  1  0
 42 43  1  0
 42 44  1  0
 42 45  1  0
 23 46  2  0
 46 47  1  0
 47 48  3  0
 46 49  1  0
 49 50  1  0
 50 51  1  0
 50 52  1  0
 49 53  2  0
 53 54  1  0
 13 55  2  0
 55 56  1  0
 56 57  1  0
 57 58  1  0
 57 59  1  0
 57 60  1  0
 55  2  1  0
 53 21  1  0
 40 30  1  0
M  END
>  <score>  (241) 
7.58605

$$$$

     RDKit          3D

 46 48  0  0  0  0  0  0  0  0999 V2000
   24.7488   13.1149   29.3891 H   0  0  0  0  0  0  0  0  0  0  0  0
   23.9560   12.7241   30.0197 C   0  0  0  0  0  0  0  0  0  0  0  0
   23.1178   11.2250   29.6614 S   0  0  0  0  0  0  0  0  0  0  0  0
   22.2100   11.3656   31.1659 C   0  0  0  0  0  0  0  0  0  0  0  0
   21.3354   10.2841   31.6067 C   0  0  0  0  0  0  0  0  0  0  0  0
   21.6302    9.0776   31.1276 N   0  0  0  0  0  0  0  0  0  0  0  0
   20.9273    8.0516   31.5217 C   0  0  0  0  0  0  0  0  0  0  0  0
   21.4351    6.9341   30.9736 N   0  0  0  0  0  0  0  0  0  0  0  0
   22.3214    7.0557   30.5034 H   0  0  0  0  0  0  0  0  0  0  0  0
   20.9037    5.6885   31.0640 C   0  0  0  0  0  0  0  0  0  0  0  0
   19.8595    5.5016   31.6708 O   0  0  0  0  0  0  0  0  0  0  0  0
   21.5870    4.5525   30.3206 C   0  0  0  0  0  0  0  0  0  0  0  0
   20.9498    3.6690   30.3716 H   0  0  0  0  0  0  0  0  0  0  0  0
   21.6859    4.8396   29.2692 H   0  0  0  0  0  0  0  0  0  0  0  0
   22.9634    4.2638   30.8882 C   0  0  0  0  0  0  0  0  0  0  0  0
   23.1623    3.1529   31.7285 C   0  0  0  0  0  0  0  0  0  0  0  0
   22.3397    2.4901   31.9757 H   0  0  0  0  0  0  0  0  0  0  0  0
   24.4286    2.8590   32.2650 C   0  0  0  0  0  0  0  0  0  0  0  0
   24.6629    1.7920   33.1025 O   0  0  0  0  0  0  0  0  0  0  0  0
   23.6754    0.7521   33.1245 C   0  0  0  0  0  0  0  0  0  0  0  0
   23.4822    0.3845   32.1112 H   0  0  0  0  0  0  0  0  0  0  0  0
   24.0388   -0.0847   33.7286 H   0  0  0  0  0  0  0  0  0  0  0  0
   22.7404    1.1111   33.5655 H   0  0  0  0  0  0  0  0  0  0  0  0
   25.5059    3.6973   31.9395 C   0  0  0  0  0  0  0  0  0  0  0  0
   27.2584    3.3568   32.6299 Br  0  0  0  0  0  0  0  0  0  0  0  0
   25.3131    4.7988   31.0992 C   0  0  0  0  0  0  0  0  0  0  0  0
   26.1507    5.4363   30.8392 H   0  0  0  0  0  0  0  0  0  0  0  0
   24.0509    5.1019   30.5699 C   0  0  0  0  0  0  0  0  0  0  0  0
   23.8379    6.1851   29.7454 O   0  0  0  0  0  0  0  0  0  0  0  0
   24.9307    7.1039   29.5941 C   0  0  0  0  0  0  0  0  0  0  0  0
   24.6119    7.9599   28.9946 H   0  0  0  0  0  0  0  0  0  0  0  0
   25.2574    7.4728   30.5723 H   0  0  0  0  0  0  0  0  0  0  0  0
   25.7763    6.6273   29.0859 H   0  0  0  0  0  0  0  0  0  0  0  0
   19.8723    8.1401   32.3903 C   0  0  0  0  0  0  0  0  0  0  0  0
   19.3010    7.2826   32.6919 H   0  0  0  0  0  0  0  0  0  0  0  0
   19.5608    9.3746   32.8690 C   0  0  0  0  0  0  0  0  0  0  0  0
   18.5275    9.4712   33.7387 N   0  0  0  0  0  0  0  0  0  0  0  0
   18.1718   10.4044   33.9143 H   0  0  0  0  0  0  0  0  0  0  0  0
   17.9263    8.6610   33.8852 H   0  0  0  0  0  0  0  0  0  0  0  0
   20.2858   10.4815   32.4933 C   0  0  0  0  0  0  0  0  0  0  0  0
   19.9592   11.7924   32.9488 C   0  0  0  0  0  0  0  0  0  0  0  0
   19.6965   12.8822   33.2616 N   0  0  0  0  0  0  0  0  0  0  0  0
   22.4877   12.5290   31.8514 C   0  0  0  0  0  0  0  0  0  0  0  0
   22.0375   12.8125   32.8057 H   0  0  0  0  0  0  0  0  0  0  0  0
   23.5446   13.2895   31.2025 C   0  0  0  0  0  0  0  0  0  0  0  0
   23.9996   14.1668   31.6443 H   0  0  0  0  0  0  0  0  0  0  0  0
  1  2  1  0
  2  3  1  0
  3  4  1  0
  4  5  1  0
  5  6  2  0
  6  7  1  0
  7  8  1  0
  8  9  1  0
  8 10  1  0
 10 11  2  0
 10 12  1  0
 12 13  1  0
 12 14  1  0
 12 15  1  0
 15 16  2  0
 16 17  1  0
 16 18  1  0
 18 19  1  0
 19 20  1  0
 20 21  1  0
 20 22  1  0
 20 23  1  0
 18 24  2  0
 24 25  1  0
 24 26  1  0
 26 27  1  0
 26 28  2  0
 28 29  1  0
 29 30  1  0
 30 31  1  0
 30 32  1  0
 30 33  1  0
  7 34  2  0
 34 35  1  0
 34 36  1  0
 36 37  1  0
 37 38  1  0
 37 39  1  0
 36 40  2  0
 40 41  1  0
 41 42  3  0
  4 43  2  0
 43 44  1  0
 43 45  1  0
 45 46  1  0
 45  2  2  0
 40  5  1  0
 28 15  1  0
M  END
>  <score>  (242) 
7.58741

$$$$

     RDKit          3D

 50 52  0  0  0  0  0  0  0  0999 V2000
   23.9501   15.5161   27.7106 H   0  0  0  0  0  0  0  0  0  0  0  0
   23.6677   14.7937   28.4614 C   0  0  0  0  0  0  0  0  0  0  0  0
   22.0177   14.2462   28.6917 S   0  0  0  0  0  0  0  0  0  0  0  0
   22.5569   13.1807   29.9740 C   0  0  0  0  0  0  0  0  0  0  0  0
   21.6507   12.2783   30.6378 C   0  0  0  0  0  0  0  0  0  0  0  0
   20.4477   12.3906   30.4640 O   0  0  0  0  0  0  0  0  0  0  0  0
   22.1614   11.2645   31.3958 N   0  0  0  0  0  0  0  0  0  0  0  0
   23.0706   10.9302   31.1143 H   0  0  0  0  0  0  0  0  0  0  0  0
   21.3177   10.2756   31.7404 C   0  0  0  0  0  0  0  0  0  0  0  0
   21.7243    9.1240   31.2630 N   0  0  0  0  0  0  0  0  0  0  0  0
   20.9846    8.0841   31.5611 C   0  0  0  0  0  0  0  0  0  0  0  0
   21.4969    6.9697   31.0039 N   0  0  0  0  0  0  0  0  0  0  0  0
   22.3591    7.1012   30.4967 H   0  0  0  0  0  0  0  0  0  0  0  0
   20.9457    5.7257   31.0911 C   0  0  0  0  0  0  0  0  0  0  0  0
   19.8882    5.5682   31.6778 O   0  0  0  0  0  0  0  0  0  0  0  0
   21.5835    4.5629   30.3435 C   0  0  0  0  0  0  0  0  0  0  0  0
   20.9380    3.6848   30.4267 H   0  0  0  0  0  0  0  0  0  0  0  0
   21.6543    4.8263   29.2857 H   0  0  0  0  0  0  0  0  0  0  0  0
   22.9649    4.2641   30.8796 C   0  0  0  0  0  0  0  0  0  0  0  0
   23.1573    3.1572   31.7220 C   0  0  0  0  0  0  0  0  0  0  0  0
   22.3199    2.5109   31.9709 H   0  0  0  0  0  0  0  0  0  0  0  0
   24.4250    2.8683   32.2600 C   0  0  0  0  0  0  0  0  0  0  0  0
   24.6593    1.7951   33.0887 O   0  0  0  0  0  0  0  0  0  0  0  0
   23.6617    0.7656   33.1112 C   0  0  0  0  0  0  0  0  0  0  0  0
   23.4602    0.3993   32.0995 H   0  0  0  0  0  0  0  0  0  0  0  0
   22.7292    1.1384   33.5449 H   0  0  0  0  0  0  0  0  0  0  0  0
   24.0166   -0.0743   33.7171 H   0  0  0  0  0  0  0  0  0  0  0  0
   25.5016    3.7139   31.9444 C   0  0  0  0  0  0  0  0  0  0  0  0
   27.2578    3.3832   32.6363 Br  0  0  0  0  0  0  0  0  0  0  0  0
   25.3103    4.8111   31.0995 C   0  0  0  0  0  0  0  0  0  0  0  0
   26.1523    5.4472   30.8496 H   0  0  0  0  0  0  0  0  0  0  0  0
   24.0489    5.1063   30.5629 C   0  0  0  0  0  0  0  0  0  0  0  0
   23.8302    6.2005   29.7537 O   0  0  0  0  0  0  0  0  0  0  0  0
   24.9336    7.1033   29.5970 C   0  0  0  0  0  0  0  0  0  0  0  0
   24.6268    7.9621   28.9924 H   0  0  0  0  0  0  0  0  0  0  0  0
   25.2725    7.4659   30.5729 H   0  0  0  0  0  0  0  0  0  0  0  0
   25.7724    6.6058   29.0995 H   0  0  0  0  0  0  0  0  0  0  0  0
   19.8700    8.1343   32.3659 C   0  0  0  0  0  0  0  0  0  0  0  0
   19.3230    7.2456   32.6187 H   0  0  0  0  0  0  0  0  0  0  0  0
   19.5058    9.3518   32.8696 C   0  0  0  0  0  0  0  0  0  0  0  0
   18.4749    9.4327   33.7448 N   0  0  0  0  0  0  0  0  0  0  0  0
   18.0717   10.3528   33.9030 H   0  0  0  0  0  0  0  0  0  0  0  0
   17.8864    8.6132   33.8570 H   0  0  0  0  0  0  0  0  0  0  0  0
   20.2049   10.4731   32.5220 C   0  0  0  0  0  0  0  0  0  0  0  0
   19.8599   11.7811   32.9713 C   0  0  0  0  0  0  0  0  0  0  0  0
   19.6291   12.8757   33.2933 N   0  0  0  0  0  0  0  0  0  0  0  0
   23.9056   13.2788   30.2204 C   0  0  0  0  0  0  0  0  0  0  0  0
   24.4432   12.7102   30.9713 H   0  0  0  0  0  0  0  0  0  0  0  0
   24.5480   14.2305   29.3486 C   0  0  0  0  0  0  0  0  0  0  0  0
   25.6009   14.4841   29.4121 H   0  0  0  0  0  0  0  0  0  0  0  0
  1  2  1  0
  2  3  1  0
  3  4  1  0
  4  5  1  0
  5  6  2  0
  5  7  1  0
  7  8  1  0
  7  9  1  0
  9 10  2  0
 10 11  1  0
 11 12  1  0
 12 13  1  0
 12 14  1  0
 14 15  2  0
 14 16  1  0
 16 17  1  0
 16 18  1  0
 16 19  1  0
 19 20  2  0
 20 21  1  0
 20 22  1  0
 22 23  1  0
 23 24  1  0
 24 25  1  0
 24 26  1  0
 24 27  1  0
 22 28  2  0
 28 29  1  0
 28 30  1  0
 30 31  1  0
 30 32  2  0
 32 33  1  0
 33 34  1  0
 34 35  1  0
 34 36  1  0
 34 37  1  0
 11 38  2  0
 38 39  1  0
 38 40  1  0
 40 41  1  0
 41 42  1  0
 41 43  1  0
 40 44  2  0
 44 45  1  0
 45 46  3  0
  4 47  2  0
 47 48  1  0
 47 49  1  0
 49 50  1  0
 49  2  2  0
 44  9  1  0
 32 19  1  0
M  END
>  <score>  (243) 
7.58779

$$$$

     RDKit          3D

 52 54  0  0  0  0  0  0  0  0999 V2000
   22.3948   16.1737   28.2787 H   0  0  0  0  0  0  0  0  0  0  0  0
   22.9439   15.5056   28.7151 O   0  0  0  0  0  0  0  0  0  0  0  0
   22.0796   14.5889   29.2142 C   0  0  0  0  0  0  0  0  0  0  0  0
   20.8782   14.6618   29.0341 O   0  0  0  0  0  0  0  0  0  0  0  0
   22.6104   13.4706   30.0100 C   0  0  0  0  0  0  0  0  0  0  0  0
   23.9831   13.4035   30.3042 C   0  0  0  0  0  0  0  0  0  0  0  0
   24.6691   14.1806   29.9762 H   0  0  0  0  0  0  0  0  0  0  0  0
   24.4968   12.3289   31.0219 C   0  0  0  0  0  0  0  0  0  0  0  0
   25.5557   12.2940   31.2504 H   0  0  0  0  0  0  0  0  0  0  0  0
   23.6599   11.2888   31.4275 C   0  0  0  0  0  0  0  0  0  0  0  0
   24.0875   10.4489   31.9729 H   0  0  0  0  0  0  0  0  0  0  0  0
   22.2751   11.3404   31.1840 C   0  0  0  0  0  0  0  0  0  0  0  0
   21.4016   10.2387   31.6565 C   0  0  0  0  0  0  0  0  0  0  0  0
   21.7758    8.9865   31.3684 N   0  0  0  0  0  0  0  0  0  0  0  0
   21.0259    7.9763   31.7528 C   0  0  0  0  0  0  0  0  0  0  0  0
   21.6008    6.8109   31.3788 N   0  0  0  0  0  0  0  0  0  0  0  0
   22.4750    6.9333   30.8879 H   0  0  0  0  0  0  0  0  0  0  0  0
   20.9192    5.6531   31.1388 C   0  0  0  0  0  0  0  0  0  0  0  0
   19.7295    5.5751   31.3912 O   0  0  0  0  0  0  0  0  0  0  0  0
   21.6098    4.5499   30.3461 C   0  0  0  0  0  0  0  0  0  0  0  0
   21.6973    4.8927   29.3141 H   0  0  0  0  0  0  0  0  0  0  0  0
   20.9933    3.6467   30.3504 H   0  0  0  0  0  0  0  0  0  0  0  0
   22.9893    4.2524   30.8888 C   0  0  0  0  0  0  0  0  0  0  0  0
   23.1754    3.1455   31.7320 C   0  0  0  0  0  0  0  0  0  0  0  0
   22.3407    2.4984   31.9822 H   0  0  0  0  0  0  0  0  0  0  0  0
   24.4383    2.8479   32.2717 C   0  0  0  0  0  0  0  0  0  0  0  0
   24.6674    1.7862   33.1165 O   0  0  0  0  0  0  0  0  0  0  0  0
   23.6857    0.7401   33.1358 C   0  0  0  0  0  0  0  0  0  0  0  0
   22.7466    1.0875   33.5767 H   0  0  0  0  0  0  0  0  0  0  0  0
   24.0569   -0.0942   33.7379 H   0  0  0  0  0  0  0  0  0  0  0  0
   23.4910    0.3694   32.1243 H   0  0  0  0  0  0  0  0  0  0  0  0
   25.5214    3.6794   31.9449 C   0  0  0  0  0  0  0  0  0  0  0  0
   27.2717    3.3194   32.6362 Br  0  0  0  0  0  0  0  0  0  0  0  0
   25.3376    4.7839   31.1025 C   0  0  0  0  0  0  0  0  0  0  0  0
   26.1801    5.4172   30.8448 H   0  0  0  0  0  0  0  0  0  0  0  0
   24.0763    5.0914   30.5701 C   0  0  0  0  0  0  0  0  0  0  0  0
   23.8521    6.1805   29.7542 O   0  0  0  0  0  0  0  0  0  0  0  0
   24.9311    7.1139   29.5900 C   0  0  0  0  0  0  0  0  0  0  0  0
   25.7802    6.6505   29.0768 H   0  0  0  0  0  0  0  0  0  0  0  0
   25.2652    7.4973   30.5598 H   0  0  0  0  0  0  0  0  0  0  0  0
   24.5921    7.9611   28.9881 H   0  0  0  0  0  0  0  0  0  0  0  0
   19.8634    8.1229   32.4556 C   0  0  0  0  0  0  0  0  0  0  0  0
   19.2627    7.2813   32.7534 H   0  0  0  0  0  0  0  0  0  0  0  0
   19.5203    9.3859   32.8217 C   0  0  0  0  0  0  0  0  0  0  0  0
   18.4503    9.5003   33.6416 N   0  0  0  0  0  0  0  0  0  0  0  0
   18.1463   10.4234   33.9310 H   0  0  0  0  0  0  0  0  0  0  0  0
   17.9223    8.6664   33.8945 H   0  0  0  0  0  0  0  0  0  0  0  0
   20.2614   10.4753   32.4173 C   0  0  0  0  0  0  0  0  0  0  0  0
   19.9338   11.7969   32.8417 C   0  0  0  0  0  0  0  0  0  0  0  0
   19.6982   12.8777   33.1992 N   0  0  0  0  0  0  0  0  0  0  0  0
   21.7599   12.4499   30.4852 C   0  0  0  0  0  0  0  0  0  0  0  0
   20.6934   12.5173   30.2732 H   0  0  0  0  0  0  0  0  0  0  0  0
  1  2  1  0
  2  3  1  0
  3  4  2  0
  3  5  1  0
  5  6  2  0
  6  7  1  0
  6  8  1  0
  8  9  1  0
  8 10  2  0
 10 11  1  0
 10 12  1  0
 12 13  1  0
 13 14  2  0
 14 15  1  0
 15 16  1  0
 16 17  1  0
 16 18  1  0
 18 19  2  0
 18 20  1  0
 20 21  1  0
 20 22  1  0
 20 23  1  0
 23 24  2  0
 24 25  1  0
 24 26  1  0
 26 27  1  0
 27 28  1  0
 28 29  1  0
 28 30  1  0
 28 31  1  0
 26 32  2  0
 32 33  1  0
 32 34  1  0
 34 35  1  0
 34 36  2  0
 36 37  1  0
 37 38  1  0
 38 39  1  0
 38 40  1  0
 38 41  1  0
 15 42  2  0
 42 43  1  0
 42 44  1  0
 44 45  1  0
 45 46  1  0
 45 47  1  0
 44 48  2  0
 48 49  1  0
 49 50  3  0
 12 51  2  0
 51 52  1  0
 51  5  1  0
 48 13  1  0
 36 23  1  0
M  END
>  <score>  (244) 
7.58787

$$$$

     RDKit          3D

 61 63  0  0  0  0  0  0  0  0999 V2000
   26.1427    5.4495   30.8487 H   0  0  0  0  0  0  0  0  0  0  0  0
   25.3014    4.8137   31.0993 C   0  0  0  0  0  0  0  0  0  0  0  0
   25.4993    3.7191   31.9443 C   0  0  0  0  0  0  0  0  0  0  0  0
   27.2571    3.3904   32.6322 Br  0  0  0  0  0  0  0  0  0  0  0  0
   24.4264    2.8692   32.2605 C   0  0  0  0  0  0  0  0  0  0  0  0
   24.6603    1.7945   33.0882 O   0  0  0  0  0  0  0  0  0  0  0  0
   23.6624    0.7645   33.1115 C   0  0  0  0  0  0  0  0  0  0  0  0
   24.0175   -0.0763   33.7181 H   0  0  0  0  0  0  0  0  0  0  0  0
   22.7304    1.1405   33.5455 H   0  0  0  0  0  0  0  0  0  0  0  0
   23.4625    0.4006   32.0979 H   0  0  0  0  0  0  0  0  0  0  0  0
   23.1579    3.1517   31.7231 C   0  0  0  0  0  0  0  0  0  0  0  0
   22.3235    2.5022   31.9704 H   0  0  0  0  0  0  0  0  0  0  0  0
   22.9593    4.2557   30.8800 C   0  0  0  0  0  0  0  0  0  0  0  0
   21.5804    4.5431   30.3352 C   0  0  0  0  0  0  0  0  0  0  0  0
   21.6561    4.8160   29.2793 H   0  0  0  0  0  0  0  0  0  0  0  0
   20.9378    3.6658   30.4102 H   0  0  0  0  0  0  0  0  0  0  0  0
   20.9329    5.6906   31.0894 C   0  0  0  0  0  0  0  0  0  0  0  0
   19.8806    5.5280   31.6872 O   0  0  0  0  0  0  0  0  0  0  0  0
   21.4839    6.9300   30.9924 N   0  0  0  0  0  0  0  0  0  0  0  0
   22.3579    7.0489   30.5014 H   0  0  0  0  0  0  0  0  0  0  0  0
   20.9793    8.0510   31.5331 C   0  0  0  0  0  0  0  0  0  0  0  0
   21.7263    9.0752   31.2198 N   0  0  0  0  0  0  0  0  0  0  0  0
   21.3748   10.2655   31.7092 C   0  0  0  0  0  0  0  0  0  0  0  0
   22.1635   11.3544   31.4581 O   0  0  0  0  0  0  0  0  0  0  0  0
   23.2532   11.1532   30.5398 C   0  0  0  0  0  0  0  0  0  0  0  0
   22.8785   10.7430   29.5952 H   0  0  0  0  0  0  0  0  0  0  0  0
   23.9556   10.4291   30.9678 H   0  0  0  0  0  0  0  0  0  0  0  0
   24.0135   12.4557   30.2532 C   0  0  0  0  0  0  0  0  0  0  0  0
   24.8934   12.2012   29.6548 H   0  0  0  0  0  0  0  0  0  0  0  0
   24.3736   12.8744   31.1983 H   0  0  0  0  0  0  0  0  0  0  0  0
   23.1838   13.4554   29.5408 N   0  0  0  0  0  0  0  0  0  0  0  0
   23.8528   14.1958   28.4537 C   0  0  0  0  0  0  0  0  0  0  0  0
   24.3848   13.4920   27.8030 H   0  0  0  0  0  0  0  0  0  0  0  0
   24.5741   14.9191   28.8521 H   0  0  0  0  0  0  0  0  0  0  0  0
   22.7854   14.8973   27.6314 C   0  0  0  0  0  0  0  0  0  0  0  0
   23.2291   15.4189   26.7778 H   0  0  0  0  0  0  0  0  0  0  0  0
   22.1299   14.1054   27.2585 H   0  0  0  0  0  0  0  0  0  0  0  0
   21.9982   15.8945   28.4933 C   0  0  0  0  0  0  0  0  0  0  0  0
   21.2338   16.3993   27.8934 H   0  0  0  0  0  0  0  0  0  0  0  0
   22.6683   16.6742   28.8738 H   0  0  0  0  0  0  0  0  0  0  0  0
   21.3244   15.1445   29.6490 C   0  0  0  0  0  0  0  0  0  0  0  0
   20.8782   15.8713   30.3349 H   0  0  0  0  0  0  0  0  0  0  0  0
   20.5202   14.5213   29.2459 H   0  0  0  0  0  0  0  0  0  0  0  0
   22.2843   14.2336   30.4255 C   0  0  0  0  0  0  0  0  0  0  0  0
   21.6846   13.5443   31.0344 H   0  0  0  0  0  0  0  0  0  0  0  0
   22.8874   14.8411   31.1069 H   0  0  0  0  0  0  0  0  0  0  0  0
   20.2687   10.4459   32.5095 C   0  0  0  0  0  0  0  0  0  0  0  0
   19.9179   11.7498   32.9669 C   0  0  0  0  0  0  0  0  0  0  0  0
   19.6881   12.8457   33.2776 N   0  0  0  0  0  0  0  0  0  0  0  0
   19.5547    9.3415   32.8538 C   0  0  0  0  0  0  0  0  0  0  0  0
   18.5359    9.4441   33.7356 N   0  0  0  0  0  0  0  0  0  0  0  0
   17.9341    8.6334   33.8449 H   0  0  0  0  0  0  0  0  0  0  0  0
   18.1498   10.3740   33.8944 H   0  0  0  0  0  0  0  0  0  0  0  0
   19.8819    8.1211   32.3489 C   0  0  0  0  0  0  0  0  0  0  0  0
   19.3198    7.2449   32.6158 H   0  0  0  0  0  0  0  0  0  0  0  0
   24.0389    5.1045   30.5661 C   0  0  0  0  0  0  0  0  0  0  0  0
   23.8254    6.2001   29.7574 O   0  0  0  0  0  0  0  0  0  0  0  0
   24.9311    7.1012   29.5994 C   0  0  0  0  0  0  0  0  0  0  0  0
   25.7682    6.5997   29.1017 H   0  0  0  0  0  0  0  0  0  0  0  0
   24.6257    7.9623   28.9950 H   0  0  0  0  0  0  0  0  0  0  0  0
   25.2683    7.4589   30.5779 H   0  0  0  0  0  0  0  0  0  0  0  0
  1  2  1  0
  2  3  2  0
  3  4  1  0
  3  5  1  0
  5  6  1  0
  6  7  1  0
  7  8  1  0
  7  9  1  0
  7 10  1  0
  5 11  2  0
 11 12  1  0
 11 13  1  0
 13 14  1  0
 14 15  1  0
 14 16  1  0
 14 17  1  0
 17 18  2  0
 17 19  1  0
 19 20  1  0
 19 21  1  0
 21 22  2  0
 22 23  1  0
 23 24  1  0
 24 25  1  0
 25 26  1  0
 25 27  1  0
 25 28  1  0
 28 29  1  0
 28 30  1  0
 28 31  1  0
 31 32  1  0
 32 33  1  0
 32 34  1  0
 32 35  1  0
 35 36  1  0
 35 37  1  0
 35 38  1  0
 38 39  1  0
 38 40  1  0
 38 41  1  0
 41 42  1  0
 41 43  1  0
 41 44  1  0
 44 45  1  0
 44 46  1  0
 23 47  2  0
 47 48  1  0
 48 49  3  0
 47 50  1  0
 50 51  1  0
 51 52  1  0
 51 53  1  0
 50 54  2  0
 54 55  1  0
 13 56  2  0
 56 57  1  0
 57 58  1  0
 58 59  1  0
 58 60  1  0
 58 61  1  0
 56  2  1  0
 54 21  1  0
 44 31  1  0
M  END
>  <score>  (245) 
7.59003

$$$$

     RDKit          3D

 48 49  0  0  0  0  0  0  0  0999 V2000
   23.3611   15.4436   27.8729 H   0  0  0  0  0  0  0  0  0  0  0  0
   22.7920   15.6351   28.6442 O   0  0  0  0  0  0  0  0  0  0  0  0
   22.1657   14.4640   29.1863 N   0  0  0  0  0  0  0  0  0  0  0  0
   21.1483   14.4461   29.1999 H   0  0  0  0  0  0  0  0  0  0  0  0
   22.7727   13.5276   30.0186 C   0  0  0  0  0  0  0  0  0  0  0  0
   23.9680   13.5764   30.2864 O   0  0  0  0  0  0  0  0  0  0  0  0
   21.9077   12.5282   30.6652 C   0  0  0  0  0  0  0  0  0  0  0  0
   20.8597   12.8000   30.7284 H   0  0  0  0  0  0  0  0  0  0  0  0
   22.3190   11.2596   31.0855 C   0  0  0  0  0  0  0  0  0  0  0  0
   23.3474   10.9422   30.9191 H   0  0  0  0  0  0  0  0  0  0  0  0
   21.4578   10.2294   31.7016 C   0  0  0  0  0  0  0  0  0  0  0  0
   21.8233    8.9823   31.4265 N   0  0  0  0  0  0  0  0  0  0  0  0
   21.0632    7.9966   31.8347 C   0  0  0  0  0  0  0  0  0  0  0  0
   21.5556    6.8360   31.3845 N   0  0  0  0  0  0  0  0  0  0  0  0
   22.3998    6.9569   30.8458 H   0  0  0  0  0  0  0  0  0  0  0  0
   20.8435    5.6891   31.2170 C   0  0  0  0  0  0  0  0  0  0  0  0
   19.6751    5.6223   31.5725 O   0  0  0  0  0  0  0  0  0  0  0  0
   21.5048    4.5592   30.4412 C   0  0  0  0  0  0  0  0  0  0  0  0
   21.5414    4.8547   29.3924 H   0  0  0  0  0  0  0  0  0  0  0  0
   20.8882    3.6614   30.5210 H   0  0  0  0  0  0  0  0  0  0  0  0
   22.9145    4.2867   30.9352 C   0  0  0  0  0  0  0  0  0  0  0  0
   23.1422    3.1623   31.7415 C   0  0  0  0  0  0  0  0  0  0  0  0
   22.3252    2.4916   31.9830 H   0  0  0  0  0  0  0  0  0  0  0  0
   24.4166    2.8698   32.2580 C   0  0  0  0  0  0  0  0  0  0  0  0
   24.6625    1.7753   33.0549 O   0  0  0  0  0  0  0  0  0  0  0  0
   23.6295    0.7811   33.0885 C   0  0  0  0  0  0  0  0  0  0  0  0
   22.7119    1.1926   33.5194 H   0  0  0  0  0  0  0  0  0  0  0  0
   23.4140    0.4149   32.0793 H   0  0  0  0  0  0  0  0  0  0  0  0
   23.9469   -0.0671   33.7004 H   0  0  0  0  0  0  0  0  0  0  0  0
   25.4801    3.7327   31.9551 C   0  0  0  0  0  0  0  0  0  0  0  0
   27.2444    3.4280   32.6418 Br  0  0  0  0  0  0  0  0  0  0  0  0
   25.2653    4.8438   31.1340 C   0  0  0  0  0  0  0  0  0  0  0  0
   26.0963    5.4981   30.8886 H   0  0  0  0  0  0  0  0  0  0  0  0
   23.9931    5.1410   30.6165 C   0  0  0  0  0  0  0  0  0  0  0  0
   23.7754    6.2516   29.8286 O   0  0  0  0  0  0  0  0  0  0  0  0
   24.9185    7.0989   29.6178 C   0  0  0  0  0  0  0  0  0  0  0  0
   24.6455    7.9553   28.9960 H   0  0  0  0  0  0  0  0  0  0  0  0
   25.2999    7.4755   30.5741 H   0  0  0  0  0  0  0  0  0  0  0  0
   25.7207    6.5490   29.1120 H   0  0  0  0  0  0  0  0  0  0  0  0
   19.9303    8.1530   32.5775 C   0  0  0  0  0  0  0  0  0  0  0  0
   19.3359    7.3108   32.8801 H   0  0  0  0  0  0  0  0  0  0  0  0
   19.5833    9.4227   32.9264 C   0  0  0  0  0  0  0  0  0  0  0  0
   18.4768    9.5535   33.6946 N   0  0  0  0  0  0  0  0  0  0  0  0
   17.8290    8.7692   33.6878 H   0  0  0  0  0  0  0  0  0  0  0  0
   18.1197   10.4896   33.8638 H   0  0  0  0  0  0  0  0  0  0  0  0
   20.3325   10.4902   32.4787 C   0  0  0  0  0  0  0  0  0  0  0  0
   20.0105   11.8354   32.8078 C   0  0  0  0  0  0  0  0  0  0  0  0
   19.8266   12.9596   33.0382 N   0  0  0  0  0  0  0  0  0  0  0  0
  1  2  1  0
  2  3  1  0
  3  4  1  0
  3  5  1  0
  5  6  2  0
  5  7  1  0
  7  8  1  0
  7  9  2  3
  9 10  1  0
  9 11  1  0
 11 12  2  0
 12 13  1  0
 13 14  1  0
 14 15  1  0
 14 16  1  0
 16 17  2  0
 16 18  1  0
 18 19  1  0
 18 20  1  0
 18 21  1  0
 21 22  2  0
 22 23  1  0
 22 24  1  0
 24 25  1  0
 25 26  1  0
 26 27  1  0
 26 28  1  0
 26 29  1  0
 24 30  2  0
 30 31  1  0
 30 32  1  0
 32 33  1  0
 32 34  2  0
 34 35  1  0
 35 36  1  0
 36 37  1  0
 36 38  1  0
 36 39  1  0
 13 40  2  0
 40 41  1  0
 40 42  1  0
 42 43  1  0
 43 44  1  0
 43 45  1  0
 42 46  2  0
 46 47  1  0
 47 48  3  0
 46 11  1  0
 34 21  1  0
M  END
>  <score>  (246) 
7.59008

$$$$

     RDKit          3D

 48 50  0  0  0  0  0  0  0  0999 V2000
   26.1707    5.4325   30.8493 H   0  0  0  0  0  0  0  0  0  0  0  0
   25.3278    4.7985   31.1004 C   0  0  0  0  0  0  0  0  0  0  0  0
   25.5224    3.7005   31.9450 C   0  0  0  0  0  0  0  0  0  0  0  0
   27.2759    3.3561   32.6390 Br  0  0  0  0  0  0  0  0  0  0  0  0
   24.4445    2.8565   32.2655 C   0  0  0  0  0  0  0  0  0  0  0  0
   24.6704    1.7849   33.1016 O   0  0  0  0  0  0  0  0  0  0  0  0
   23.6748    0.7518   33.1236 C   0  0  0  0  0  0  0  0  0  0  0  0
   23.4752    0.3887   32.1113 H   0  0  0  0  0  0  0  0  0  0  0  0
   22.7403    1.1194   33.5568 H   0  0  0  0  0  0  0  0  0  0  0  0
   24.0311   -0.0899   33.7271 H   0  0  0  0  0  0  0  0  0  0  0  0
   23.1738    3.1491   31.7345 C   0  0  0  0  0  0  0  0  0  0  0  0
   22.3393    2.5000   31.9847 H   0  0  0  0  0  0  0  0  0  0  0  0
   22.9757    4.2657   30.9025 C   0  0  0  0  0  0  0  0  0  0  0  0
   21.5968    4.6022   30.3785 C   0  0  0  0  0  0  0  0  0  0  0  0
   20.9467    3.7295   30.4411 H   0  0  0  0  0  0  0  0  0  0  0  0
   21.6716    4.9015   29.3301 H   0  0  0  0  0  0  0  0  0  0  0  0
   20.9598    5.7566   31.1412 C   0  0  0  0  0  0  0  0  0  0  0  0
   19.7718    5.7219   31.4166 O   0  0  0  0  0  0  0  0  0  0  0  0
   21.6628    6.9125   31.3237 N   0  0  0  0  0  0  0  0  0  0  0  0
   22.5247    7.0322   30.8126 H   0  0  0  0  0  0  0  0  0  0  0  0
   21.0955    8.0629   31.7309 C   0  0  0  0  0  0  0  0  0  0  0  0
   21.8330    9.0843   31.3849 N   0  0  0  0  0  0  0  0  0  0  0  0
   21.3772   10.2611   31.7383 C   0  0  0  0  0  0  0  0  0  0  0  0
   22.2291   11.2148   31.3020 N   0  0  0  0  0  0  0  0  0  0  0  0
   23.0035   10.7517   30.8384 H   0  0  0  0  0  0  0  0  0  0  0  0
   21.6981   12.4026   30.6326 C   0  0  0  0  0  0  0  0  0  0  0  0
   20.7115   12.3361   30.1456 H   0  0  0  0  0  0  0  0  0  0  0  0
   22.7609   13.2287   29.9269 C   0  0  0  0  0  0  0  0  0  0  0  0
   22.4745   13.7048   28.9853 H   0  0  0  0  0  0  0  0  0  0  0  0
   23.7985   12.8862   29.9883 H   0  0  0  0  0  0  0  0  0  0  0  0
   22.1165   13.7510   31.1969 C   0  0  0  0  0  0  0  0  0  0  0  0
   21.4052   14.5751   31.0871 H   0  0  0  0  0  0  0  0  0  0  0  0
   22.7255   13.7592   32.1068 H   0  0  0  0  0  0  0  0  0  0  0  0
   20.2325   10.4947   32.4484 C   0  0  0  0  0  0  0  0  0  0  0  0
   19.8935   11.8157   32.8468 C   0  0  0  0  0  0  0  0  0  0  0  0
   19.6919   12.9064   33.1943 N   0  0  0  0  0  0  0  0  0  0  0  0
   19.5167    9.3968   32.8078 C   0  0  0  0  0  0  0  0  0  0  0  0
   18.4346    9.5028   33.5984 N   0  0  0  0  0  0  0  0  0  0  0  0
   17.9425    8.6583   33.8790 H   0  0  0  0  0  0  0  0  0  0  0  0
   18.1414   10.4229   33.9162 H   0  0  0  0  0  0  0  0  0  0  0  0
   19.9176    8.1568   32.4267 C   0  0  0  0  0  0  0  0  0  0  0  0
   19.3505    7.2852   32.7026 H   0  0  0  0  0  0  0  0  0  0  0  0
   24.0626    5.0995   30.5783 C   0  0  0  0  0  0  0  0  0  0  0  0
   23.8440    6.1927   29.7680 O   0  0  0  0  0  0  0  0  0  0  0  0
   24.9364    7.1053   29.5991 C   0  0  0  0  0  0  0  0  0  0  0  0
   25.2770    7.4751   30.5698 H   0  0  0  0  0  0  0  0  0  0  0  0
   25.7758    6.6178   29.0957 H   0  0  0  0  0  0  0  0  0  0  0  0
   24.6144    7.9582   28.9941 H   0  0  0  0  0  0  0  0  0  0  0  0
  1  2  1  0
  2  3  2  0
  3  4  1  0
  3  5  1  0
  5  6  1  0
  6  7  1  0
  7  8  1  0
  7  9  1  0
  7 10  1  0
  5 11  2  0
 11 12  1  0
 11 13  1  0
 13 14  1  0
 14 15  1  0
 14 16  1  0
 14 17  1  0
 17 18  2  0
 17 19  1  0
 19 20  1  0
 19 21  1  0
 21 22  2  0
 22 23  1  0
 23 24  1  0
 24 25  1  0
 24 26  1  0
 26 27  1  0
 26 28  1  0
 28 29  1  0
 28 30  1  0
 28 31  1  0
 31 32  1  0
 31 33  1  0
 23 34  2  0
 34 35  1  0
 35 36  3  0
 34 37  1  0
 37 38  1  0
 38 39  1  0
 38 40  1  0
 37 41  2  0
 41 42  1  0
 13 43  2  0
 43 44  1  0
 44 45  1  0
 45 46  1  0
 45 47  1  0
 45 48  1  0
 43  2  1  0
 41 21  1  0
 31 26  1  0
M  END
>  <score>  (247) 
7.59065

$$$$

     RDKit          3D

 47 49  0  0  0  0  0  0  0  0999 V2000
   26.1373    5.4479   30.8442 H   0  0  0  0  0  0  0  0  0  0  0  0
   25.2975    4.8108   31.0982 C   0  0  0  0  0  0  0  0  0  0  0  0
   25.4991    3.7163   31.9430 C   0  0  0  0  0  0  0  0  0  0  0  0
   27.2567    3.3847   32.6328 Br  0  0  0  0  0  0  0  0  0  0  0  0
   24.4266    2.8680   32.2630 C   0  0  0  0  0  0  0  0  0  0  0  0
   24.6611    1.7955   33.0926 O   0  0  0  0  0  0  0  0  0  0  0  0
   23.6646    0.7639   33.1141 C   0  0  0  0  0  0  0  0  0  0  0  0
   24.0187   -0.0778   33.7186 H   0  0  0  0  0  0  0  0  0  0  0  0
   22.7312    1.1357   33.5467 H   0  0  0  0  0  0  0  0  0  0  0  0
   23.4658    0.4011   32.1010 H   0  0  0  0  0  0  0  0  0  0  0  0
   23.1571    3.1490   31.7270 C   0  0  0  0  0  0  0  0  0  0  0  0
   22.3270    2.4938   31.9731 H   0  0  0  0  0  0  0  0  0  0  0  0
   22.9558    4.2482   30.8785 C   0  0  0  0  0  0  0  0  0  0  0  0
   21.5767    4.5185   30.3276 C   0  0  0  0  0  0  0  0  0  0  0  0
   20.9523    3.6266   30.3822 H   0  0  0  0  0  0  0  0  0  0  0  0
   21.6589    4.8155   29.2772 H   0  0  0  0  0  0  0  0  0  0  0  0
   20.9015    5.6373   31.1009 C   0  0  0  0  0  0  0  0  0  0  0  0
   19.8480    5.4547   31.6921 O   0  0  0  0  0  0  0  0  0  0  0  0
   21.4286    6.8855   31.0018 N   0  0  0  0  0  0  0  0  0  0  0  0
   22.3119    7.0079   30.5237 H   0  0  0  0  0  0  0  0  0  0  0  0
   20.8971    8.0149   31.5059 C   0  0  0  0  0  0  0  0  0  0  0  0
   21.6104    9.0388   31.1105 N   0  0  0  0  0  0  0  0  0  0  0  0
   21.3146   10.2517   31.5795 C   0  0  0  0  0  0  0  0  0  0  0  0
   22.2055   11.3505   31.1536 C   0  0  0  0  0  0  0  0  0  0  0  0
   22.8979   11.4113   29.9657 C   0  0  0  0  0  0  0  0  0  0  0  0
   22.8387   10.7007   29.1460 H   0  0  0  0  0  0  0  0  0  0  0  0
   23.7387   12.5847   29.9967 C   0  0  0  0  0  0  0  0  0  0  0  0
   24.4208   12.8872   29.2111 H   0  0  0  0  0  0  0  0  0  0  0  0
   23.5367   13.2123   31.1918 C   0  0  0  0  0  0  0  0  0  0  0  0
   24.0609   14.0951   31.5402 H   0  0  0  0  0  0  0  0  0  0  0  0
   22.5644   12.4958   31.8712 N   0  0  0  0  0  0  0  0  0  0  0  0
   22.2599   12.7149   32.8188 H   0  0  0  0  0  0  0  0  0  0  0  0
   20.2717   10.4424   32.4808 C   0  0  0  0  0  0  0  0  0  0  0  0
   19.9542   11.7464   32.9565 C   0  0  0  0  0  0  0  0  0  0  0  0
   19.7325   12.8369   33.2936 N   0  0  0  0  0  0  0  0  0  0  0  0
   19.5496    9.3439   32.8798 C   0  0  0  0  0  0  0  0  0  0  0  0
   18.5439    9.4572   33.7845 N   0  0  0  0  0  0  0  0  0  0  0  0
   18.1429   10.3829   33.9076 H   0  0  0  0  0  0  0  0  0  0  0  0
   17.9249    8.6554   33.8717 H   0  0  0  0  0  0  0  0  0  0  0  0
   19.8406    8.1092   32.3758 C   0  0  0  0  0  0  0  0  0  0  0  0
   19.2965    7.2363   32.6912 H   0  0  0  0  0  0  0  0  0  0  0  0
   24.0340    5.1012   30.5644 C   0  0  0  0  0  0  0  0  0  0  0  0
   23.8257    6.1917   29.7462 O   0  0  0  0  0  0  0  0  0  0  0  0
   24.9277    7.0996   29.5971 C   0  0  0  0  0  0  0  0  0  0  0  0
   25.2605    7.4563   30.5765 H   0  0  0  0  0  0  0  0  0  0  0  0
   25.7703    6.6081   29.1007 H   0  0  0  0  0  0  0  0  0  0  0  0
   24.6214    7.9613   28.9964 H   0  0  0  0  0  0  0  0  0  0  0  0
  1  2  1  0
  2  3  2  0
  3  4  1  0
  3  5  1  0
  5  6  1  0
  6  7  1  0
  7  8  1  0
  7  9  1  0
  7 10  1  0
  5 11  2  0
 11 12  1  0
 11 13  1  0
 13 14  1  0
 14 15  1  0
 14 16  1  0
 14 17  1  0
 17 18  2  0
 17 19  1  0
 19 20  1  0
 19 21  1  0
 21 22  2  0
 22 23  1  0
 23 24  1  0
 24 25  2  0
 25 26  1  0
 25 27  1  0
 27 28  1  0
 27 29  2  0
 29 30  1  0
 29 31  1  0
 31 32  1  0
 23 33  2  0
 33 34  1  0
 34 35  3  0
 33 36  1  0
 36 37  1  0
 37 38  1  0
 37 39  1  0
 36 40  2  0
 40 41  1  0
 13 42  2  0
 42 43  1  0
 43 44  1  0
 44 45  1  0
 44 46  1  0
 44 47  1  0
 42  2  1  0
 40 21  1  0
 31 24  1  0
M  END
>  <score>  (248) 
7.59123

$$$$

     RDKit          3D

 43 44  0  0  0  0  0  0  0  0999 V2000
   26.1328    5.4730   30.8643 H   0  0  0  0  0  0  0  0  0  0  0  0
   25.2922    4.8366   31.1193 C   0  0  0  0  0  0  0  0  0  0  0  0
   25.4952    3.7310   31.9489 C   0  0  0  0  0  0  0  0  0  0  0  0
   27.2512    3.3964   32.6367 Br  0  0  0  0  0  0  0  0  0  0  0  0
   24.4219    2.8817   32.2595 C   0  0  0  0  0  0  0  0  0  0  0  0
   24.6583    1.7880   33.0601 O   0  0  0  0  0  0  0  0  0  0  0  0
   23.6385    0.7824   33.0903 C   0  0  0  0  0  0  0  0  0  0  0  0
   23.4298    0.4179   32.0805 H   0  0  0  0  0  0  0  0  0  0  0  0
   22.7167    1.1812   33.5214 H   0  0  0  0  0  0  0  0  0  0  0  0
   23.9722   -0.0618   33.7006 H   0  0  0  0  0  0  0  0  0  0  0  0
   23.1462    3.1863   31.7483 C   0  0  0  0  0  0  0  0  0  0  0  0
   22.3163    2.5312   31.9958 H   0  0  0  0  0  0  0  0  0  0  0  0
   22.9350    4.3099   30.9318 C   0  0  0  0  0  0  0  0  0  0  0  0
   21.5416    4.6168   30.4217 C   0  0  0  0  0  0  0  0  0  0  0  0
   21.5965    4.8565   29.3567 H   0  0  0  0  0  0  0  0  0  0  0  0
   20.8982    3.7410   30.5382 H   0  0  0  0  0  0  0  0  0  0  0  0
   20.9055    5.7943   31.1536 C   0  0  0  0  0  0  0  0  0  0  0  0
   19.7537    5.7179   31.5501 O   0  0  0  0  0  0  0  0  0  0  0  0
   21.5782    6.9812   31.2333 N   0  0  0  0  0  0  0  0  0  0  0  0
   22.4507    7.1020   30.7445 H   0  0  0  0  0  0  0  0  0  0  0  0
   21.0677    8.1193   31.7166 C   0  0  0  0  0  0  0  0  0  0  0  0
   21.8008    9.1281   31.3348 N   0  0  0  0  0  0  0  0  0  0  0  0
   21.4389   10.3462   31.7253 C   0  0  0  0  0  0  0  0  0  0  0  0
   22.1865   11.3967   31.2930 O   0  0  0  0  0  0  0  0  0  0  0  0
   23.3000   10.9781   30.5147 C   0  0  0  0  0  0  0  0  0  0  0  0
   22.8682   10.3738   29.3742 F   0  0  0  0  0  0  0  0  0  0  0  0
   24.0713   10.1356   31.2550 F   0  0  0  0  0  0  0  0  0  0  0  0
   24.0358   12.0686   30.1848 F   0  0  0  0  0  0  0  0  0  0  0  0
   20.3456   10.5687   32.5440 C   0  0  0  0  0  0  0  0  0  0  0  0
   20.0010   11.8998   32.9222 C   0  0  0  0  0  0  0  0  0  0  0  0
   19.7578   13.0027   33.2093 N   0  0  0  0  0  0  0  0  0  0  0  0
   19.6262    9.4630   32.9410 C   0  0  0  0  0  0  0  0  0  0  0  0
   18.5389    9.5378   33.7387 N   0  0  0  0  0  0  0  0  0  0  0  0
   17.8122    8.8418   33.5673 H   0  0  0  0  0  0  0  0  0  0  0  0
   18.2616   10.4684   34.0248 H   0  0  0  0  0  0  0  0  0  0  0  0
   19.9650    8.2236   32.5058 C   0  0  0  0  0  0  0  0  0  0  0  0
   19.3968    7.3534   32.7831 H   0  0  0  0  0  0  0  0  0  0  0  0
   24.0221    5.1489   30.6088 C   0  0  0  0  0  0  0  0  0  0  0  0
   23.8125    6.2532   29.8106 O   0  0  0  0  0  0  0  0  0  0  0  0
   24.9389    7.1179   29.6140 C   0  0  0  0  0  0  0  0  0  0  0  0
   24.6498    7.9732   28.9985 H   0  0  0  0  0  0  0  0  0  0  0  0
   25.3036    7.4867   30.5761 H   0  0  0  0  0  0  0  0  0  0  0  0
   25.7520    6.5857   29.1123 H   0  0  0  0  0  0  0  0  0  0  0  0
  1  2  1  0
  2  3  2  0
  3  4  1  0
  3  5  1  0
  5  6  1  0
  6  7  1  0
  7  8  1  0
  7  9  1  0
  7 10  1  0
  5 11  2  0
 11 12  1  0
 11 13  1  0
 13 14  1  0
 14 15  1  0
 14 16  1  0
 14 17  1  0
 17 18  2  0
 17 19  1  0
 19 20  1  0
 19 21  1  0
 21 22  2  0
 22 23  1  0
 23 24  1  0
 24 25  1  0
 25 26  1  0
 25 27  1  0
 25 28  1  0
 23 29  2  0
 29 30  1  0
 30 31  3  0
 29 32  1  0
 32 33  1  0
 33 34  1  0
 33 35  1  0
 32 36  2  0
 36 37  1  0
 13 38  2  0
 38 39  1  0
 39 40  1  0
 40 41  1  0
 40 42  1  0
 40 43  1  0
 38  2  1  0
 36 21  1  0
M  END
>  <score>  (249) 
7.59147

$$$$

     RDKit          3D

 60 61  0  0  0  0  0  0  0  0999 V2000
   26.0396    5.5776   31.0064 H   0  0  0  0  0  0  0  0  0  0  0  0
   25.2217    4.8918   31.1997 C   0  0  0  0  0  0  0  0  0  0  0  0
   25.4498    3.7589   31.9902 C   0  0  0  0  0  0  0  0  0  0  0  0
   27.2110    3.4557   32.6873 Br  0  0  0  0  0  0  0  0  0  0  0  0
   24.3964    2.8635   32.2468 C   0  0  0  0  0  0  0  0  0  0  0  0
   24.6125    1.7531   33.0308 O   0  0  0  0  0  0  0  0  0  0  0  0
   23.5446    0.7915   33.0669 C   0  0  0  0  0  0  0  0  0  0  0  0
   22.6366    1.2339   33.4891 H   0  0  0  0  0  0  0  0  0  0  0  0
   23.8301   -0.0685   33.6806 H   0  0  0  0  0  0  0  0  0  0  0  0
   23.3205    0.4399   32.0550 H   0  0  0  0  0  0  0  0  0  0  0  0
   23.1325    3.1413   31.7102 C   0  0  0  0  0  0  0  0  0  0  0  0
   22.3181    2.4561   31.9227 H   0  0  0  0  0  0  0  0  0  0  0  0
   22.8946    4.2778   30.9357 C   0  0  0  0  0  0  0  0  0  0  0  0
   21.4727    4.5257   30.4800 C   0  0  0  0  0  0  0  0  0  0  0  0
   21.4500    4.7558   29.4147 H   0  0  0  0  0  0  0  0  0  0  0  0
   20.8592    3.6347   30.6358 H   0  0  0  0  0  0  0  0  0  0  0  0
   20.8701    5.6800   31.2601 C   0  0  0  0  0  0  0  0  0  0  0  0
   19.7303    5.6085   31.6945 O   0  0  0  0  0  0  0  0  0  0  0  0
   21.6156    6.8096   31.4131 N   0  0  0  0  0  0  0  0  0  0  0  0
   22.4308    6.9114   30.8220 H   0  0  0  0  0  0  0  0  0  0  0  0
   21.1172    7.9771   31.8406 C   0  0  0  0  0  0  0  0  0  0  0  0
   21.8580    8.9717   31.4173 N   0  0  0  0  0  0  0  0  0  0  0  0
   21.4480   10.2099   31.6811 C   0  0  0  0  0  0  0  0  0  0  0  0
   22.2629   11.3262   31.1033 C   0  0  0  0  0  0  0  0  0  0  0  0
   23.3042   11.0135   30.9843 H   0  0  0  0  0  0  0  0  0  0  0  0
   22.2439   12.1695   31.7977 H   0  0  0  0  0  0  0  0  0  0  0  0
   21.6961   11.7680   29.7469 C   0  0  0  0  0  0  0  0  0  0  0  0
   20.7109   12.2166   29.8991 H   0  0  0  0  0  0  0  0  0  0  0  0
   21.5687   10.9098   29.0809 H   0  0  0  0  0  0  0  0  0  0  0  0
   22.6229   12.7833   29.0814 C   0  0  0  0  0  0  0  0  0  0  0  0
   23.5091   12.2687   28.6989 H   0  0  0  0  0  0  0  0  0  0  0  0
   22.1132   13.2485   28.2320 H   0  0  0  0  0  0  0  0  0  0  0  0
   23.0583   13.8529   30.0805 C   0  0  0  0  0  0  0  0  0  0  0  0
   23.5977   13.3732   30.9015 H   0  0  0  0  0  0  0  0  0  0  0  0
   23.7548   14.5373   29.5929 H   0  0  0  0  0  0  0  0  0  0  0  0
   21.8456   14.6132   30.6356 C   0  0  0  0  0  0  0  0  0  0  0  0
   22.1554   15.2566   31.4586 H   0  0  0  0  0  0  0  0  0  0  0  0
   21.1178   13.9033   31.0451 H   0  0  0  0  0  0  0  0  0  0  0  0
   21.1683   15.4641   29.5616 C   0  0  0  0  0  0  0  0  0  0  0  0
   20.5890   14.8079   28.9027 H   0  0  0  0  0  0  0  0  0  0  0  0
   20.4781   16.1552   30.0554 H   0  0  0  0  0  0  0  0  0  0  0  0
   22.1640   16.2654   28.7141 C   0  0  0  0  0  0  0  0  0  0  0  0
   22.7160   16.9827   29.3221 H   0  0  0  0  0  0  0  0  0  0  0  0
   22.8842   15.6048   28.2206 H   0  0  0  0  0  0  0  0  0  0  0  0
   21.6267   16.8287   27.9497 H   0  0  0  0  0  0  0  0  0  0  0  0
   20.2934   10.4668   32.4036 C   0  0  0  0  0  0  0  0  0  0  0  0
   19.8821   11.8000   32.6826 C   0  0  0  0  0  0  0  0  0  0  0  0
   19.5600   12.8880   32.9400 N   0  0  0  0  0  0  0  0  0  0  0  0
   19.5575    9.3917   32.8313 C   0  0  0  0  0  0  0  0  0  0  0  0
   18.4050    9.5529   33.5169 N   0  0  0  0  0  0  0  0  0  0  0  0
   18.0908    8.7596   34.0638 H   0  0  0  0  0  0  0  0  0  0  0  0
   18.1863   10.4918   33.8364 H   0  0  0  0  0  0  0  0  0  0  0  0
   19.9628    8.1265   32.5560 C   0  0  0  0  0  0  0  0  0  0  0  0
   19.3938    7.2740   32.8779 H   0  0  0  0  0  0  0  0  0  0  0  0
   23.9541    5.1733   30.6616 C   0  0  0  0  0  0  0  0  0  0  0  0
   23.7219    6.3038   29.9055 O   0  0  0  0  0  0  0  0  0  0  0  0
   24.8708    7.1188   29.6141 C   0  0  0  0  0  0  0  0  0  0  0  0
   24.5823    7.9591   28.9762 H   0  0  0  0  0  0  0  0  0  0  0  0
   25.3026    7.5165   30.5379 H   0  0  0  0  0  0  0  0  0  0  0  0
   25.6407    6.5390   29.0932 H   0  0  0  0  0  0  0  0  0  0  0  0
  1  2  1  0
  2  3  2  0
  3  4  1  0
  3  5  1  0
  5  6  1  0
  6  7  1  0
  7  8  1  0
  7  9  1  0
  7 10  1  0
  5 11  2  0
 11 12  1  0
 11 13  1  0
 13 14  1  0
 14 15  1  0
 14 16  1  0
 14 17  1  0
 17 18  2  0
 17 19  1  0
 19 20  1  0
 19 21  1  0
 21 22  2  0
 22 23  1  0
 23 24  1  0
 24 25  1  0
 24 26  1  0
 24 27  1  0
 27 28  1  0
 27 29  1  0
 27 30  1  0
 30 31  1  0
 30 32  1  0
 30 33  1  0
 33 34  1  0
 33 35  1  0
 33 36  1  0
 36 37  1  0
 36 38  1  0
 36 39  1  0
 39 40  1  0
 39 41  1  0
 39 42  1  0
 42 43  1  0
 42 44  1  0
 42 45  1  0
 23 46  2  0
 46 47  1  0
 47 48  3  0
 46 49  1  0
 49 50  1  0
 50 51  1  0
 50 52  1  0
 49 53  2  0
 53 54  1  0
 13 55  2  0
 55 56  1  0
 56 57  1  0
 57 58  1  0
 57 59  1  0
 57 60  1  0
 55  2  1  0
 53 21  1  0
M  END
>  <score>  (250) 
7.59225

$$$$

     RDKit          3D

 55 57  0  0  0  0  0  0  0  0999 V2000
   24.5452   14.7250   30.7171 H   0  0  0  0  0  0  0  0  0  0  0  0
   24.5920   14.2201   29.8891 O   0  0  0  0  0  0  0  0  0  0  0  0
   23.8647   13.0163   30.0132 C   0  0  0  0  0  0  0  0  0  0  0  0
   24.0392   12.3918   29.1323 H   0  0  0  0  0  0  0  0  0  0  0  0
   24.3516   12.3040   31.2573 C   0  0  0  0  0  0  0  0  0  0  0  0
   24.1131   12.9029   32.1393 H   0  0  0  0  0  0  0  0  0  0  0  0
   25.4337   12.1703   31.2211 H   0  0  0  0  0  0  0  0  0  0  0  0
   23.6457   10.9574   31.3330 C   0  0  0  0  0  0  0  0  0  0  0  0
   23.9006   10.3614   30.4483 H   0  0  0  0  0  0  0  0  0  0  0  0
   23.9899   10.4095   32.2193 H   0  0  0  0  0  0  0  0  0  0  0  0
   22.1864   11.1794   31.3887 N   0  0  0  0  0  0  0  0  0  0  0  0
   21.3954   10.1129   31.7843 C   0  0  0  0  0  0  0  0  0  0  0  0
   21.8135    8.9090   31.4284 N   0  0  0  0  0  0  0  0  0  0  0  0
   21.0367    7.8982   31.7101 C   0  0  0  0  0  0  0  0  0  0  0  0
   21.5896    6.7563   31.2756 N   0  0  0  0  0  0  0  0  0  0  0  0
   22.4976    6.8656   30.8488 H   0  0  0  0  0  0  0  0  0  0  0  0
   20.9168    5.5851   31.1094 C   0  0  0  0  0  0  0  0  0  0  0  0
   19.7631    5.4789   31.4979 O   0  0  0  0  0  0  0  0  0  0  0  0
   21.5780    4.4459   30.3446 C   0  0  0  0  0  0  0  0  0  0  0  0
   20.9868    3.5349   30.4763 H   0  0  0  0  0  0  0  0  0  0  0  0
   21.6043    4.6778   29.2761 H   0  0  0  0  0  0  0  0  0  0  0  0
   22.9784    4.2234   30.8590 C   0  0  0  0  0  0  0  0  0  0  0  0
   23.1975    3.1199   31.6856 C   0  0  0  0  0  0  0  0  0  0  0  0
   22.3748    2.4525   31.9199 H   0  0  0  0  0  0  0  0  0  0  0  0
   24.4568    2.8536   32.2420 C   0  0  0  0  0  0  0  0  0  0  0  0
   24.6705    1.7640   33.0545 O   0  0  0  0  0  0  0  0  0  0  0  0
   23.6104    0.7949   33.0772 C   0  0  0  0  0  0  0  0  0  0  0  0
   23.3950    0.4418   32.0622 H   0  0  0  0  0  0  0  0  0  0  0  0
   22.6977    1.2310   33.4982 H   0  0  0  0  0  0  0  0  0  0  0  0
   23.8995   -0.0633   33.6899 H   0  0  0  0  0  0  0  0  0  0  0  0
   25.5130    3.7347   31.9615 C   0  0  0  0  0  0  0  0  0  0  0  0
   27.2575    3.4601   32.6964 Br  0  0  0  0  0  0  0  0  0  0  0  0
   25.2972    4.8467   31.1409 C   0  0  0  0  0  0  0  0  0  0  0  0
   26.1148    5.5280   30.9296 H   0  0  0  0  0  0  0  0  0  0  0  0
   24.0357    5.1146   30.5849 C   0  0  0  0  0  0  0  0  0  0  0  0
   23.8064    6.2367   29.8181 O   0  0  0  0  0  0  0  0  0  0  0  0
   24.9421    7.0948   29.6195 C   0  0  0  0  0  0  0  0  0  0  0  0
   25.7485    6.5474   29.1185 H   0  0  0  0  0  0  0  0  0  0  0  0
   24.6682    7.9541   28.9999 H   0  0  0  0  0  0  0  0  0  0  0  0
   25.3150    7.4640   30.5818 H   0  0  0  0  0  0  0  0  0  0  0  0
   19.8355    7.9986   32.3526 C   0  0  0  0  0  0  0  0  0  0  0  0
   19.2339    7.1387   32.5868 H   0  0  0  0  0  0  0  0  0  0  0  0
   19.4408    9.2404   32.7270 C   0  0  0  0  0  0  0  0  0  0  0  0
   18.2989    9.3579   33.4298 N   0  0  0  0  0  0  0  0  0  0  0  0
   17.9379    8.4976   33.8426 H   0  0  0  0  0  0  0  0  0  0  0  0
   18.2328   10.2085   33.9857 H   0  0  0  0  0  0  0  0  0  0  0  0
   20.2056   10.3297   32.4401 C   0  0  0  0  0  0  0  0  0  0  0  0
   19.7872   11.6361   32.8153 C   0  0  0  0  0  0  0  0  0  0  0  0
   19.4128   12.6910   33.1266 N   0  0  0  0  0  0  0  0  0  0  0  0
   21.5810   12.0378   30.3480 C   0  0  0  0  0  0  0  0  0  0  0  0
   21.5477   11.4887   29.3983 H   0  0  0  0  0  0  0  0  0  0  0  0
   20.5503   12.3018   30.6171 H   0  0  0  0  0  0  0  0  0  0  0  0
   22.3823   13.3250   30.1501 C   0  0  0  0  0  0  0  0  0  0  0  0
   22.0299   13.8503   29.2587 H   0  0  0  0  0  0  0  0  0  0  0  0
   22.2305   13.9795   31.0096 H   0  0  0  0  0  0  0  0  0  0  0  0
  1  2  1  0
  2  3  1  0
  3  4  1  0
  3  5  1  0
  5  6  1  0
  5  7  1  0
  5  8  1  0
  8  9  1  0
  8 10  1  0
  8 11  1  0
 11 12  1  0
 12 13  2  0
 13 14  1  0
 14 15  1  0
 15 16  1  0
 15 17  1  0
 17 18  2  0
 17 19  1  0
 19 20  1  0
 19 21  1  0
 19 22  1  0
 22 23  2  0
 23 24  1  0
 23 25  1  0
 25 26  1  0
 26 27  1  0
 27 28  1  0
 27 29  1  0
 27 30  1  0
 25 31  2  0
 31 32  1  0
 31 33  1  0
 33 34  1  0
 33 35  2  0
 35 36  1  0
 36 37  1  0
 37 38  1  0
 37 39  1  0
 37 40  1  0
 14 41  2  0
 41 42  1  0
 41 43  1  0
 43 44  1  0
 44 45  1  0
 44 46  1  0
 43 47  2  0
 47 48  1  0
 48 49  3  0
 11 50  1  0
 50 51  1  0
 50 52  1  0
 50 53  1  0
 53 54  1  0
 53 55  1  0
 53  3  1  0
 47 12  1  0
 35 22  1  0
M  END
>  <score>  (251) 
7.59241

$$$$

     RDKit          3D

 56 58  0  0  0  0  0  0  0  0999 V2000
   26.1681    5.4344   30.8555 H   0  0  0  0  0  0  0  0  0  0  0  0
   25.3275    4.7955   31.1032 C   0  0  0  0  0  0  0  0  0  0  0  0
   25.5233    3.6967   31.9470 C   0  0  0  0  0  0  0  0  0  0  0  0
   27.2787    3.3612   32.6419 Br  0  0  0  0  0  0  0  0  0  0  0  0
   24.4471    2.8511   32.2676 C   0  0  0  0  0  0  0  0  0  0  0  0
   24.6735    1.7831   33.1061 O   0  0  0  0  0  0  0  0  0  0  0  0
   23.6764    0.7510   33.1252 C   0  0  0  0  0  0  0  0  0  0  0  0
   22.7415    1.1199   33.5576 H   0  0  0  0  0  0  0  0  0  0  0  0
   23.4770    0.3893   32.1119 H   0  0  0  0  0  0  0  0  0  0  0  0
   24.0302   -0.0919   33.7282 H   0  0  0  0  0  0  0  0  0  0  0  0
   23.1796    3.1367   31.7288 C   0  0  0  0  0  0  0  0  0  0  0  0
   22.3454    2.4881   31.9806 H   0  0  0  0  0  0  0  0  0  0  0  0
   22.9820    4.2407   30.8837 C   0  0  0  0  0  0  0  0  0  0  0  0
   21.5973    4.5397   30.3463 C   0  0  0  0  0  0  0  0  0  0  0  0
   21.6738    4.8636   29.3036 H   0  0  0  0  0  0  0  0  0  0  0  0
   20.9732    3.6439   30.3867 H   0  0  0  0  0  0  0  0  0  0  0  0
   20.9275    5.6591   31.1343 C   0  0  0  0  0  0  0  0  0  0  0  0
   19.7420    5.6014   31.4189 O   0  0  0  0  0  0  0  0  0  0  0  0
   21.6306    6.8054   31.3456 N   0  0  0  0  0  0  0  0  0  0  0  0
   22.4923    6.9129   30.8293 H   0  0  0  0  0  0  0  0  0  0  0  0
   21.0847    7.9668   31.7552 C   0  0  0  0  0  0  0  0  0  0  0  0
   21.8428    8.9729   31.3878 N   0  0  0  0  0  0  0  0  0  0  0  0
   21.4317   10.2138   31.6736 C   0  0  0  0  0  0  0  0  0  0  0  0
   22.2890   11.3224   31.1915 C   0  0  0  0  0  0  0  0  0  0  0  0
   21.7655   12.4288   30.4879 C   0  0  0  0  0  0  0  0  0  0  0  0
   20.6951   12.5195   30.3117 H   0  0  0  0  0  0  0  0  0  0  0  0
   22.6291   13.4119   29.9752 C   0  0  0  0  0  0  0  0  0  0  0  0
   22.2324   14.2312   29.3862 H   0  0  0  0  0  0  0  0  0  0  0  0
   24.0014   13.3549   30.2231 C   0  0  0  0  0  0  0  0  0  0  0  0
   24.8792   14.3172   29.7328 N   0  0  0  0  0  0  0  0  0  0  0  0
   25.7165   14.5121   30.2639 H   0  0  0  0  0  0  0  0  0  0  0  0
   24.6846   15.0470   28.5734 C   0  0  0  0  0  0  0  0  0  0  0  0
   23.7619   14.8034   27.8150 O   0  0  0  0  0  0  0  0  0  0  0  0
   25.5609   16.2644   28.3036 C   0  0  0  0  0  0  0  0  0  0  0  0
   26.5831   15.9558   28.0662 H   0  0  0  0  0  0  0  0  0  0  0  0
   25.1592   16.8385   27.4649 H   0  0  0  0  0  0  0  0  0  0  0  0
   25.5737   16.9246   29.1747 H   0  0  0  0  0  0  0  0  0  0  0  0
   24.5071   12.3084   30.9850 C   0  0  0  0  0  0  0  0  0  0  0  0
   25.5617   12.2809   31.2116 H   0  0  0  0  0  0  0  0  0  0  0  0
   23.6732   11.2773   31.4260 C   0  0  0  0  0  0  0  0  0  0  0  0
   24.0923   10.4495   31.9947 H   0  0  0  0  0  0  0  0  0  0  0  0
   20.2627   10.4303   32.4078 C   0  0  0  0  0  0  0  0  0  0  0  0
   19.8909   11.7346   32.8413 C   0  0  0  0  0  0  0  0  0  0  0  0
   19.6270   12.8008   33.2217 N   0  0  0  0  0  0  0  0  0  0  0  0
   19.5131    9.3435   32.7858 C   0  0  0  0  0  0  0  0  0  0  0  0
   18.4154    9.4239   33.5758 N   0  0  0  0  0  0  0  0  0  0  0  0
   18.5819    9.0184   34.4924 H   0  0  0  0  0  0  0  0  0  0  0  0
   17.5860    9.0408   33.1344 H   0  0  0  0  0  0  0  0  0  0  0  0
   19.9055    8.0964   32.4355 C   0  0  0  0  0  0  0  0  0  0  0  0
   19.3211    7.2398   32.7166 H   0  0  0  0  0  0  0  0  0  0  0  0
   24.0633    5.0896   30.5714 C   0  0  0  0  0  0  0  0  0  0  0  0
   23.8385    6.1863   29.7672 O   0  0  0  0  0  0  0  0  0  0  0  0
   24.9307    7.1024   29.5998 C   0  0  0  0  0  0  0  0  0  0  0  0
   25.2730    7.4746   30.5704 H   0  0  0  0  0  0  0  0  0  0  0  0
   25.7717    6.6162   29.0959 H   0  0  0  0  0  0  0  0  0  0  0  0
   24.6079    7.9555   28.9947 H   0  0  0  0  0  0  0  0  0  0  0  0
  1  2  1  0
  2  3  2  0
  3  4  1  0
  3  5  1  0
  5  6  1  0
  6  7  1  0
  7  8  1  0
  7  9  1  0
  7 10  1  0
  5 11  2  0
 11 12  1  0
 11 13  1  0
 13 14  1  0
 14 15  1  0
 14 16  1  0
 14 17  1  0
 17 18  2  0
 17 19  1  0
 19 20  1  0
 19 21  1  0
 21 22  2  0
 22 23  1  0
 23 24  1  0
 24 25  2  0
 25 26  1  0
 25 27  1  0
 27 28  1  0
 27 29  2  0
 29 30  1  0
 30 31  1  0
 30 32  1  0
 32 33  2  0
 32 34  1  0
 34 35  1  0
 34 36  1  0
 34 37  1  0
 29 38  1  0
 38 39  1  0
 38 40  2  0
 40 41  1  0
 23 42  2  0
 42 43  1  0
 43 44  3  0
 42 45  1  0
 45 46  1  0
 46 47  1  0
 46 48  1  0
 45 49  2  0
 49 50  1  0
 13 51  2  0
 51 52  1  0
 52 53  1  0
 53 54  1  0
 53 55  1  0
 53 56  1  0
 51  2  1  0
 49 21  1  0
 40 24  1  0
M  END
>  <score>  (252) 
7.59395

$$$$

     RDKit          3D

 46 48  0  0  0  0  0  0  0  0999 V2000
   23.8915   14.0331   31.2898 H   0  0  0  0  0  0  0  0  0  0  0  0
   23.4021   13.0952   31.0589 C   0  0  0  0  0  0  0  0  0  0  0  0
   23.7060   12.2888   29.9716 N   0  0  0  0  0  0  0  0  0  0  0  0
   22.9206   11.2447   30.0585 C   0  0  0  0  0  0  0  0  0  0  0  0
   22.9218   10.4194   29.3483 H   0  0  0  0  0  0  0  0  0  0  0  0
   22.1009   11.3413   31.1701 N   0  0  0  0  0  0  0  0  0  0  0  0
   21.3226   10.2945   31.6267 C   0  0  0  0  0  0  0  0  0  0  0  0
   21.7075    9.0963   31.2061 N   0  0  0  0  0  0  0  0  0  0  0  0
   21.0279    8.0701   31.6299 C   0  0  0  0  0  0  0  0  0  0  0  0
   21.5778    6.9443   31.1667 N   0  0  0  0  0  0  0  0  0  0  0  0
   22.4525    7.0632   30.6750 H   0  0  0  0  0  0  0  0  0  0  0  0
   20.9133    5.7624   31.0875 C   0  0  0  0  0  0  0  0  0  0  0  0
   19.7710    5.6860   31.5111 O   0  0  0  0  0  0  0  0  0  0  0  0
   21.5522    4.5740   30.3921 C   0  0  0  0  0  0  0  0  0  0  0  0
   21.6046    4.7964   29.3252 H   0  0  0  0  0  0  0  0  0  0  0  0
   20.9031    3.7050   30.5249 H   0  0  0  0  0  0  0  0  0  0  0  0
   22.9477    4.2877   30.9177 C   0  0  0  0  0  0  0  0  0  0  0  0
   23.1629    3.1691   31.7358 C   0  0  0  0  0  0  0  0  0  0  0  0
   22.3351    2.5112   31.9783 H   0  0  0  0  0  0  0  0  0  0  0  0
   24.4373    2.8703   32.2558 C   0  0  0  0  0  0  0  0  0  0  0  0
   24.6743    1.7807   33.0614 O   0  0  0  0  0  0  0  0  0  0  0  0
   23.6469    0.7813   33.0908 C   0  0  0  0  0  0  0  0  0  0  0  0
   22.7279    1.1882   33.5224 H   0  0  0  0  0  0  0  0  0  0  0  0
   23.4364    0.4183   32.0797 H   0  0  0  0  0  0  0  0  0  0  0  0
   23.9698   -0.0669   33.7008 H   0  0  0  0  0  0  0  0  0  0  0  0
   25.5086    3.7241   31.9483 C   0  0  0  0  0  0  0  0  0  0  0  0
   27.2679    3.4270   32.6509 Br  0  0  0  0  0  0  0  0  0  0  0  0
   25.3027    4.8265   31.1171 C   0  0  0  0  0  0  0  0  0  0  0  0
   26.1430    5.4679   30.8723 H   0  0  0  0  0  0  0  0  0  0  0  0
   24.0320    5.1285   30.5989 C   0  0  0  0  0  0  0  0  0  0  0  0
   23.8118    6.2298   29.8039 O   0  0  0  0  0  0  0  0  0  0  0  0
   24.9402    7.0939   29.6193 C   0  0  0  0  0  0  0  0  0  0  0  0
   25.7533    6.5594   29.1174 H   0  0  0  0  0  0  0  0  0  0  0  0
   25.3014    7.4600   30.5860 H   0  0  0  0  0  0  0  0  0  0  0  0
   24.6560    7.9518   29.0066 H   0  0  0  0  0  0  0  0  0  0  0  0
   19.9453    8.1399   32.4617 C   0  0  0  0  0  0  0  0  0  0  0  0
   19.4539    7.2483   32.8024 H   0  0  0  0  0  0  0  0  0  0  0  0
   19.5554    9.3692   32.8813 C   0  0  0  0  0  0  0  0  0  0  0  0
   18.5110    9.4445   33.7418 N   0  0  0  0  0  0  0  0  0  0  0  0
   17.9234    8.6184   33.8205 H   0  0  0  0  0  0  0  0  0  0  0  0
   18.0790   10.3551   33.8568 H   0  0  0  0  0  0  0  0  0  0  0  0
   20.2456   10.4820   32.4814 C   0  0  0  0  0  0  0  0  0  0  0  0
   19.8941   11.7802   32.9461 C   0  0  0  0  0  0  0  0  0  0  0  0
   19.6298   12.8450   33.3318 N   0  0  0  0  0  0  0  0  0  0  0  0
   22.4130   12.5296   31.8085 C   0  0  0  0  0  0  0  0  0  0  0  0
   21.9949   12.9224   32.7313 H   0  0  0  0  0  0  0  0  0  0  0  0
  1  2  1  0
  2  3  1  0
  3  4  2  0
  4  5  1  0
  4  6  1  0
  6  7  1  0
  7  8  2  0
  8  9  1  0
  9 10  1  0
 10 11  1  0
 10 12  1  0
 12 13  2  0
 12 14  1  0
 14 15  1  0
 14 16  1  0
 14 17  1  0
 17 18  2  0
 18 19  1  0
 18 20  1  0
 20 21  1  0
 21 22  1  0
 22 23  1  0
 22 24  1  0
 22 25  1  0
 20 26  2  0
 26 27  1  0
 26 28  1  0
 28 29  1  0
 28 30  2  0
 30 31  1  0
 31 32  1  0
 32 33  1  0
 32 34  1  0
 32 35  1  0
  9 36  2  0
 36 37  1  0
 36 38  1  0
 38 39  1  0
 39 40  1  0
 39 41  1  0
 38 42  2  0
 42 43  1  0
 43 44  3  0
  6 45  1  0
 45 46  1  0
 45  2  2  0
 42  7  1  0
 30 17  1  0
M  END
>  <score>  (253) 
7.59455

$$$$

     RDKit          3D

 54 55  0  0  0  0  0  0  0  0999 V2000
   26.1002    5.4981   30.8997 H   0  0  0  0  0  0  0  0  0  0  0  0
   25.2803    4.8256   31.1259 C   0  0  0  0  0  0  0  0  0  0  0  0
   25.4974    3.7227   31.9579 C   0  0  0  0  0  0  0  0  0  0  0  0
   27.2521    3.4235   32.6651 Br  0  0  0  0  0  0  0  0  0  0  0  0
   24.4400    2.8493   32.2583 C   0  0  0  0  0  0  0  0  0  0  0  0
   24.6709    1.7687   33.0777 O   0  0  0  0  0  0  0  0  0  0  0  0
   23.6427    0.7686   33.1021 C   0  0  0  0  0  0  0  0  0  0  0  0
   23.4323    0.4094   32.0887 H   0  0  0  0  0  0  0  0  0  0  0  0
   22.7224    1.1791   33.5293 H   0  0  0  0  0  0  0  0  0  0  0  0
   23.9657   -0.0802   33.7124 H   0  0  0  0  0  0  0  0  0  0  0  0
   23.1752    3.1106   31.7107 C   0  0  0  0  0  0  0  0  0  0  0  0
   22.3527    2.4473   31.9605 H   0  0  0  0  0  0  0  0  0  0  0  0
   22.9591    4.2037   30.8645 C   0  0  0  0  0  0  0  0  0  0  0  0
   21.5654    4.4308   30.3309 C   0  0  0  0  0  0  0  0  0  0  0  0
   21.6115    4.6871   29.2718 H   0  0  0  0  0  0  0  0  0  0  0  0
   20.9710    3.5198   30.4342 H   0  0  0  0  0  0  0  0  0  0  0  0
   20.8949    5.5719   31.0838 C   0  0  0  0  0  0  0  0  0  0  0  0
   19.7503    5.4805   31.4923 O   0  0  0  0  0  0  0  0  0  0  0  0
   21.5836    6.7318   31.2514 N   0  0  0  0  0  0  0  0  0  0  0  0
   22.4164    6.8664   30.7008 H   0  0  0  0  0  0  0  0  0  0  0  0
   21.0640    7.8718   31.7435 C   0  0  0  0  0  0  0  0  0  0  0  0
   21.7646    8.8985   31.3236 N   0  0  0  0  0  0  0  0  0  0  0  0
   21.4534   10.1678   31.6720 C   0  0  0  0  0  0  0  0  0  0  0  0
   22.3516   11.2870   31.1565 C   0  0  0  0  0  0  0  0  0  0  0  0
   22.1432   12.4529   31.5046 O   0  0  0  0  0  0  0  0  0  0  0  0
   23.3757   10.9004   30.3342 O   0  0  0  0  0  0  0  0  0  0  0  0
   24.3255   11.8756   29.8967 C   0  0  0  0  0  0  0  0  0  0  0  0
   23.6700   12.9146   28.9840 C   0  0  0  0  0  0  0  0  0  0  0  0
   24.4320   13.5511   28.5194 H   0  0  0  0  0  0  0  0  0  0  0  0
   22.9869   13.5502   29.5574 H   0  0  0  0  0  0  0  0  0  0  0  0
   23.1039   12.4104   28.1947 H   0  0  0  0  0  0  0  0  0  0  0  0
   25.3668   11.0744   29.1197 C   0  0  0  0  0  0  0  0  0  0  0  0
   26.1530   11.7286   28.7300 H   0  0  0  0  0  0  0  0  0  0  0  0
   25.8234   10.3248   29.7752 H   0  0  0  0  0  0  0  0  0  0  0  0
   24.8892   10.5573   28.2810 H   0  0  0  0  0  0  0  0  0  0  0  0
   24.9928   12.5640   31.0881 C   0  0  0  0  0  0  0  0  0  0  0  0
   25.2441   11.8200   31.8504 H   0  0  0  0  0  0  0  0  0  0  0  0
   24.3236   13.3060   31.5347 H   0  0  0  0  0  0  0  0  0  0  0  0
   25.9061   13.0699   30.7595 H   0  0  0  0  0  0  0  0  0  0  0  0
   20.3322   10.3669   32.4997 C   0  0  0  0  0  0  0  0  0  0  0  0
   19.9252   11.6625   32.9393 C   0  0  0  0  0  0  0  0  0  0  0  0
   19.5839   12.7136   33.3049 N   0  0  0  0  0  0  0  0  0  0  0  0
   19.6266    9.2565   32.9191 C   0  0  0  0  0  0  0  0  0  0  0  0
   18.5316    9.3649   33.7017 N   0  0  0  0  0  0  0  0  0  0  0  0
   18.1224    8.4881   34.0091 H   0  0  0  0  0  0  0  0  0  0  0  0
   17.9243   10.1570   33.5039 H   0  0  0  0  0  0  0  0  0  0  0  0
   19.9862    7.9921   32.5639 C   0  0  0  0  0  0  0  0  0  0  0  0
   19.4391    7.1348   32.9157 H   0  0  0  0  0  0  0  0  0  0  0  0
   24.0180    5.0923   30.5773 C   0  0  0  0  0  0  0  0  0  0  0  0
   23.7907    6.2110   29.8029 O   0  0  0  0  0  0  0  0  0  0  0  0
   24.9103    7.0944   29.6163 C   0  0  0  0  0  0  0  0  0  0  0  0
   25.2733    7.4705   30.5789 H   0  0  0  0  0  0  0  0  0  0  0  0
   24.6205    7.9501   28.9990 H   0  0  0  0  0  0  0  0  0  0  0  0
   25.7284    6.5669   29.1163 H   0  0  0  0  0  0  0  0  0  0  0  0
  1  2  1  0
  2  3  2  0
  3  4  1  0
  3  5  1  0
  5  6  1  0
  6  7  1  0
  7  8  1  0
  7  9  1  0
  7 10  1  0
  5 11  2  0
 11 12  1  0
 11 13  1  0
 13 14  1  0
 14 15  1  0
 14 16  1  0
 14 17  1  0
 17 18  2  0
 17 19  1  0
 19 20  1  0
 19 21  1  0
 21 22  2  0
 22 23  1  0
 23 24  1  0
 24 25  2  0
 24 26  1  0
 26 27  1  0
 27 28  1  0
 28 29  1  0
 28 30  1  0
 28 31  1  0
 27 32  1  0
 32 33  1  0
 32 34  1  0
 32 35  1  0
 27 36  1  0
 36 37  1  0
 36 38  1  0
 36 39  1  0
 23 40  2  0
 40 41  1  0
 41 42  3  0
 40 43  1  0
 43 44  1  0
 44 45  1  0
 44 46  1  0
 43 47  2  0
 47 48  1  0
 13 49  2  0
 49 50  1  0
 50 51  1  0
 51 52  1  0
 51 53  1  0
 51 54  1  0
 49  2  1  0
 47 21  1  0
M  END
>  <score>  (254) 
7.59599

$$$$

     RDKit          3D

 51 53  0  0  0  0  0  0  0  0999 V2000
   25.5691   11.1564   28.2370 H   0  0  0  0  0  0  0  0  0  0  0  0
   25.1605   10.8592   29.1986 C   0  0  0  0  0  0  0  0  0  0  0  0
   23.9807   11.3657   29.5983 N   0  0  0  0  0  0  0  0  0  0  0  0
   23.4963   11.0006   30.7910 C   0  0  0  0  0  0  0  0  0  0  0  0
   22.1339   11.4472   31.1776 C   0  0  0  0  0  0  0  0  0  0  0  0
   22.2027   12.2097   31.9558 H   0  0  0  0  0  0  0  0  0  0  0  0
   21.6259   11.8606   30.3029 H   0  0  0  0  0  0  0  0  0  0  0  0
   21.3562   10.2676   31.6670 C   0  0  0  0  0  0  0  0  0  0  0  0
   21.7948    9.0538   31.3216 N   0  0  0  0  0  0  0  0  0  0  0  0
   21.1084    7.9993   31.6941 C   0  0  0  0  0  0  0  0  0  0  0  0
   21.6779    6.8471   31.2857 N   0  0  0  0  0  0  0  0  0  0  0  0
   22.5669    6.9413   30.8143 H   0  0  0  0  0  0  0  0  0  0  0  0
   20.9641    5.6935   31.1150 C   0  0  0  0  0  0  0  0  0  0  0  0
   19.7944    5.6228   31.4562 O   0  0  0  0  0  0  0  0  0  0  0  0
   21.5961    4.5434   30.3464 C   0  0  0  0  0  0  0  0  0  0  0  0
   21.6675    4.8295   29.2937 H   0  0  0  0  0  0  0  0  0  0  0  0
   20.9563    3.6590   30.4155 H   0  0  0  0  0  0  0  0  0  0  0  0
   22.9785    4.2405   30.8779 C   0  0  0  0  0  0  0  0  0  0  0  0
   23.1738    3.1406   31.7268 C   0  0  0  0  0  0  0  0  0  0  0  0
   22.3360    2.4990   31.9826 H   0  0  0  0  0  0  0  0  0  0  0  0
   24.4412    2.8533   32.2658 C   0  0  0  0  0  0  0  0  0  0  0  0
   24.6693    1.7828   33.1001 O   0  0  0  0  0  0  0  0  0  0  0  0
   23.6687    0.7554   33.1189 C   0  0  0  0  0  0  0  0  0  0  0  0
   22.7369    1.1299   33.5533 H   0  0  0  0  0  0  0  0  0  0  0  0
   23.4682    0.3907   32.1059 H   0  0  0  0  0  0  0  0  0  0  0  0
   24.0210   -0.0856   33.7240 H   0  0  0  0  0  0  0  0  0  0  0  0
   25.5175    3.6981   31.9469 C   0  0  0  0  0  0  0  0  0  0  0  0
   27.2699    3.3701   32.6470 Br  0  0  0  0  0  0  0  0  0  0  0  0
   25.3239    4.7948   31.1011 C   0  0  0  0  0  0  0  0  0  0  0  0
   26.1635    5.4362   30.8551 H   0  0  0  0  0  0  0  0  0  0  0  0
   24.0614    5.0852   30.5637 C   0  0  0  0  0  0  0  0  0  0  0  0
   23.8384    6.1816   29.7598 O   0  0  0  0  0  0  0  0  0  0  0  0
   24.9427    7.0763   29.5724 C   0  0  0  0  0  0  0  0  0  0  0  0
   24.6151    7.9557   29.0101 H   0  0  0  0  0  0  0  0  0  0  0  0
   25.7474    6.5848   29.0172 H   0  0  0  0  0  0  0  0  0  0  0  0
   25.3346    7.4059   30.5385 H   0  0  0  0  0  0  0  0  0  0  0  0
   19.9401    8.0702   32.3991 C   0  0  0  0  0  0  0  0  0  0  0  0
   19.3771    7.1924   32.6740 H   0  0  0  0  0  0  0  0  0  0  0  0
   19.5100    9.3036   32.7727 C   0  0  0  0  0  0  0  0  0  0  0  0
   18.3365    9.3283   33.4395 N   0  0  0  0  0  0  0  0  0  0  0  0
   18.3845    9.7157   34.3782 H   0  0  0  0  0  0  0  0  0  0  0  0
   17.7992    8.4718   33.3331 H   0  0  0  0  0  0  0  0  0  0  0  0
   20.2219   10.4357   32.4472 C   0  0  0  0  0  0  0  0  0  0  0  0
   19.8180   11.7328   32.8833 C   0  0  0  0  0  0  0  0  0  0  0  0
   19.5643   12.8091   33.2502 N   0  0  0  0  0  0  0  0  0  0  0  0
   24.1769   10.1179   31.6259 C   0  0  0  0  0  0  0  0  0  0  0  0
   23.7090    9.8077   32.5539 H   0  0  0  0  0  0  0  0  0  0  0  0
   25.3845    9.5777   31.2120 C   0  0  0  0  0  0  0  0  0  0  0  0
   25.9051    8.8595   31.8255 H   0  0  0  0  0  0  0  0  0  0  0  0
   25.8847    9.9475   29.9708 C   0  0  0  0  0  0  0  0  0  0  0  0
   26.8005    9.5001   29.5969 H   0  0  0  0  0  0  0  0  0  0  0  0
  1  2  1  0
  2  3  2  0
  3  4  1  0
  4  5  1  0
  5  6  1  0
  5  7  1  0
  5  8  1  0
  8  9  2  0
  9 10  1  0
 10 11  1  0
 11 12  1  0
 11 13  1  0
 13 14  2  0
 13 15  1  0
 15 16  1  0
 15 17  1  0
 15 18  1  0
 18 19  2  0
 19 20  1  0
 19 21  1  0
 21 22  1  0
 22 23  1  0
 23 24  1  0
 23 25  1  0
 23 26  1  0
 21 27  2  0
 27 28  1  0
 27 29  1  0
 29 30  1  0
 29 31  2  0
 31 32  1  0
 32 33  1  0
 33 34  1  0
 33 35  1  0
 33 36  1  0
 10 37  2  0
 37 38  1  0
 37 39  1  0
 39 40  1  0
 40 41  1  0
 40 42  1  0
 39 43  2  0
 43 44  1  0
 44 45  3  0
  4 46  2  0
 46 47  1  0
 46 48  1  0
 48 49  1  0
 48 50  2  0
 50 51  1  0
 50  2  1  0
 43  8  1  0
 31 18  1  0
M  END
>  <score>  (255) 
7.59777

$$$$

     RDKit          3D

 50 52  0  0  0  0  0  0  0  0999 V2000
   26.0366    9.2611   30.8781 H   0  0  0  0  0  0  0  0  0  0  0  0
   25.3942   10.0884   30.6014 C   0  0  0  0  0  0  0  0  0  0  0  0
   24.1081   10.2044   31.1441 C   0  0  0  0  0  0  0  0  0  0  0  0
   23.7299    9.4728   31.8530 H   0  0  0  0  0  0  0  0  0  0  0  0
   23.2843   11.2769   30.7771 C   0  0  0  0  0  0  0  0  0  0  0  0
   22.0061   11.4153   31.2389 O   0  0  0  0  0  0  0  0  0  0  0  0
   21.3490   10.2930   31.6623 C   0  0  0  0  0  0  0  0  0  0  0  0
   21.7203    9.0939   31.2141 N   0  0  0  0  0  0  0  0  0  0  0  0
   21.0023    8.0592   31.5624 C   0  0  0  0  0  0  0  0  0  0  0  0
   21.5023    6.9426   31.0051 N   0  0  0  0  0  0  0  0  0  0  0  0
   22.3631    7.0609   30.4928 H   0  0  0  0  0  0  0  0  0  0  0  0
   20.9368    5.7047   31.0851 C   0  0  0  0  0  0  0  0  0  0  0  0
   19.8869    5.5403   31.6839 O   0  0  0  0  0  0  0  0  0  0  0  0
   21.5876    4.5594   30.3273 C   0  0  0  0  0  0  0  0  0  0  0  0
   21.6765    4.8362   29.2712 H   0  0  0  0  0  0  0  0  0  0  0  0
   20.9423    3.6823   30.3975 H   0  0  0  0  0  0  0  0  0  0  0  0
   22.9608    4.2631   30.8843 C   0  0  0  0  0  0  0  0  0  0  0  0
   23.1573    3.1565   31.7270 C   0  0  0  0  0  0  0  0  0  0  0  0
   22.3239    2.5048   31.9732 H   0  0  0  0  0  0  0  0  0  0  0  0
   24.4266    2.8684   32.2618 C   0  0  0  0  0  0  0  0  0  0  0  0
   24.6596    1.7971   33.0941 O   0  0  0  0  0  0  0  0  0  0  0  0
   23.6694    0.7578   33.1189 C   0  0  0  0  0  0  0  0  0  0  0  0
   22.7335    1.1225   33.5554 H   0  0  0  0  0  0  0  0  0  0  0  0
   23.4715    0.3909   32.1058 H   0  0  0  0  0  0  0  0  0  0  0  0
   24.0316   -0.0819   33.7246 H   0  0  0  0  0  0  0  0  0  0  0  0
   25.5041    3.7089   31.9396 C   0  0  0  0  0  0  0  0  0  0  0  0
   27.2573    3.3641   32.6310 Br  0  0  0  0  0  0  0  0  0  0  0  0
   25.3084    4.8062   31.0974 C   0  0  0  0  0  0  0  0  0  0  0  0
   26.1520    5.4368   30.8420 H   0  0  0  0  0  0  0  0  0  0  0  0
   24.0449    5.1065   30.5689 C   0  0  0  0  0  0  0  0  0  0  0  0
   23.8339    6.1971   29.7513 O   0  0  0  0  0  0  0  0  0  0  0  0
   24.9312    7.1103   29.5969 C   0  0  0  0  0  0  0  0  0  0  0  0
   25.7664    6.6310   29.0738 H   0  0  0  0  0  0  0  0  0  0  0  0
   24.6094    7.9809   29.0154 H   0  0  0  0  0  0  0  0  0  0  0  0
   25.2799    7.4540   30.5767 H   0  0  0  0  0  0  0  0  0  0  0  0
   19.9076    8.1341   32.3807 C   0  0  0  0  0  0  0  0  0  0  0  0
   19.3349    7.2645   32.6461 H   0  0  0  0  0  0  0  0  0  0  0  0
   19.5752    9.3570   32.8692 C   0  0  0  0  0  0  0  0  0  0  0  0
   18.5340    9.4597   33.7184 N   0  0  0  0  0  0  0  0  0  0  0  0
   17.9485    8.6394   33.8571 H   0  0  0  0  0  0  0  0  0  0  0  0
   18.1672   10.3912   33.9006 H   0  0  0  0  0  0  0  0  0  0  0  0
   20.2771   10.4662   32.5056 C   0  0  0  0  0  0  0  0  0  0  0  0
   19.9240   11.7742   32.9421 C   0  0  0  0  0  0  0  0  0  0  0  0
   19.6599   12.8641   33.2517 N   0  0  0  0  0  0  0  0  0  0  0  0
   23.7592   12.2345   29.8820 C   0  0  0  0  0  0  0  0  0  0  0  0
   23.0811   13.0212   29.5691 H   0  0  0  0  0  0  0  0  0  0  0  0
   25.0549   12.1410   29.3609 C   0  0  0  0  0  0  0  0  0  0  0  0
   25.4173   12.9017   28.6734 H   0  0  0  0  0  0  0  0  0  0  0  0
   25.8776   11.0652   29.7216 C   0  0  0  0  0  0  0  0  0  0  0  0
   27.1316   10.9702   29.2244 F   0  0  0  0  0  0  0  0  0  0  0  0
  1  2  1  0
  2  3  2  0
  3  4  1  0
  3  5  1  0
  5  6  1  0
  6  7  1  0
  7  8  2  0
  8  9  1  0
  9 10  1  0
 10 11  1  0
 10 12  1  0
 12 13  2  0
 12 14  1  0
 14 15  1  0
 14 16  1  0
 14 17  1  0
 17 18  2  0
 18 19  1  0
 18 20  1  0
 20 21  1  0
 21 22  1  0
 22 23  1  0
 22 24  1  0
 22 25  1  0
 20 26  2  0
 26 27  1  0
 26 28  1  0
 28 29  1  0
 28 30  2  0
 30 31  1  0
 31 32  1  0
 32 33  1  0
 32 34  1  0
 32 35  1  0
  9 36  2  0
 36 37  1  0
 36 38  1  0
 38 39  1  0
 39 40  1  0
 39 41  1  0
 38 42  2  0
 42 43  1  0
 43 44  3  0
  5 45  2  0
 45 46  1  0
 45 47  1  0
 47 48  1  0
 47 49  2  0
 49 50  1  0
 49  2  1  0
 42  7  1  0
 30 17  1  0
M  END
>  <score>  (256) 
7.59795

$$$$

     RDKit          3D

 47 49  0  0  0  0  0  0  0  0999 V2000
   19.5083   13.6069   28.6947 H   0  0  0  0  0  0  0  0  0  0  0  0
   20.4383   13.3967   29.2208 C   0  0  0  0  0  0  0  0  0  0  0  0
   20.5758   12.3166   30.0855 N   0  0  0  0  0  0  0  0  0  0  0  0
   21.7941   12.2656   30.5433 C   0  0  0  0  0  0  0  0  0  0  0  0
   22.2099   11.2386   31.3413 N   0  0  0  0  0  0  0  0  0  0  0  0
   23.0457   10.7820   31.0144 H   0  0  0  0  0  0  0  0  0  0  0  0
   21.3241   10.2969   31.6800 C   0  0  0  0  0  0  0  0  0  0  0  0
   21.7969    9.1347   31.3114 N   0  0  0  0  0  0  0  0  0  0  0  0
   21.0697    8.1040   31.6623 C   0  0  0  0  0  0  0  0  0  0  0  0
   21.6414    6.9570   31.2582 N   0  0  0  0  0  0  0  0  0  0  0  0
   22.5325    7.0655   30.7983 H   0  0  0  0  0  0  0  0  0  0  0  0
   20.9596    5.7831   31.1277 C   0  0  0  0  0  0  0  0  0  0  0  0
   19.7814    5.7310   31.4450 O   0  0  0  0  0  0  0  0  0  0  0  0
   21.5919    4.6160   30.3892 C   0  0  0  0  0  0  0  0  0  0  0  0
   21.6588    4.8927   29.3347 H   0  0  0  0  0  0  0  0  0  0  0  0
   20.9327    3.7517   30.4809 H   0  0  0  0  0  0  0  0  0  0  0  0
   22.9733    4.2829   30.9089 C   0  0  0  0  0  0  0  0  0  0  0  0
   23.1686    3.1637   31.7357 C   0  0  0  0  0  0  0  0  0  0  0  0
   22.3329    2.5165   31.9845 H   0  0  0  0  0  0  0  0  0  0  0  0
   24.4391    2.8596   32.2627 C   0  0  0  0  0  0  0  0  0  0  0  0
   24.6689    1.7847   33.0917 O   0  0  0  0  0  0  0  0  0  0  0  0
   23.6670    0.7605   33.1147 C   0  0  0  0  0  0  0  0  0  0  0  0
   24.0159   -0.0822   33.7196 H   0  0  0  0  0  0  0  0  0  0  0  0
   23.4656    0.3975   32.1025 H   0  0  0  0  0  0  0  0  0  0  0  0
   22.7364    1.1374   33.5479 H   0  0  0  0  0  0  0  0  0  0  0  0
   25.5186    3.7028   31.9467 C   0  0  0  0  0  0  0  0  0  0  0  0
   27.2761    3.3717   32.6408 Br  0  0  0  0  0  0  0  0  0  0  0  0
   25.3280    4.8015   31.1034 C   0  0  0  0  0  0  0  0  0  0  0  0
   26.1724    5.4354   30.8529 H   0  0  0  0  0  0  0  0  0  0  0  0
   24.0635    5.1099   30.5810 C   0  0  0  0  0  0  0  0  0  0  0  0
   23.8430    6.2035   29.7734 O   0  0  0  0  0  0  0  0  0  0  0  0
   24.9397    7.1061   29.6018 C   0  0  0  0  0  0  0  0  0  0  0  0
   25.2825    7.4737   30.5731 H   0  0  0  0  0  0  0  0  0  0  0  0
   25.7732    6.6071   29.0995 H   0  0  0  0  0  0  0  0  0  0  0  0
   24.6227    7.9592   28.9951 H   0  0  0  0  0  0  0  0  0  0  0  0
   19.9146    8.1698   32.4079 C   0  0  0  0  0  0  0  0  0  0  0  0
   19.3998    7.2806   32.7351 H   0  0  0  0  0  0  0  0  0  0  0  0
   19.4890    9.4061   32.7894 C   0  0  0  0  0  0  0  0  0  0  0  0
   18.4426    9.4904   33.6496 N   0  0  0  0  0  0  0  0  0  0  0  0
   18.0622   10.4001   33.8942 H   0  0  0  0  0  0  0  0  0  0  0  0
   17.9124    8.6527   33.8678 H   0  0  0  0  0  0  0  0  0  0  0  0
   20.1783   10.5158   32.3980 C   0  0  0  0  0  0  0  0  0  0  0  0
   19.8392   11.8252   32.8375 C   0  0  0  0  0  0  0  0  0  0  0  0
   19.6382   12.9022   33.2225 N   0  0  0  0  0  0  0  0  0  0  0  0
   22.8843   13.5324   30.0019 S   0  0  0  0  0  0  0  0  0  0  0  0
   21.5617   14.1727   29.0587 C   0  0  0  0  0  0  0  0  0  0  0  0
   21.6272   15.0510   28.4209 H   0  0  0  0  0  0  0  0  0  0  0  0
  1  2  1  0
  2  3  1  0
  3  4  2  0
  4  5  1  0
  5  6  1  0
  5  7  1  0
  7  8  2  0
  8  9  1  0
  9 10  1  0
 10 11  1  0
 10 12  1  0
 12 13  2  0
 12 14  1  0
 14 15  1  0
 14 16  1  0
 14 17  1  0
 17 18  2  0
 18 19  1  0
 18 20  1  0
 20 21  1  0
 21 22  1  0
 22 23  1  0
 22 24  1  0
 22 25  1  0
 20 26  2  0
 26 27  1  0
 26 28  1  0
 28 29  1  0
 28 30  2  0
 30 31  1  0
 31 32  1  0
 32 33  1  0
 32 34  1  0
 32 35  1  0
  9 36  2  0
 36 37  1  0
 36 38  1  0
 38 39  1  0
 39 40  1  0
 39 41  1  0
 38 42  2  0
 42 43  1  0
 43 44  3  0
  4 45  1  0
 45 46  1  0
 46 47  1  0
 46  2  2  0
 42  7  1  0
 30 17  1  0
M  END
>  <score>  (257) 
7.60114

$$$$

     RDKit          3D

 56 58  0  0  0  0  0  0  0  0999 V2000
   26.1853    5.4162   30.8431 H   0  0  0  0  0  0  0  0  0  0  0  0
   25.3425    4.7826   31.1014 C   0  0  0  0  0  0  0  0  0  0  0  0
   25.5231    3.6768   31.9451 C   0  0  0  0  0  0  0  0  0  0  0  0
   27.2719    3.3090   32.6358 Br  0  0  0  0  0  0  0  0  0  0  0  0
   24.4389    2.8453   32.2723 C   0  0  0  0  0  0  0  0  0  0  0  0
   24.6644    1.7834   33.1202 O   0  0  0  0  0  0  0  0  0  0  0  0
   23.6881    0.7353   33.1395 C   0  0  0  0  0  0  0  0  0  0  0  0
   24.0653   -0.0953   33.7415 H   0  0  0  0  0  0  0  0  0  0  0  0
   23.4954    0.3642   32.1286 H   0  0  0  0  0  0  0  0  0  0  0  0
   22.7493    1.0789   33.5821 H   0  0  0  0  0  0  0  0  0  0  0  0
   23.1765    3.1466   31.7324 C   0  0  0  0  0  0  0  0  0  0  0  0
   22.3436    2.4974   31.9819 H   0  0  0  0  0  0  0  0  0  0  0  0
   22.9906    4.2554   30.8889 C   0  0  0  0  0  0  0  0  0  0  0  0
   21.6115    4.5613   30.3434 C   0  0  0  0  0  0  0  0  0  0  0  0
   21.7122    4.8929   29.3077 H   0  0  0  0  0  0  0  0  0  0  0  0
   20.9941    3.6565   30.3430 H   0  0  0  0  0  0  0  0  0  0  0  0
   20.9255    5.6782   31.1304 C   0  0  0  0  0  0  0  0  0  0  0  0
   19.7332    5.6003   31.3902 O   0  0  0  0  0  0  0  0  0  0  0  0
   21.6012    6.8394   31.3718 N   0  0  0  0  0  0  0  0  0  0  0  0
   22.4839    6.9711   30.9065 H   0  0  0  0  0  0  0  0  0  0  0  0
   21.0251    7.9990   31.7336 C   0  0  0  0  0  0  0  0  0  0  0  0
   21.7878    9.0007   31.3675 N   0  0  0  0  0  0  0  0  0  0  0  0
   21.3948   10.2206   31.7055 C   0  0  0  0  0  0  0  0  0  0  0  0
   22.2015   11.2846   31.3086 N   0  0  0  0  0  0  0  0  0  0  0  0
   21.7488   12.1940   30.2306 C   0  0  0  0  0  0  0  0  0  0  0  0
   22.0318   11.7592   29.2670 H   0  0  0  0  0  0  0  0  0  0  0  0
   20.6624   12.3076   30.2427 H   0  0  0  0  0  0  0  0  0  0  0  0
   22.4079   13.5947   30.3305 C   0  0  0  0  0  0  0  0  0  0  0  0
   22.1406   14.1870   29.4503 H   0  0  0  0  0  0  0  0  0  0  0  0
   22.0125   14.1100   31.2141 H   0  0  0  0  0  0  0  0  0  0  0  0
   23.8858   13.5073   30.4406 N   0  0  0  0  0  0  0  0  0  0  0  0
   24.6117   13.2085   29.1963 C   0  0  0  0  0  0  0  0  0  0  0  0
   24.3684   12.2004   28.8478 H   0  0  0  0  0  0  0  0  0  0  0  0
   25.6905   13.2709   29.3651 H   0  0  0  0  0  0  0  0  0  0  0  0
   24.3456   13.9264   28.4176 H   0  0  0  0  0  0  0  0  0  0  0  0
   24.2570   12.6432   31.5783 C   0  0  0  0  0  0  0  0  0  0  0  0
   25.3457   12.6024   31.6939 H   0  0  0  0  0  0  0  0  0  0  0  0
   23.8351   13.0922   32.4816 H   0  0  0  0  0  0  0  0  0  0  0  0
   23.6774   11.2156   31.3903 C   0  0  0  0  0  0  0  0  0  0  0  0
   24.0779   10.7923   30.4668 H   0  0  0  0  0  0  0  0  0  0  0  0
   23.9955   10.5686   32.2096 H   0  0  0  0  0  0  0  0  0  0  0  0
   20.2607   10.4696   32.4424 C   0  0  0  0  0  0  0  0  0  0  0  0
   19.9487   11.7984   32.8520 C   0  0  0  0  0  0  0  0  0  0  0  0
   19.7223   12.8923   33.1797 N   0  0  0  0  0  0  0  0  0  0  0  0
   19.5221    9.3805   32.8149 C   0  0  0  0  0  0  0  0  0  0  0  0
   18.4656    9.4978   33.6377 N   0  0  0  0  0  0  0  0  0  0  0  0
   17.9348    8.6698   33.8889 H   0  0  0  0  0  0  0  0  0  0  0  0
   18.1636   10.4171   33.9311 H   0  0  0  0  0  0  0  0  0  0  0  0
   19.8603    8.1212   32.4396 C   0  0  0  0  0  0  0  0  0  0  0  0
   19.2613    7.2734   32.7419 H   0  0  0  0  0  0  0  0  0  0  0  0
   24.0812    5.0910   30.5707 C   0  0  0  0  0  0  0  0  0  0  0  0
   23.8604    6.1796   29.7535 O   0  0  0  0  0  0  0  0  0  0  0  0
   24.9322    7.1171   29.5883 C   0  0  0  0  0  0  0  0  0  0  0  0
   25.2641    7.5007   30.5571 H   0  0  0  0  0  0  0  0  0  0  0  0
   24.5863    7.9620   28.9873 H   0  0  0  0  0  0  0  0  0  0  0  0
   25.7812    6.6576   29.0740 H   0  0  0  0  0  0  0  0  0  0  0  0
  1  2  1  0
  2  3  2  0
  3  4  1  0
  3  5  1  0
  5  6  1  0
  6  7  1  0
  7  8  1  0
  7  9  1  0
  7 10  1  0
  5 11  2  0
 11 12  1  0
 11 13  1  0
 13 14  1  0
 14 15  1  0
 14 16  1  0
 14 17  1  0
 17 18  2  0
 17 19  1  0
 19 20  1  0
 19 21  1  0
 21 22  2  0
 22 23  1  0
 23 24  1  0
 24 25  1  0
 25 26  1  0
 25 27  1  0
 25 28  1  0
 28 29  1  0
 28 30  1  0
 28 31  1  0
 31 32  1  0
 32 33  1  0
 32 34  1  0
 32 35  1  0
 31 36  1  0
 36 37  1  0
 36 38  1  0
 36 39  1  0
 39 40  1  0
 39 41  1  0
 23 42  2  0
 42 43  1  0
 43 44  3  0
 42 45  1  0
 45 46  1  0
 46 47  1  0
 46 48  1  0
 45 49  2  0
 49 50  1  0
 13 51  2  0
 51 52  1  0
 52 53  1  0
 53 54  1  0
 53 55  1  0
 53 56  1  0
 51  2  1  0
 49 21  1  0
 39 24  1  0
M  END
>  <score>  (258) 
7.60275

$$$$

     RDKit          3D

 49 51  0  0  0  0  0  0  0  0999 V2000
   26.1759    5.4218   30.8475 H   0  0  0  0  0  0  0  0  0  0  0  0
   25.3343    4.7881   31.1022 C   0  0  0  0  0  0  0  0  0  0  0  0
   25.5236    3.6864   31.9444 C   0  0  0  0  0  0  0  0  0  0  0  0
   27.2727    3.3282   32.6363 Br  0  0  0  0  0  0  0  0  0  0  0  0
   24.4430    2.8509   32.2710 C   0  0  0  0  0  0  0  0  0  0  0  0
   24.6688    1.7871   33.1140 O   0  0  0  0  0  0  0  0  0  0  0  0
   23.6840    0.7408   33.1345 C   0  0  0  0  0  0  0  0  0  0  0  0
   22.7444    1.0936   33.5741 H   0  0  0  0  0  0  0  0  0  0  0  0
   24.0534   -0.0967   33.7379 H   0  0  0  0  0  0  0  0  0  0  0  0
   23.4888    0.3726   32.1207 H   0  0  0  0  0  0  0  0  0  0  0  0
   23.1785    3.1407   31.7324 C   0  0  0  0  0  0  0  0  0  0  0  0
   22.3433    2.4934   31.9822 H   0  0  0  0  0  0  0  0  0  0  0  0
   22.9868    4.2488   30.8916 C   0  0  0  0  0  0  0  0  0  0  0  0
   21.6068    4.5477   30.3464 C   0  0  0  0  0  0  0  0  0  0  0  0
   20.9904    3.6448   30.3532 H   0  0  0  0  0  0  0  0  0  0  0  0
   21.6937    4.8905   29.3121 H   0  0  0  0  0  0  0  0  0  0  0  0
   20.9102    5.6495   31.1376 C   0  0  0  0  0  0  0  0  0  0  0  0
   19.7208    5.5722   31.3893 O   0  0  0  0  0  0  0  0  0  0  0  0
   21.5930    6.8080   31.3642 N   0  0  0  0  0  0  0  0  0  0  0  0
   22.4667    6.9289   30.8761 H   0  0  0  0  0  0  0  0  0  0  0  0
   21.0240    7.9715   31.7499 C   0  0  0  0  0  0  0  0  0  0  0  0
   21.7671    8.9832   31.3537 N   0  0  0  0  0  0  0  0  0  0  0  0
   21.3935   10.2250   31.6759 C   0  0  0  0  0  0  0  0  0  0  0  0
   22.2146   11.4031   31.1999 C   0  0  0  0  0  0  0  0  0  0  0  0
   22.5682   11.9614   32.0612 H   0  0  0  0  0  0  0  0  0  0  0  0
   21.5597   12.0779   30.6440 H   0  0  0  0  0  0  0  0  0  0  0  0
   23.4131   11.0320   30.3252 C   0  0  0  0  0  0  0  0  0  0  0  0
   24.0984   10.2842   30.7354 H   0  0  0  0  0  0  0  0  0  0  0  0
   24.0290   12.1007   29.4390 C   0  0  0  0  0  0  0  0  0  0  0  0
   25.1128   12.0534   29.2600 H   0  0  0  0  0  0  0  0  0  0  0  0
   23.6000   13.1097   29.5002 H   0  0  0  0  0  0  0  0  0  0  0  0
   23.1691   10.9910   28.8306 C   0  0  0  0  0  0  0  0  0  0  0  0
   22.1638   11.2563   28.4849 H   0  0  0  0  0  0  0  0  0  0  0  0
   23.6781   10.2127   28.2520 H   0  0  0  0  0  0  0  0  0  0  0  0
   20.2726   10.4519   32.4629 C   0  0  0  0  0  0  0  0  0  0  0  0
   19.9335   11.7744   32.8755 C   0  0  0  0  0  0  0  0  0  0  0  0
   19.6977   12.8618   33.2120 N   0  0  0  0  0  0  0  0  0  0  0  0
   19.5218    9.3681   32.8490 C   0  0  0  0  0  0  0  0  0  0  0  0
   18.4407    9.4929   33.6522 N   0  0  0  0  0  0  0  0  0  0  0  0
   18.1437   10.4211   33.9367 H   0  0  0  0  0  0  0  0  0  0  0  0
   17.9112    8.6583   33.8997 H   0  0  0  0  0  0  0  0  0  0  0  0
   19.8630    8.1082   32.4617 C   0  0  0  0  0  0  0  0  0  0  0  0
   19.2613    7.2620   32.7565 H   0  0  0  0  0  0  0  0  0  0  0  0
   24.0713    5.0909   30.5724 C   0  0  0  0  0  0  0  0  0  0  0  0
   23.8471    6.1812   29.7574 O   0  0  0  0  0  0  0  0  0  0  0  0
   24.9307    7.1119   29.5925 C   0  0  0  0  0  0  0  0  0  0  0  0
   25.7822    6.6408   29.0866 H   0  0  0  0  0  0  0  0  0  0  0  0
   24.5966    7.9587   28.9834 H   0  0  0  0  0  0  0  0  0  0  0  0
   25.2624    7.4976   30.5640 H   0  0  0  0  0  0  0  0  0  0  0  0
  1  2  1  0
  2  3  2  0
  3  4  1  0
  3  5  1  0
  5  6  1  0
  6  7  1  0
  7  8  1  0
  7  9  1  0
  7 10  1  0
  5 11  2  0
 11 12  1  0
 11 13  1  0
 13 14  1  0
 14 15  1  0
 14 16  1  0
 14 17  1  0
 17 18  2  0
 17 19  1  0
 19 20  1  0
 19 21  1  0
 21 22  2  0
 22 23  1  0
 23 24  1  0
 24 25  1  0
 24 26  1  0
 24 27  1  0
 27 28  1  0
 27 29  1  0
 29 30  1  0
 29 31  1  0
 29 32  1  0
 32 33  1  0
 32 34  1  0
 23 35  2  0
 35 36  1  0
 36 37  3  0
 35 38  1  0
 38 39  1  0
 39 40  1  0
 39 41  1  0
 38 42  2  0
 42 43  1  0
 13 44  2  0
 44 45  1  0
 45 46  1  0
 46 47  1  0
 46 48  1  0
 46 49  1  0
 44  2  1  0
 42 21  1  0
 32 27  1  0
M  END
>  <score>  (259) 
7.60416

$$$$

     RDKit          3D

 48 50  0  0  0  0  0  0  0  0999 V2000
   26.1681    5.4257   30.8384 H   0  0  0  0  0  0  0  0  0  0  0  0
   25.3261    4.7923   31.0992 C   0  0  0  0  0  0  0  0  0  0  0  0
   25.5103    3.6857   31.9401 C   0  0  0  0  0  0  0  0  0  0  0  0
   27.2628    3.3312   32.6315 Br  0  0  0  0  0  0  0  0  0  0  0  0
   24.4276    2.8541   32.2662 C   0  0  0  0  0  0  0  0  0  0  0  0
   24.6620    1.7897   33.1092 O   0  0  0  0  0  0  0  0  0  0  0  0
   23.6825    0.7448   33.1319 C   0  0  0  0  0  0  0  0  0  0  0  0
   22.7453    1.0918   33.5736 H   0  0  0  0  0  0  0  0  0  0  0  0
   23.4882    0.3728   32.1223 H   0  0  0  0  0  0  0  0  0  0  0  0
   24.0532   -0.0877   33.7340 H   0  0  0  0  0  0  0  0  0  0  0  0
   23.1622    3.1577   31.7292 C   0  0  0  0  0  0  0  0  0  0  0  0
   22.3380    2.4973   31.9771 H   0  0  0  0  0  0  0  0  0  0  0  0
   22.9701    4.2724   30.8880 C   0  0  0  0  0  0  0  0  0  0  0  0
   21.5948    4.5738   30.3198 C   0  0  0  0  0  0  0  0  0  0  0  0
   20.9567    3.6862   30.3629 H   0  0  0  0  0  0  0  0  0  0  0  0
   21.7040    4.8622   29.2704 H   0  0  0  0  0  0  0  0  0  0  0  0
   20.9148    5.7279   31.0523 C   0  0  0  0  0  0  0  0  0  0  0  0
   19.8668    5.5577   31.6547 O   0  0  0  0  0  0  0  0  0  0  0  0
   21.4581    6.9729   30.9630 N   0  0  0  0  0  0  0  0  0  0  0  0
   22.3254    7.0988   30.4675 H   0  0  0  0  0  0  0  0  0  0  0  0
   20.9859    8.0903   31.5429 C   0  0  0  0  0  0  0  0  0  0  0  0
   21.7374    9.0958   31.1895 N   0  0  0  0  0  0  0  0  0  0  0  0
   21.4239   10.2908   31.6555 C   0  0  0  0  0  0  0  0  0  0  0  0
   22.2702   11.3047   31.2667 N   0  0  0  0  0  0  0  0  0  0  0  0
   23.4625   11.2439   30.4434 C   0  0  0  0  0  0  0  0  0  0  0  0
   24.3024   10.6981   30.8907 H   0  0  0  0  0  0  0  0  0  0  0  0
   23.2930   10.9203   29.4090 H   0  0  0  0  0  0  0  0  0  0  0  0
   23.5130   12.7653   30.6367 C   0  0  0  0  0  0  0  0  0  0  0  0
   24.3998   13.1005   31.1781 H   0  0  0  0  0  0  0  0  0  0  0  0
   23.4029   13.3193   29.7025 H   0  0  0  0  0  0  0  0  0  0  0  0
   22.2378   12.7380   31.4934 C   0  0  0  0  0  0  0  0  0  0  0  0
   22.3865   13.0600   32.5300 H   0  0  0  0  0  0  0  0  0  0  0  0
   21.3888   13.2699   31.0497 H   0  0  0  0  0  0  0  0  0  0  0  0
   20.3444   10.5215   32.4672 C   0  0  0  0  0  0  0  0  0  0  0  0
   20.0151   11.8433   32.8826 C   0  0  0  0  0  0  0  0  0  0  0  0
   19.7410   12.9293   33.1927 N   0  0  0  0  0  0  0  0  0  0  0  0
   19.6084    9.4276   32.8268 C   0  0  0  0  0  0  0  0  0  0  0  0
   18.5523    9.5195   33.6541 N   0  0  0  0  0  0  0  0  0  0  0  0
   18.0023    8.6862   33.8460 H   0  0  0  0  0  0  0  0  0  0  0  0
   18.2038   10.4374   33.9036 H   0  0  0  0  0  0  0  0  0  0  0  0
   19.9148    8.1844   32.3807 C   0  0  0  0  0  0  0  0  0  0  0  0
   19.3293    7.3319   32.6850 H   0  0  0  0  0  0  0  0  0  0  0  0
   24.0639    5.1022   30.5694 C   0  0  0  0  0  0  0  0  0  0  0  0
   23.8487    6.1835   29.7419 O   0  0  0  0  0  0  0  0  0  0  0  0
   24.9308    7.1108   29.5895 C   0  0  0  0  0  0  0  0  0  0  0  0
   24.6004    7.9616   28.9912 H   0  0  0  0  0  0  0  0  0  0  0  0
   25.7799    6.6466   29.0800 H   0  0  0  0  0  0  0  0  0  0  0  0
   25.2589    7.4862   30.5628 H   0  0  0  0  0  0  0  0  0  0  0  0
  1  2  1  0
  2  3  2  0
  3  4  1  0
  3  5  1  0
  5  6  1  0
  6  7  1  0
  7  8  1  0
  7  9  1  0
  7 10  1  0
  5 11  2  0
 11 12  1  0
 11 13  1  0
 13 14  1  0
 14 15  1  0
 14 16  1  0
 14 17  1  0
 17 18  2  0
 17 19  1  0
 19 20  1  0
 19 21  1  0
 21 22  2  0
 22 23  1  0
 23 24  1  0
 24 25  1  0
 25 26  1  0
 25 27  1  0
 25 28  1  0
 28 29  1  0
 28 30  1  0
 28 31  1  0
 31 32  1  0
 31 33  1  0
 23 34  2  0
 34 35  1  0
 35 36  3  0
 34 37  1  0
 37 38  1  0
 38 39  1  0
 38 40  1  0
 37 41  2  0
 41 42  1  0
 13 43  2  0
 43 44  1  0
 44 45  1  0
 45 46  1  0
 45 47  1  0
 45 48  1  0
 43  2  1  0
 41 21  1  0
 31 24  1  0
M  END
>  <score>  (260) 
7.60426

$$$$

     RDKit          3D

 50 52  0  0  0  0  0  0  0  0999 V2000
   22.2176   14.6098   30.6544 H   0  0  0  0  0  0  0  0  0  0  0  0
   22.6062   13.5981   30.6355 C   0  0  0  0  0  0  0  0  0  0  0  0
   21.8528   12.6211   31.1320 N   0  0  0  0  0  0  0  0  0  0  0  0
   22.3126   11.3524   31.1189 C   0  0  0  0  0  0  0  0  0  0  0  0
   21.4325   10.2151   31.6685 C   0  0  0  0  0  0  0  0  0  0  0  0
   21.7659    8.9366   31.3858 N   0  0  0  0  0  0  0  0  0  0  0  0
   21.0224    7.9328   31.7927 C   0  0  0  0  0  0  0  0  0  0  0  0
   21.5638    6.7822   31.3541 N   0  0  0  0  0  0  0  0  0  0  0  0
   22.4426    6.8936   30.8663 H   0  0  0  0  0  0  0  0  0  0  0  0
   20.8639    5.6348   31.1523 C   0  0  0  0  0  0  0  0  0  0  0  0
   19.6920    5.5604   31.4930 O   0  0  0  0  0  0  0  0  0  0  0  0
   21.5497    4.5199   30.3765 C   0  0  0  0  0  0  0  0  0  0  0  0
   20.9364    3.6172   30.4285 H   0  0  0  0  0  0  0  0  0  0  0  0
   21.6090    4.8307   29.3299 H   0  0  0  0  0  0  0  0  0  0  0  0
   22.9522    4.2515   30.8999 C   0  0  0  0  0  0  0  0  0  0  0  0
   23.1710    3.1431   31.7301 C   0  0  0  0  0  0  0  0  0  0  0  0
   22.3465    2.4821   31.9748 H   0  0  0  0  0  0  0  0  0  0  0  0
   24.4428    2.8610   32.2594 C   0  0  0  0  0  0  0  0  0  0  0  0
   24.6770    1.7796   33.0760 O   0  0  0  0  0  0  0  0  0  0  0  0
   23.6557    0.7723   33.1011 C   0  0  0  0  0  0  0  0  0  0  0  0
   22.7332    1.1727   33.5324 H   0  0  0  0  0  0  0  0  0  0  0  0
   23.9845   -0.0760   33.7092 H   0  0  0  0  0  0  0  0  0  0  0  0
   23.4510    0.4133   32.0872 H   0  0  0  0  0  0  0  0  0  0  0  0
   25.5101    3.7185   31.9494 C   0  0  0  0  0  0  0  0  0  0  0  0
   27.2688    3.4257   32.6493 Br  0  0  0  0  0  0  0  0  0  0  0  0
   25.2990    4.8168   31.1132 C   0  0  0  0  0  0  0  0  0  0  0  0
   26.1331    5.4656   30.8692 H   0  0  0  0  0  0  0  0  0  0  0  0
   24.0295    5.1068   30.5869 C   0  0  0  0  0  0  0  0  0  0  0  0
   23.8070    6.2085   29.7902 O   0  0  0  0  0  0  0  0  0  0  0  0
   24.9275    7.0901   29.6188 C   0  0  0  0  0  0  0  0  0  0  0  0
   25.7506    6.5701   29.1170 H   0  0  0  0  0  0  0  0  0  0  0  0
   24.6354    7.9509   29.0118 H   0  0  0  0  0  0  0  0  0  0  0  0
   25.2789    7.4517   30.5910 H   0  0  0  0  0  0  0  0  0  0  0  0
   19.8757    8.0723   32.5234 C   0  0  0  0  0  0  0  0  0  0  0  0
   19.2975    7.2089   32.8171 H   0  0  0  0  0  0  0  0  0  0  0  0
   19.5105    9.3442   32.8555 C   0  0  0  0  0  0  0  0  0  0  0  0
   18.3621    9.4726   33.5774 N   0  0  0  0  0  0  0  0  0  0  0  0
   17.8977    8.6300   33.9131 H   0  0  0  0  0  0  0  0  0  0  0  0
   18.0754   10.3900   33.9146 H   0  0  0  0  0  0  0  0  0  0  0  0
   20.2752   10.4328   32.4541 C   0  0  0  0  0  0  0  0  0  0  0  0
   19.8735   11.7344   32.8755 C   0  0  0  0  0  0  0  0  0  0  0  0
   19.5525   12.7889   33.2497 N   0  0  0  0  0  0  0  0  0  0  0  0
   23.5445   11.0863   30.6097 N   0  0  0  0  0  0  0  0  0  0  0  0
   24.3449   12.0328   30.0823 C   0  0  0  0  0  0  0  0  0  0  0  0
   25.7122   11.6635   29.4399 C   0  0  0  0  0  0  0  0  0  0  0  0
   25.6191   11.7278   28.0785 F   0  0  0  0  0  0  0  0  0  0  0  0
   26.6989   12.5220   29.8395 F   0  0  0  0  0  0  0  0  0  0  0  0
   26.1091   10.4027   29.7861 F   0  0  0  0  0  0  0  0  0  0  0  0
   23.8533   13.3394   30.0907 C   0  0  0  0  0  0  0  0  0  0  0  0
   24.4209   14.1491   29.6582 H   0  0  0  0  0  0  0  0  0  0  0  0
  1  2  1  0
  2  3  2  0
  3  4  1  0
  4  5  1  0
  5  6  2  0
  6  7  1  0
  7  8  1  0
  8  9  1  0
  8 10  1  0
 10 11  2  0
 10 12  1  0
 12 13  1  0
 12 14  1  0
 12 15  1  0
 15 16  2  0
 16 17  1  0
 16 18  1  0
 18 19  1  0
 19 20  1  0
 20 21  1  0
 20 22  1  0
 20 23  1  0
 18 24  2  0
 24 25  1  0
 24 26  1  0
 26 27  1  0
 26 28  2  0
 28 29  1  0
 29 30  1  0
 30 31  1  0
 30 32  1  0
 30 33  1  0
  7 34  2  0
 34 35  1  0
 34 36  1  0
 36 37  1  0
 37 38  1  0
 37 39  1  0
 36 40  2  0
 40 41  1  0
 41 42  3  0
  4 43  2  0
 43 44  1  0
 44 45  1  0
 45 46  1  0
 45 47  1  0
 45 48  1  0
 44 49  2  0
 49 50  1  0
 49  2  1  0
 40  5  1  0
 28 15  1  0
M  END
>  <score>  (261) 
7.60487

$$$$

     RDKit          3D

 50 51  0  0  0  0  0  0  0  0999 V2000
   26.1692    5.4350   30.8548 H   0  0  0  0  0  0  0  0  0  0  0  0
   25.3251    4.7997   31.1026 C   0  0  0  0  0  0  0  0  0  0  0  0
   25.5192    3.7018   31.9467 C   0  0  0  0  0  0  0  0  0  0  0  0
   27.2764    3.3693   32.6393 Br  0  0  0  0  0  0  0  0  0  0  0  0
   24.4415    2.8573   32.2641 C   0  0  0  0  0  0  0  0  0  0  0  0
   24.6705    1.7846   33.0973 O   0  0  0  0  0  0  0  0  0  0  0  0
   23.6706    0.7561   33.1184 C   0  0  0  0  0  0  0  0  0  0  0  0
   23.4706    0.3930   32.1055 H   0  0  0  0  0  0  0  0  0  0  0  0
   24.0216   -0.0868   33.7226 H   0  0  0  0  0  0  0  0  0  0  0  0
   22.7380    1.1291   33.5519 H   0  0  0  0  0  0  0  0  0  0  0  0
   23.1716    3.1524   31.7317 C   0  0  0  0  0  0  0  0  0  0  0  0
   22.3361    2.5073   31.9839 H   0  0  0  0  0  0  0  0  0  0  0  0
   22.9737    4.2631   30.8958 C   0  0  0  0  0  0  0  0  0  0  0  0
   21.5903    4.5785   30.3682 C   0  0  0  0  0  0  0  0  0  0  0  0
   21.6590    4.8770   29.3200 H   0  0  0  0  0  0  0  0  0  0  0  0
   20.9408    3.7094   30.4447 H   0  0  0  0  0  0  0  0  0  0  0  0
   20.9565    5.7248   31.1236 C   0  0  0  0  0  0  0  0  0  0  0  0
   19.7722    5.6945   31.4322 O   0  0  0  0  0  0  0  0  0  0  0  0
   21.6843    6.8614   31.2909 N   0  0  0  0  0  0  0  0  0  0  0  0
   22.5694    6.9490   30.8090 H   0  0  0  0  0  0  0  0  0  0  0  0
   21.1652    8.0179   31.7275 C   0  0  0  0  0  0  0  0  0  0  0  0
   21.9200    9.0266   31.3753 N   0  0  0  0  0  0  0  0  0  0  0  0
   21.5080   10.2281   31.7163 C   0  0  0  0  0  0  0  0  0  0  0  0
   22.2443   11.2686   31.2664 N   0  0  0  0  0  0  0  0  0  0  0  0
   21.8450   12.1911   31.2790 H   0  0  0  0  0  0  0  0  0  0  0  0
   23.4770   11.1372   30.7262 C   0  0  0  0  0  0  0  0  0  0  0  0
   24.1471   10.1268   30.8918 O   0  0  0  0  0  0  0  0  0  0  0  0
   23.8744   12.2718   30.1312 O   0  0  0  0  0  0  0  0  0  0  0  0
   25.2363   12.3382   29.7141 C   0  0  0  0  0  0  0  0  0  0  0  0
   25.8908   12.0380   30.5282 H   0  0  0  0  0  0  0  0  0  0  0  0
   25.4700   13.3799   29.4807 H   0  0  0  0  0  0  0  0  0  0  0  0
   25.4811   11.4781   28.4806 C   0  0  0  0  0  0  0  0  0  0  0  0
   25.2321   10.4276   28.6523 H   0  0  0  0  0  0  0  0  0  0  0  0
   24.8741   11.8536   27.6553 H   0  0  0  0  0  0  0  0  0  0  0  0
   26.5314   11.5309   28.1897 H   0  0  0  0  0  0  0  0  0  0  0  0
   20.3656   10.4731   32.4408 C   0  0  0  0  0  0  0  0  0  0  0  0
   19.9991   11.7949   32.8243 C   0  0  0  0  0  0  0  0  0  0  0  0
   19.7597   12.8822   33.1566 N   0  0  0  0  0  0  0  0  0  0  0  0
   19.6176    9.3908   32.7985 C   0  0  0  0  0  0  0  0  0  0  0  0
   18.4757    9.5322   33.5107 N   0  0  0  0  0  0  0  0  0  0  0  0
   18.2372   10.4523   33.8783 H   0  0  0  0  0  0  0  0  0  0  0  0
   18.0085    8.6949   33.8519 H   0  0  0  0  0  0  0  0  0  0  0  0
   19.9953    8.1414   32.4305 C   0  0  0  0  0  0  0  0  0  0  0  0
   19.3811    7.2982   32.6828 H   0  0  0  0  0  0  0  0  0  0  0  0
   24.0600    5.0999   30.5755 C   0  0  0  0  0  0  0  0  0  0  0  0
   23.8398    6.1949   29.7685 O   0  0  0  0  0  0  0  0  0  0  0  0
   24.9312    7.1103   29.6063 C   0  0  0  0  0  0  0  0  0  0  0  0
   25.7697    6.6244   29.0983 H   0  0  0  0  0  0  0  0  0  0  0  0
   24.6086    7.9669   29.0069 H   0  0  0  0  0  0  0  0  0  0  0  0
   25.2711    7.4750   30.5801 H   0  0  0  0  0  0  0  0  0  0  0  0
  1  2  1  0
  2  3  2  0
  3  4  1  0
  3  5  1  0
  5  6  1  0
  6  7  1  0
  7  8  1  0
  7  9  1  0
  7 10  1  0
  5 11  2  0
 11 12  1  0
 11 13  1  0
 13 14  1  0
 14 15  1  0
 14 16  1  0
 14 17  1  0
 17 18  2  0
 17 19  1  0
 19 20  1  0
 19 21  1  0
 21 22  2  0
 22 23  1  0
 23 24  1  0
 24 25  1  0
 24 26  1  0
 26 27  2  0
 26 28  1  0
 28 29  1  0
 29 30  1  0
 29 31  1  0
 29 32  1  0
 32 33  1  0
 32 34  1  0
 32 35  1  0
 23 36  2  0
 36 37  1  0
 37 38  3  0
 36 39  1  0
 39 40  1  0
 40 41  1  0
 40 42  1  0
 39 43  2  0
 43 44  1  0
 13 45  2  0
 45 46  1  0
 46 47  1  0
 47 48  1  0
 47 49  1  0
 47 50  1  0
 45  2  1  0
 43 21  1  0
M  END
>  <score>  (262) 
7.60649

$$$$

     RDKit          3D

 55 57  0  0  0  0  0  0  0  0999 V2000
   26.0888    5.5070   30.9279 H   0  0  0  0  0  0  0  0  0  0  0  0
   25.2709    4.8298   31.1452 C   0  0  0  0  0  0  0  0  0  0  0  0
   25.4843    3.7209   31.9664 C   0  0  0  0  0  0  0  0  0  0  0  0
   27.2255    3.4369   32.7044 Br  0  0  0  0  0  0  0  0  0  0  0  0
   24.4300    2.8373   32.2412 C   0  0  0  0  0  0  0  0  0  0  0  0
   24.6632    1.7465   33.0445 O   0  0  0  0  0  0  0  0  0  0  0  0
   23.6180    0.7649   33.0900 C   0  0  0  0  0  0  0  0  0  0  0  0
   23.9315   -0.0807   33.7094 H   0  0  0  0  0  0  0  0  0  0  0  0
   22.7079    1.1954   33.5203 H   0  0  0  0  0  0  0  0  0  0  0  0
   23.3935    0.3955   32.0830 H   0  0  0  0  0  0  0  0  0  0  0  0
   23.1667    3.1063   31.6940 C   0  0  0  0  0  0  0  0  0  0  0  0
   22.3433    2.4361   31.9247 H   0  0  0  0  0  0  0  0  0  0  0  0
   22.9500    4.2248   30.8834 C   0  0  0  0  0  0  0  0  0  0  0  0
   21.5490    4.5027   30.4102 C   0  0  0  0  0  0  0  0  0  0  0  0
   21.5468    4.7400   29.3445 H   0  0  0  0  0  0  0  0  0  0  0  0
   20.9250    3.6185   30.5625 H   0  0  0  0  0  0  0  0  0  0  0  0
   20.9622    5.6659   31.1939 C   0  0  0  0  0  0  0  0  0  0  0  0
   19.8128    5.6139   31.5950 O   0  0  0  0  0  0  0  0  0  0  0  0
   21.6944    6.8087   31.3620 N   0  0  0  0  0  0  0  0  0  0  0  0
   22.5209    6.9205   30.7943 H   0  0  0  0  0  0  0  0  0  0  0  0
   21.1597    7.9633   31.8089 C   0  0  0  0  0  0  0  0  0  0  0  0
   21.7518    9.0314   31.2998 N   0  0  0  0  0  0  0  0  0  0  0  0
   21.3466   10.3099   31.5945 C   0  0  0  0  0  0  0  0  0  0  0  0
   22.1710   11.8387   30.7791 S   0  0  0  0  0  0  0  0  0  0  0  0
   21.1969   12.7194   30.0932 O   0  0  0  0  0  0  0  0  0  0  0  0
   22.9563   12.6583   31.7268 O   0  0  0  0  0  0  0  0  0  0  0  0
   23.2996   11.2395   29.5430 N   0  0  0  0  0  0  0  0  0  0  0  0
   24.4934   12.0483   29.2109 C   0  0  0  0  0  0  0  0  0  0  0  0
   24.1792   12.9853   28.7467 H   0  0  0  0  0  0  0  0  0  0  0  0
   25.0737   12.2980   30.1056 H   0  0  0  0  0  0  0  0  0  0  0  0
   25.4027   11.2862   28.2219 C   0  0  0  0  0  0  0  0  0  0  0  0
   25.8334   10.4133   28.7232 H   0  0  0  0  0  0  0  0  0  0  0  0
   26.2228   11.9373   27.9052 H   0  0  0  0  0  0  0  0  0  0  0  0
   24.6762   10.8444   27.0616 O   0  0  0  0  0  0  0  0  0  0  0  0
   23.5883    9.9800   27.4309 C   0  0  0  0  0  0  0  0  0  0  0  0
   23.0749    9.6206   26.5348 H   0  0  0  0  0  0  0  0  0  0  0  0
   23.9848    9.1081   27.9530 H   0  0  0  0  0  0  0  0  0  0  0  0
   22.5992   10.6971   28.3677 C   0  0  0  0  0  0  0  0  0  0  0  0
   21.8319    9.9816   28.6762 H   0  0  0  0  0  0  0  0  0  0  0  0
   22.0980   11.5218   27.8526 H   0  0  0  0  0  0  0  0  0  0  0  0
   20.2592   10.4285   32.5012 C   0  0  0  0  0  0  0  0  0  0  0  0
   19.7701   11.6985   32.9418 C   0  0  0  0  0  0  0  0  0  0  0  0
   19.4176   12.7454   33.3104 N   0  0  0  0  0  0  0  0  0  0  0  0
   19.6447    9.2730   32.9810 C   0  0  0  0  0  0  0  0  0  0  0  0
   18.5238    9.2622   33.7472 N   0  0  0  0  0  0  0  0  0  0  0  0
   17.8823   10.0308   33.5910 H   0  0  0  0  0  0  0  0  0  0  0  0
   18.1112    8.3453   33.8794 H   0  0  0  0  0  0  0  0  0  0  0  0
   20.0941    8.0363   32.6520 C   0  0  0  0  0  0  0  0  0  0  0  0
   19.6097    7.1540   33.0297 H   0  0  0  0  0  0  0  0  0  0  0  0
   24.0119    5.1056   30.5964 C   0  0  0  0  0  0  0  0  0  0  0  0
   23.7915    6.2298   29.8300 O   0  0  0  0  0  0  0  0  0  0  0  0
   24.9347    7.0792   29.6390 C   0  0  0  0  0  0  0  0  0  0  0  0
   25.3150    7.4329   30.6035 H   0  0  0  0  0  0  0  0  0  0  0  0
   25.7318    6.5330   29.1236 H   0  0  0  0  0  0  0  0  0  0  0  0
   24.6677    7.9478   29.0367 H   0  0  0  0  0  0  0  0  0  0  0  0
  1  2  1  0
  2  3  2  0
  3  4  1  0
  3  5  1  0
  5  6  1  0
  6  7  1  0
  7  8  1  0
  7  9  1  0
  7 10  1  0
  5 11  2  0
 11 12  1  0
 11 13  1  0
 13 14  1  0
 14 15  1  0
 14 16  1  0
 14 17  1  0
 17 18  2  0
 17 19  1  0
 19 20  1  0
 19 21  1  0
 21 22  2  0
 22 23  1  0
 23 24  1  0
 24 25  2  0
 24 26  2  0
 24 27  1  0
 27 28  1  0
 28 29  1  0
 28 30  1  0
 28 31  1  0
 31 32  1  0
 31 33  1  0
 31 34  1  0
 34 35  1  0
 35 36  1  0
 35 37  1  0
 35 38  1  0
 38 39  1  0
 38 40  1  0
 23 41  2  0
 41 42  1  0
 42 43  3  0
 41 44  1  0
 44 45  1  0
 45 46  1  0
 45 47  1  0
 44 48  2  0
 48 49  1  0
 13 50  2  0
 50 51  1  0
 51 52  1  0
 52 53  1  0
 52 54  1  0
 52 55  1  0
 50  2  1  0
 48 21  1  0
 38 27  1  0
M  END
>  <score>  (263) 
7.60909

$$$$

     RDKit          3D

 51 53  0  0  0  0  0  0  0  0999 V2000
   23.8961   12.7528   32.2243 H   0  0  0  0  0  0  0  0  0  0  0  0
   24.6163   12.8368   31.5787 O   0  0  0  0  0  0  0  0  0  0  0  0
   24.3243   12.0862   30.4693 C   0  0  0  0  0  0  0  0  0  0  0  0
   25.2462   12.1062   29.4269 C   0  0  0  0  0  0  0  0  0  0  0  0
   26.1456   12.6994   29.5347 H   0  0  0  0  0  0  0  0  0  0  0  0
   25.0149   11.3842   28.2554 C   0  0  0  0  0  0  0  0  0  0  0  0
   26.1790   11.4350   26.9486 Cl  0  0  0  0  0  0  0  0  0  0  0  0
   23.8324   10.6408   28.1285 C   0  0  0  0  0  0  0  0  0  0  0  0
   23.6412   10.1070   27.2000 H   0  0  0  0  0  0  0  0  0  0  0  0
   22.8994   10.5991   29.1806 C   0  0  0  0  0  0  0  0  0  0  0  0
   21.9696   10.0375   29.0923 H   0  0  0  0  0  0  0  0  0  0  0  0
   23.1400   11.3134   30.3657 C   0  0  0  0  0  0  0  0  0  0  0  0
   22.2093   11.3256   31.3872 O   0  0  0  0  0  0  0  0  0  0  0  0
   21.4018   10.2402   31.6548 C   0  0  0  0  0  0  0  0  0  0  0  0
   21.7678    9.0099   31.2890 N   0  0  0  0  0  0  0  0  0  0  0  0
   21.0293    7.9999   31.6882 C   0  0  0  0  0  0  0  0  0  0  0  0
   21.6087    6.8382   31.3390 N   0  0  0  0  0  0  0  0  0  0  0  0
   22.4869    6.9533   30.8584 H   0  0  0  0  0  0  0  0  0  0  0  0
   20.9289    5.6749   31.1335 C   0  0  0  0  0  0  0  0  0  0  0  0
   19.7363    5.6083   31.3839 O   0  0  0  0  0  0  0  0  0  0  0  0
   21.6091    4.5591   30.3510 C   0  0  0  0  0  0  0  0  0  0  0  0
   21.6967    4.8962   29.3157 H   0  0  0  0  0  0  0  0  0  0  0  0
   20.9840    3.6626   30.3627 H   0  0  0  0  0  0  0  0  0  0  0  0
   22.9882    4.2548   30.8942 C   0  0  0  0  0  0  0  0  0  0  0  0
   23.1778    3.1445   31.7322 C   0  0  0  0  0  0  0  0  0  0  0  0
   22.3439    2.4958   31.9823 H   0  0  0  0  0  0  0  0  0  0  0  0
   24.4410    2.8506   32.2709 C   0  0  0  0  0  0  0  0  0  0  0  0
   24.6681    1.7871   33.1139 O   0  0  0  0  0  0  0  0  0  0  0  0
   23.6843    0.7403   33.1345 C   0  0  0  0  0  0  0  0  0  0  0  0
   23.4901    0.3706   32.1205 H   0  0  0  0  0  0  0  0  0  0  0  0
   24.0554   -0.0957   33.7383 H   0  0  0  0  0  0  0  0  0  0  0  0
   22.7447    1.0915   33.5762 H   0  0  0  0  0  0  0  0  0  0  0  0
   25.5224    3.6845   31.9438 C   0  0  0  0  0  0  0  0  0  0  0  0
   27.2710    3.3254   32.6353 Br  0  0  0  0  0  0  0  0  0  0  0  0
   25.3358    4.7881   31.1024 C   0  0  0  0  0  0  0  0  0  0  0  0
   26.1768    5.4222   30.8452 H   0  0  0  0  0  0  0  0  0  0  0  0
   24.0740    5.0939   30.5730 C   0  0  0  0  0  0  0  0  0  0  0  0
   23.8484    6.1834   29.7580 O   0  0  0  0  0  0  0  0  0  0  0  0
   24.9316    7.1144   29.5917 C   0  0  0  0  0  0  0  0  0  0  0  0
   24.5977    7.9593   28.9800 H   0  0  0  0  0  0  0  0  0  0  0  0
   25.2600    7.5034   30.5634 H   0  0  0  0  0  0  0  0  0  0  0  0
   25.7837    6.6428   29.0864 H   0  0  0  0  0  0  0  0  0  0  0  0
   19.8793    8.1222   32.4188 C   0  0  0  0  0  0  0  0  0  0  0  0
   19.2986    7.2716   32.7401 H   0  0  0  0  0  0  0  0  0  0  0  0
   19.5379    9.3741   32.8062 C   0  0  0  0  0  0  0  0  0  0  0  0
   18.4835    9.4896   33.6383 N   0  0  0  0  0  0  0  0  0  0  0  0
   18.1772   10.4180   33.9106 H   0  0  0  0  0  0  0  0  0  0  0  0
   17.9443    8.6580   33.8763 H   0  0  0  0  0  0  0  0  0  0  0  0
   20.2775   10.4651   32.4307 C   0  0  0  0  0  0  0  0  0  0  0  0
   19.9543   11.7842   32.8628 C   0  0  0  0  0  0  0  0  0  0  0  0
   19.7131   12.8671   33.2177 N   0  0  0  0  0  0  0  0  0  0  0  0
  1  2  1  0
  2  3  1  0
  3  4  2  0
  4  5  1  0
  4  6  1  0
  6  7  1  0
  6  8  2  0
  8  9  1  0
  8 10  1  0
 10 11  1  0
 10 12  2  0
 12 13  1  0
 13 14  1  0
 14 15  2  0
 15 16  1  0
 16 17  1  0
 17 18  1  0
 17 19  1  0
 19 20  2  0
 19 21  1  0
 21 22  1  0
 21 23  1  0
 21 24  1  0
 24 25  2  0
 25 26  1  0
 25 27  1  0
 27 28  1  0
 28 29  1  0
 29 30  1  0
 29 31  1  0
 29 32  1  0
 27 33  2  0
 33 34  1  0
 33 35  1  0
 35 36  1  0
 35 37  2  0
 37 38  1  0
 38 39  1  0
 39 40  1  0
 39 41  1  0
 39 42  1  0
 16 43  2  0
 43 44  1  0
 43 45  1  0
 45 46  1  0
 46 47  1  0
 46 48  1  0
 45 49  2  0
 49 50  1  0
 50 51  3  0
 12  3  1  0
 49 14  1  0
 37 24  1  0
M  END
>  <score>  (264) 
7.61138

$$$$

     RDKit          3D

 49 51  0  0  0  0  0  0  0  0999 V2000
   26.1276    5.4913   30.8951 H   0  0  0  0  0  0  0  0  0  0  0  0
   25.3019    4.8274   31.1215 C   0  0  0  0  0  0  0  0  0  0  0  0
   25.5119    3.7218   31.9484 C   0  0  0  0  0  0  0  0  0  0  0  0
   27.2624    3.4400   32.6743 Br  0  0  0  0  0  0  0  0  0  0  0  0
   24.4466    2.8571   32.2462 C   0  0  0  0  0  0  0  0  0  0  0  0
   24.6724    1.7731   33.0606 O   0  0  0  0  0  0  0  0  0  0  0  0
   23.6345    0.7839   33.0881 C   0  0  0  0  0  0  0  0  0  0  0  0
   23.4224    0.4256   32.0757 H   0  0  0  0  0  0  0  0  0  0  0  0
   23.9463   -0.0677   33.6992 H   0  0  0  0  0  0  0  0  0  0  0  0
   22.7173    1.2017   33.5141 H   0  0  0  0  0  0  0  0  0  0  0  0
   23.1781    3.1400   31.7133 C   0  0  0  0  0  0  0  0  0  0  0  0
   22.3495    2.4817   31.9562 H   0  0  0  0  0  0  0  0  0  0  0  0
   22.9697    4.2502   30.8872 C   0  0  0  0  0  0  0  0  0  0  0  0
   21.5798    4.5293   30.3716 C   0  0  0  0  0  0  0  0  0  0  0  0
   21.6077    4.7354   29.2988 H   0  0  0  0  0  0  0  0  0  0  0  0
   20.9324    3.6619   30.5334 H   0  0  0  0  0  0  0  0  0  0  0  0
   20.9809    5.7289   31.0882 C   0  0  0  0  0  0  0  0  0  0  0  0
   19.8450    5.6425   31.5241 O   0  0  0  0  0  0  0  0  0  0  0  0
   21.6664    6.9069   31.1912 N   0  0  0  0  0  0  0  0  0  0  0  0
   22.5743    6.9916   30.7651 H   0  0  0  0  0  0  0  0  0  0  0  0
   21.1054    8.0728   31.5911 C   0  0  0  0  0  0  0  0  0  0  0  0
   21.8173    9.1200   31.2272 N   0  0  0  0  0  0  0  0  0  0  0  0
   21.4087   10.3412   31.5953 C   0  0  0  0  0  0  0  0  0  0  0  0
   22.2021   11.4997   31.0223 C   0  0  0  0  0  0  0  0  0  0  0  0
   23.1031   11.1077   30.5422 H   0  0  0  0  0  0  0  0  0  0  0  0
   22.5561   12.7145   31.8848 C   0  0  0  0  0  0  0  0  0  0  0  0
   23.6240   12.8679   32.0577 H   0  0  0  0  0  0  0  0  0  0  0  0
   22.0318   12.7503   32.8420 H   0  0  0  0  0  0  0  0  0  0  0  0
   21.9811   13.6424   30.8309 C   0  0  0  0  0  0  0  0  0  0  0  0
   22.7486   14.1851   30.2716 H   0  0  0  0  0  0  0  0  0  0  0  0
   21.2390   14.3534   31.2026 H   0  0  0  0  0  0  0  0  0  0  0  0
   21.4259   12.4337   30.0888 C   0  0  0  0  0  0  0  0  0  0  0  0
   21.6803   12.3708   29.0249 H   0  0  0  0  0  0  0  0  0  0  0  0
   20.3447   12.3348   30.1947 H   0  0  0  0  0  0  0  0  0  0  0  0
   20.2694   10.5151   32.3776 C   0  0  0  0  0  0  0  0  0  0  0  0
   19.8204   11.7968   32.8141 C   0  0  0  0  0  0  0  0  0  0  0  0
   19.4040   12.8202   33.1796 N   0  0  0  0  0  0  0  0  0  0  0  0
   19.5477    9.3942   32.6934 C   0  0  0  0  0  0  0  0  0  0  0  0
   18.4320    9.4393   33.4505 N   0  0  0  0  0  0  0  0  0  0  0  0
   18.4081   10.1567   34.1666 H   0  0  0  0  0  0  0  0  0  0  0  0
   17.9742    8.5460   33.6175 H   0  0  0  0  0  0  0  0  0  0  0  0
   19.9472    8.1614   32.3054 C   0  0  0  0  0  0  0  0  0  0  0  0
   19.3742    7.2982   32.5991 H   0  0  0  0  0  0  0  0  0  0  0  0
   24.0380    5.1137   30.5868 C   0  0  0  0  0  0  0  0  0  0  0  0
   23.8101    6.2241   29.8047 O   0  0  0  0  0  0  0  0  0  0  0  0
   24.9376    7.0897   29.6186 C   0  0  0  0  0  0  0  0  0  0  0  0
   25.7494    6.5507   29.1198 H   0  0  0  0  0  0  0  0  0  0  0  0
   24.6558    7.9470   29.0025 H   0  0  0  0  0  0  0  0  0  0  0  0
   25.3010    7.4575   30.5841 H   0  0  0  0  0  0  0  0  0  0  0  0
  1  2  1  0
  2  3  2  0
  3  4  1  0
  3  5  1  0
  5  6  1  0
  6  7  1  0
  7  8  1  0
  7  9  1  0
  7 10  1  0
  5 11  2  0
 11 12  1  0
 11 13  1  0
 13 14  1  0
 14 15  1  0
 14 16  1  0
 14 17  1  0
 17 18  2  0
 17 19  1  0
 19 20  1  0
 19 21  1  0
 21 22  2  0
 22 23  1  0
 23 24  1  0
 24 25  1  0
 24 26  1  0
 26 27  1  0
 26 28  1  0
 26 29  1  0
 29 30  1  0
 29 31  1  0
 29 32  1  0
 32 33  1  0
 32 34  1  0
 23 35  2  0
 35 36  1  0
 36 37  3  0
 35 38  1  0
 38 39  1  0
 39 40  1  0
 39 41  1  0
 38 42  2  0
 42 43  1  0
 13 44  2  0
 44 45  1  0
 45 46  1  0
 46 47  1  0
 46 48  1  0
 46 49  1  0
 44  2  1  0
 42 21  1  0
 32 24  1  0
M  END
>  <score>  (265) 
7.61182

$$$$

     RDKit          3D

 54 56  0  0  0  0  0  0  0  0999 V2000
   23.1419   13.0697   29.6475 H   0  0  0  0  0  0  0  0  0  0  0  0
   23.7930   12.2223   29.8345 C   0  0  0  0  0  0  0  0  0  0  0  0
   25.0594   12.1571   29.2444 C   0  0  0  0  0  0  0  0  0  0  0  0
   25.4202   12.9518   28.5965 H   0  0  0  0  0  0  0  0  0  0  0  0
   25.9012   11.0688   29.4845 C   0  0  0  0  0  0  0  0  0  0  0  0
   27.1356   11.1037   28.8872 O   0  0  0  0  0  0  0  0  0  0  0  0
   28.0877   10.0953   29.2581 C   0  0  0  0  0  0  0  0  0  0  0  0
   28.3914   10.2222   30.2998 H   0  0  0  0  0  0  0  0  0  0  0  0
   28.9820   10.1833   28.6362 H   0  0  0  0  0  0  0  0  0  0  0  0
   27.6869    9.0879   29.1130 H   0  0  0  0  0  0  0  0  0  0  0  0
   25.4605   10.0342   30.3281 C   0  0  0  0  0  0  0  0  0  0  0  0
   26.1299    9.2081   30.5548 H   0  0  0  0  0  0  0  0  0  0  0  0
   24.1740   10.0950   30.8981 C   0  0  0  0  0  0  0  0  0  0  0  0
   23.8254    9.3075   31.5562 H   0  0  0  0  0  0  0  0  0  0  0  0
   23.3310   11.1967   30.6541 C   0  0  0  0  0  0  0  0  0  0  0  0
   22.0825   11.3691   31.2070 O   0  0  0  0  0  0  0  0  0  0  0  0
   21.3742   10.2707   31.6118 C   0  0  0  0  0  0  0  0  0  0  0  0
   21.7245    9.0577   31.1814 N   0  0  0  0  0  0  0  0  0  0  0  0
   21.0199    8.0283   31.5783 C   0  0  0  0  0  0  0  0  0  0  0  0
   21.5275    6.8936   31.0879 N   0  0  0  0  0  0  0  0  0  0  0  0
   22.3347    7.0183   30.4931 H   0  0  0  0  0  0  0  0  0  0  0  0
   20.9232    5.6749   31.1411 C   0  0  0  0  0  0  0  0  0  0  0  0
   19.8412    5.5473   31.6939 O   0  0  0  0  0  0  0  0  0  0  0  0
   21.5441    4.5177   30.3790 C   0  0  0  0  0  0  0  0  0  0  0  0
   20.9317    3.6261   30.5275 H   0  0  0  0  0  0  0  0  0  0  0  0
   21.5499    4.7527   29.3106 H   0  0  0  0  0  0  0  0  0  0  0  0
   22.9470    4.2613   30.8735 C   0  0  0  0  0  0  0  0  0  0  0  0
   23.1637    3.1522   31.6981 C   0  0  0  0  0  0  0  0  0  0  0  0
   22.3367    2.4938   31.9441 H   0  0  0  0  0  0  0  0  0  0  0  0
   24.4296    2.8729   32.2357 C   0  0  0  0  0  0  0  0  0  0  0  0
   24.6497    1.7907   33.0557 O   0  0  0  0  0  0  0  0  0  0  0  0
   23.6125    0.7986   33.0781 C   0  0  0  0  0  0  0  0  0  0  0  0
   22.6903    1.2104   33.5004 H   0  0  0  0  0  0  0  0  0  0  0  0
   23.9250   -0.0541   33.6882 H   0  0  0  0  0  0  0  0  0  0  0  0
   23.4044    0.4420   32.0642 H   0  0  0  0  0  0  0  0  0  0  0  0
   25.4923    3.7412   31.9426 C   0  0  0  0  0  0  0  0  0  0  0  0
   27.2383    3.4566   32.6801 Br  0  0  0  0  0  0  0  0  0  0  0  0
   25.2793    4.8485   31.1162 C   0  0  0  0  0  0  0  0  0  0  0  0
   26.1061    5.5144   30.8972 H   0  0  0  0  0  0  0  0  0  0  0  0
   24.0142    5.1316   30.5760 C   0  0  0  0  0  0  0  0  0  0  0  0
   23.7903    6.2465   29.7973 O   0  0  0  0  0  0  0  0  0  0  0  0
   24.9218    7.1104   29.6129 C   0  0  0  0  0  0  0  0  0  0  0  0
   24.6377    7.9875   29.0244 H   0  0  0  0  0  0  0  0  0  0  0  0
   25.7243    6.5814   29.0879 H   0  0  0  0  0  0  0  0  0  0  0  0
   25.3017    7.4472   30.5830 H   0  0  0  0  0  0  0  0  0  0  0  0
   19.9455    8.1149   32.4084 C   0  0  0  0  0  0  0  0  0  0  0  0
   19.3981    7.2514   32.7508 H   0  0  0  0  0  0  0  0  0  0  0  0
   19.6117    9.3478   32.8426 C   0  0  0  0  0  0  0  0  0  0  0  0
   18.5822    9.3990   33.6980 N   0  0  0  0  0  0  0  0  0  0  0  0
   18.1480   10.3074   33.8250 H   0  0  0  0  0  0  0  0  0  0  0  0
   18.0052    8.5621   33.7355 H   0  0  0  0  0  0  0  0  0  0  0  0
   20.2957   10.4644   32.4552 C   0  0  0  0  0  0  0  0  0  0  0  0
   19.9504   11.7562   32.9456 C   0  0  0  0  0  0  0  0  0  0  0  0
   19.6971   12.8178   33.3540 N   0  0  0  0  0  0  0  0  0  0  0  0
  1  2  1  0
  2  3  2  0
  3  4  1  0
  3  5  1  0
  5  6  1  0
  6  7  1  0
  7  8  1  0
  7  9  1  0
  7 10  1  0
  5 11  2  0
 11 12  1  0
 11 13  1  0
 13 14  1  0
 13 15  2  0
 15 16  1  0
 16 17  1  0
 17 18  2  0
 18 19  1  0
 19 20  1  0
 20 21  1  0
 20 22  1  0
 22 23  2  0
 22 24  1  0
 24 25  1  0
 24 26  1  0
 24 27  1  0
 27 28  2  0
 28 29  1  0
 28 30  1  0
 30 31  1  0
 31 32  1  0
 32 33  1  0
 32 34  1  0
 32 35  1  0
 30 36  2  0
 36 37  1  0
 36 38  1  0
 38 39  1  0
 38 40  2  0
 40 41  1  0
 41 42  1  0
 42 43  1  0
 42 44  1  0
 42 45  1  0
 19 46  2  0
 46 47  1  0
 46 48  1  0
 48 49  1  0
 49 50  1  0
 49 51  1  0
 48 52  2  0
 52 53  1  0
 53 54  3  0
 15  2  1  0
 52 17  1  0
 40 27  1  0
M  END
>  <score>  (266) 
7.61484

$$$$

     RDKit          3D

 59 61  0  0  0  0  0  0  0  0999 V2000
   26.1402    5.4739   30.8797 H   0  0  0  0  0  0  0  0  0  0  0  0
   25.3056    4.8255   31.1207 C   0  0  0  0  0  0  0  0  0  0  0  0
   25.5040    3.7202   31.9551 C   0  0  0  0  0  0  0  0  0  0  0  0
   27.2571    3.3916   32.6546 Br  0  0  0  0  0  0  0  0  0  0  0  0
   24.4338    2.8633   32.2603 C   0  0  0  0  0  0  0  0  0  0  0  0
   24.6643    1.7795   33.0753 O   0  0  0  0  0  0  0  0  0  0  0  0
   23.6464    0.7702   33.1016 C   0  0  0  0  0  0  0  0  0  0  0  0
   23.9834   -0.0735   33.7112 H   0  0  0  0  0  0  0  0  0  0  0  0
   23.4372    0.4060   32.0906 H   0  0  0  0  0  0  0  0  0  0  0  0
   22.7222    1.1660   33.5326 H   0  0  0  0  0  0  0  0  0  0  0  0
   23.1682    3.1467   31.7225 C   0  0  0  0  0  0  0  0  0  0  0  0
   22.3329    2.4988   31.9722 H   0  0  0  0  0  0  0  0  0  0  0  0
   22.9739    4.2477   30.8792 C   0  0  0  0  0  0  0  0  0  0  0  0
   21.5925    4.5220   30.3447 C   0  0  0  0  0  0  0  0  0  0  0  0
   20.9473    3.6529   30.4771 H   0  0  0  0  0  0  0  0  0  0  0  0
   21.6376    4.7560   29.2781 H   0  0  0  0  0  0  0  0  0  0  0  0
   20.9816    5.6913   31.0857 C   0  0  0  0  0  0  0  0  0  0  0  0
   19.8310    5.6111   31.4890 O   0  0  0  0  0  0  0  0  0  0  0  0
   21.6825    6.8557   31.2072 N   0  0  0  0  0  0  0  0  0  0  0  0
   22.5616    6.9573   30.7244 H   0  0  0  0  0  0  0  0  0  0  0  0
   21.1482    8.0051   31.6492 C   0  0  0  0  0  0  0  0  0  0  0  0
   21.8687    9.0466   31.3188 N   0  0  0  0  0  0  0  0  0  0  0  0
   21.4221   10.2260   31.7042 C   0  0  0  0  0  0  0  0  0  0  0  0
   22.1865   11.2887   31.3217 N   0  0  0  0  0  0  0  0  0  0  0  0
   22.1196   12.1438   31.8489 H   0  0  0  0  0  0  0  0  0  0  0  0
   22.9893   11.2039   30.2038 C   0  0  0  0  0  0  0  0  0  0  0  0
   22.9053   10.2198   29.4837 O   0  0  0  0  0  0  0  0  0  0  0  0
   24.1015   12.2322   29.9456 C   0  0  0  0  0  0  0  0  0  0  0  0
   24.2420   12.7901   30.8734 H   0  0  0  0  0  0  0  0  0  0  0  0
   25.4311   11.5299   29.5920 C   0  0  0  0  0  0  0  0  0  0  0  0
   25.6781   10.7938   30.3612 H   0  0  0  0  0  0  0  0  0  0  0  0
   25.3390   10.9879   28.6449 H   0  0  0  0  0  0  0  0  0  0  0  0
   26.5418   12.5695   29.4707 C   0  0  0  0  0  0  0  0  0  0  0  0
   27.5046   12.0848   29.2931 H   0  0  0  0  0  0  0  0  0  0  0  0
   26.6053   13.1187   30.4056 H   0  0  0  0  0  0  0  0  0  0  0  0
   26.2319   13.5551   28.3488 C   0  0  0  0  0  0  0  0  0  0  0  0
   27.0258   14.3048   28.2834 H   0  0  0  0  0  0  0  0  0  0  0  0
   26.1942   13.0241   27.3943 H   0  0  0  0  0  0  0  0  0  0  0  0
   24.8932   14.2476   28.6151 C   0  0  0  0  0  0  0  0  0  0  0  0
   24.9947   14.8590   29.5147 H   0  0  0  0  0  0  0  0  0  0  0  0
   24.6520   14.9119   27.7780 H   0  0  0  0  0  0  0  0  0  0  0  0
   23.7528   13.2370   28.8249 C   0  0  0  0  0  0  0  0  0  0  0  0
   22.8308   13.7758   29.0718 H   0  0  0  0  0  0  0  0  0  0  0  0
   23.5827   12.6997   27.8872 H   0  0  0  0  0  0  0  0  0  0  0  0
   20.2854   10.4095   32.4557 C   0  0  0  0  0  0  0  0  0  0  0  0
   19.8863   11.7068   32.8886 C   0  0  0  0  0  0  0  0  0  0  0  0
   19.6356   12.7814   33.2501 N   0  0  0  0  0  0  0  0  0  0  0  0
   19.5556    9.2948   32.7374 C   0  0  0  0  0  0  0  0  0  0  0  0
   18.4029    9.3304   33.4255 N   0  0  0  0  0  0  0  0  0  0  0  0
   18.4011    9.9590   34.2214 H   0  0  0  0  0  0  0  0  0  0  0  0
   17.8974    8.4525   33.5004 H   0  0  0  0  0  0  0  0  0  0  0  0
   19.9815    8.0742   32.3496 C   0  0  0  0  0  0  0  0  0  0  0  0
   19.4140    7.2050   32.6194 H   0  0  0  0  0  0  0  0  0  0  0  0
   24.0441    5.1146   30.5837 C   0  0  0  0  0  0  0  0  0  0  0  0
   23.8180    6.2246   29.7976 O   0  0  0  0  0  0  0  0  0  0  0  0
   24.9263    7.1164   29.6085 C   0  0  0  0  0  0  0  0  0  0  0  0
   25.7503    6.6023   29.1046 H   0  0  0  0  0  0  0  0  0  0  0  0
   25.2845    7.4922   30.5716 H   0  0  0  0  0  0  0  0  0  0  0  0
   24.6199    7.9688   28.9945 H   0  0  0  0  0  0  0  0  0  0  0  0
  1  2  1  0
  2  3  2  0
  3  4  1  0
  3  5  1  0
  5  6  1  0
  6  7  1  0
  7  8  1  0
  7  9  1  0
  7 10  1  0
  5 11  2  0
 11 12  1  0
 11 13  1  0
 13 14  1  0
 14 15  1  0
 14 16  1  0
 14 17  1  0
 17 18  2  0
 17 19  1  0
 19 20  1  0
 19 21  1  0
 21 22  2  0
 22 23  1  0
 23 24  1  0
 24 25  1  0
 24 26  1  0
 26 27  2  0
 26 28  1  0
 28 29  1  0
 28 30  1  0
 30 31  1  0
 30 32  1  0
 30 33  1  0
 33 34  1  0
 33 35  1  0
 33 36  1  0
 36 37  1  0
 36 38  1  0
 36 39  1  0
 39 40  1  0
 39 41  1  0
 39 42  1  0
 42 43  1  0
 42 44  1  0
 23 45  2  0
 45 46  1  0
 46 47  3  0
 45 48  1  0
 48 49  1  0
 49 50  1  0
 49 51  1  0
 48 52  2  0
 52 53  1  0
 13 54  2  0
 54 55  1  0
 55 56  1  0
 56 57  1  0
 56 58  1  0
 56 59  1  0
 54  2  1  0
 52 21  1  0
 42 28  1  0
M  END
>  <score>  (267) 
7.61764

$$$$

     RDKit          3D

 53 55  0  0  0  0  0  0  0  0999 V2000
   22.0821   14.1733   29.4178 H   0  0  0  0  0  0  0  0  0  0  0  0
   22.5048   13.3558   29.9914 C   0  0  0  0  0  0  0  0  0  0  0  0
   21.6742   12.3816   30.5593 C   0  0  0  0  0  0  0  0  0  0  0  0
   20.5974   12.4676   30.4274 H   0  0  0  0  0  0  0  0  0  0  0  0
   22.2386   11.2926   31.2452 C   0  0  0  0  0  0  0  0  0  0  0  0
   21.4015   10.1870   31.7223 C   0  0  0  0  0  0  0  0  0  0  0  0
   21.8040    8.9531   31.4140 N   0  0  0  0  0  0  0  0  0  0  0  0
   21.0505    7.9386   31.7674 C   0  0  0  0  0  0  0  0  0  0  0  0
   21.6222    6.7860   31.3698 N   0  0  0  0  0  0  0  0  0  0  0  0
   22.4827    6.9179   30.8570 H   0  0  0  0  0  0  0  0  0  0  0  0
   20.9208    5.6397   31.1306 C   0  0  0  0  0  0  0  0  0  0  0  0
   19.7297    5.5686   31.3956 O   0  0  0  0  0  0  0  0  0  0  0  0
   21.6048    4.5362   30.3387 C   0  0  0  0  0  0  0  0  0  0  0  0
   21.6891    4.8735   29.3020 H   0  0  0  0  0  0  0  0  0  0  0  0
   20.9872    3.6365   30.3597 H   0  0  0  0  0  0  0  0  0  0  0  0
   22.9862    4.2410   30.8837 C   0  0  0  0  0  0  0  0  0  0  0  0
   23.1796    3.1372   31.7302 C   0  0  0  0  0  0  0  0  0  0  0  0
   22.3439    2.4907   31.9816 H   0  0  0  0  0  0  0  0  0  0  0  0
   24.4456    2.8498   32.2701 C   0  0  0  0  0  0  0  0  0  0  0  0
   24.6712    1.7846   33.1131 O   0  0  0  0  0  0  0  0  0  0  0  0
   23.6821    0.7441   33.1321 C   0  0  0  0  0  0  0  0  0  0  0  0
   22.7441    1.1019   33.5676 H   0  0  0  0  0  0  0  0  0  0  0  0
   24.0454   -0.0952   33.7344 H   0  0  0  0  0  0  0  0  0  0  0  0
   23.4847    0.3786   32.1193 H   0  0  0  0  0  0  0  0  0  0  0  0
   25.5248    3.6894   31.9459 C   0  0  0  0  0  0  0  0  0  0  0  0
   27.2768    3.3386   32.6391 Br  0  0  0  0  0  0  0  0  0  0  0  0
   25.3331    4.7903   31.1019 C   0  0  0  0  0  0  0  0  0  0  0  0
   26.1758    5.4254   30.8510 H   0  0  0  0  0  0  0  0  0  0  0  0
   24.0693    5.0877   30.5704 C   0  0  0  0  0  0  0  0  0  0  0  0
   23.8453    6.1820   29.7614 O   0  0  0  0  0  0  0  0  0  0  0  0
   24.9308    7.1080   29.5950 C   0  0  0  0  0  0  0  0  0  0  0  0
   25.7768    6.6340   29.0871 H   0  0  0  0  0  0  0  0  0  0  0  0
   24.5989    7.9584   28.9912 H   0  0  0  0  0  0  0  0  0  0  0  0
   25.2701    7.4858   30.5647 H   0  0  0  0  0  0  0  0  0  0  0  0
   19.8690    8.0677   32.4468 C   0  0  0  0  0  0  0  0  0  0  0  0
   19.2785    7.2118   32.7261 H   0  0  0  0  0  0  0  0  0  0  0  0
   19.4904    9.3190   32.8083 C   0  0  0  0  0  0  0  0  0  0  0  0
   18.3975    9.4061   33.5955 N   0  0  0  0  0  0  0  0  0  0  0  0
   17.5717    9.0238   33.1483 H   0  0  0  0  0  0  0  0  0  0  0  0
   18.5705    8.9866   34.5042 H   0  0  0  0  0  0  0  0  0  0  0  0
   20.2409   10.4071   32.4487 C   0  0  0  0  0  0  0  0  0  0  0  0
   19.8788   11.7159   32.8707 C   0  0  0  0  0  0  0  0  0  0  0  0
   19.6332   12.7970   33.2203 N   0  0  0  0  0  0  0  0  0  0  0  0
   23.6261   11.2517   31.4347 C   0  0  0  0  0  0  0  0  0  0  0  0
   24.0614   10.4485   32.0265 H   0  0  0  0  0  0  0  0  0  0  0  0
   24.4391   12.2556   30.9061 C   0  0  0  0  0  0  0  0  0  0  0  0
   25.5037   12.2291   31.0984 H   0  0  0  0  0  0  0  0  0  0  0  0
   23.8950   13.2896   30.1272 C   0  0  0  0  0  0  0  0  0  0  0  0
   24.6669   14.2274   29.4795 O   0  0  0  0  0  0  0  0  0  0  0  0
   26.0661   13.9160   29.3757 C   0  0  0  0  0  0  0  0  0  0  0  0
   26.2325   12.9508   28.8783 H   0  0  0  0  0  0  0  0  0  0  0  0
   26.4841   13.8610   30.3752 H   0  0  0  0  0  0  0  0  0  0  0  0
   26.6086   14.7037   28.8376 H   0  0  0  0  0  0  0  0  0  0  0  0
  1  2  1  0
  2  3  2  0
  3  4  1  0
  3  5  1  0
  5  6  1  0
  6  7  2  0
  7  8  1  0
  8  9  1  0
  9 10  1  0
  9 11  1  0
 11 12  2  0
 11 13  1  0
 13 14  1  0
 13 15  1  0
 13 16  1  0
 16 17  2  0
 17 18  1  0
 17 19  1  0
 19 20  1  0
 20 21  1  0
 21 22  1  0
 21 23  1  0
 21 24  1  0
 19 25  2  0
 25 26  1  0
 25 27  1  0
 27 28  1  0
 27 29  2  0
 29 30  1  0
 30 31  1  0
 31 32  1  0
 31 33  1  0
 31 34  1  0
  8 35  2  0
 35 36  1  0
 35 37  1  0
 37 38  1  0
 38 39  1  0
 38 40  1  0
 37 41  2  0
 41 42  1  0
 42 43  3  0
  5 44  2  0
 44 45  1  0
 44 46  1  0
 46 47  1  0
 46 48  2  0
 48 49  1  0
 49 50  1  0
 50 51  1  0
 50 52  1  0
 50 53  1  0
 48  2  1  0
 41  6  1  0
 29 16  1  0
M  END
>  <score>  (268) 
7.61886

$$$$

     RDKit          3D

 58 60  0  0  0  0  0  0  0  0999 V2000
   26.1590    5.4320   30.8411 H   0  0  0  0  0  0  0  0  0  0  0  0
   25.3153    4.8016   31.0982 C   0  0  0  0  0  0  0  0  0  0  0  0
   25.5087    3.7012   31.9394 C   0  0  0  0  0  0  0  0  0  0  0  0
   27.2613    3.3509   32.6319 Br  0  0  0  0  0  0  0  0  0  0  0  0
   24.4292    2.8635   32.2638 C   0  0  0  0  0  0  0  0  0  0  0  0
   24.6616    1.7940   33.1003 O   0  0  0  0  0  0  0  0  0  0  0  0
   23.6761    0.7513   33.1254 C   0  0  0  0  0  0  0  0  0  0  0  0
   22.7390    1.1086   33.5628 H   0  0  0  0  0  0  0  0  0  0  0  0
   23.4786    0.3829   32.1141 H   0  0  0  0  0  0  0  0  0  0  0  0
   24.0416   -0.0862   33.7293 H   0  0  0  0  0  0  0  0  0  0  0  0
   23.1599    3.1553   31.7288 C   0  0  0  0  0  0  0  0  0  0  0  0
   22.3308    2.4987   31.9751 H   0  0  0  0  0  0  0  0  0  0  0  0
   22.9632    4.2653   30.8867 C   0  0  0  0  0  0  0  0  0  0  0  0
   21.5908    4.5666   30.3225 C   0  0  0  0  0  0  0  0  0  0  0  0
   21.6901    4.8469   29.2683 H   0  0  0  0  0  0  0  0  0  0  0  0
   20.9465    3.6886   30.3813 H   0  0  0  0  0  0  0  0  0  0  0  0
   20.9295    5.7144   31.0731 C   0  0  0  0  0  0  0  0  0  0  0  0
   19.8757    5.5502   31.6686 O   0  0  0  0  0  0  0  0  0  0  0  0
   21.4777    6.9559   30.9871 N   0  0  0  0  0  0  0  0  0  0  0  0
   22.3489    7.0835   30.4923 H   0  0  0  0  0  0  0  0  0  0  0  0
   20.9924    8.0715   31.5544 C   0  0  0  0  0  0  0  0  0  0  0  0
   21.7518    9.0790   31.2232 N   0  0  0  0  0  0  0  0  0  0  0  0
   21.4025   10.2679   31.6787 C   0  0  0  0  0  0  0  0  0  0  0  0
   22.2021   11.3252   31.2915 N   0  0  0  0  0  0  0  0  0  0  0  0
   21.7062   12.1559   30.1896 C   0  0  0  0  0  0  0  0  0  0  0  0
   20.6128   12.2199   30.2188 H   0  0  0  0  0  0  0  0  0  0  0  0
   22.0020   11.7191   29.2273 H   0  0  0  0  0  0  0  0  0  0  0  0
   22.2997   13.5545   30.3328 C   0  0  0  0  0  0  0  0  0  0  0  0
   21.9024   14.0100   31.2438 H   0  0  0  0  0  0  0  0  0  0  0  0
   21.9968   14.1732   29.4867 H   0  0  0  0  0  0  0  0  0  0  0  0
   23.8258   13.5197   30.4415 C   0  0  0  0  0  0  0  0  0  0  0  0
   24.1687   14.5239   30.6767 H   0  0  0  0  0  0  0  0  0  0  0  0
   24.4343   13.0750   29.2256 O   0  0  0  0  0  0  0  0  0  0  0  0
   25.6793   13.7454   28.9738 C   0  0  0  0  0  0  0  0  0  0  0  0
   26.1771   13.3208   28.0992 H   0  0  0  0  0  0  0  0  0  0  0  0
   25.4961   14.8068   28.7815 H   0  0  0  0  0  0  0  0  0  0  0  0
   26.3580   13.6612   29.8290 H   0  0  0  0  0  0  0  0  0  0  0  0
   24.2196   12.5962   31.5829 C   0  0  0  0  0  0  0  0  0  0  0  0
   23.7773   13.0133   32.4886 H   0  0  0  0  0  0  0  0  0  0  0  0
   25.3042   12.5635   31.7104 H   0  0  0  0  0  0  0  0  0  0  0  0
   23.6653   11.1918   31.3471 C   0  0  0  0  0  0  0  0  0  0  0  0
   24.0530   10.7713   30.4123 H   0  0  0  0  0  0  0  0  0  0  0  0
   23.9774   10.5337   32.1633 H   0  0  0  0  0  0  0  0  0  0  0  0
   20.2977   10.4830   32.4655 C   0  0  0  0  0  0  0  0  0  0  0  0
   19.9692   11.8007   32.8867 C   0  0  0  0  0  0  0  0  0  0  0  0
   19.7139   12.8904   33.1952 N   0  0  0  0  0  0  0  0  0  0  0  0
   19.5676    9.3940   32.8315 C   0  0  0  0  0  0  0  0  0  0  0  0
   18.5219    9.4970   33.6736 N   0  0  0  0  0  0  0  0  0  0  0  0
   18.1773   10.4230   33.9066 H   0  0  0  0  0  0  0  0  0  0  0  0
   17.9683    8.6649   33.8633 H   0  0  0  0  0  0  0  0  0  0  0  0
   19.8966    8.1604   32.3724 C   0  0  0  0  0  0  0  0  0  0  0  0
   19.3202    7.2989   32.6585 H   0  0  0  0  0  0  0  0  0  0  0  0
   24.0510    5.1037   30.5704 C   0  0  0  0  0  0  0  0  0  0  0  0
   23.8395    6.1884   29.7459 O   0  0  0  0  0  0  0  0  0  0  0  0
   24.9307    7.1078   29.5927 C   0  0  0  0  0  0  0  0  0  0  0  0
   25.2626    7.4767   30.5683 H   0  0  0  0  0  0  0  0  0  0  0  0
   24.6089    7.9628   28.9915 H   0  0  0  0  0  0  0  0  0  0  0  0
   25.7783    6.6315   29.0893 H   0  0  0  0  0  0  0  0  0  0  0  0
  1  2  1  0
  2  3  2  0
  3  4  1  0
  3  5  1  0
  5  6  1  0
  6  7  1  0
  7  8  1  0
  7  9  1  0
  7 10  1  0
  5 11  2  0
 11 12  1  0
 11 13  1  0
 13 14  1  0
 14 15  1  0
 14 16  1  0
 14 17  1  0
 17 18  2  0
 17 19  1  0
 19 20  1  0
 19 21  1  0
 21 22  2  0
 22 23  1  0
 23 24  1  0
 24 25  1  0
 25 26  1  0
 25 27  1  0
 25 28  1  0
 28 29  1  0
 28 30  1  0
 28 31  1  0
 31 32  1  0
 31 33  1  0
 33 34  1  0
 34 35  1  0
 34 36  1  0
 34 37  1  0
 31 38  1  0
 38 39  1  0
 38 40  1  0
 38 41  1  0
 41 42  1  0
 41 43  1  0
 23 44  2  0
 44 45  1  0
 45 46  3  0
 44 47  1  0
 47 48  1  0
 48 49  1  0
 48 50  1  0
 47 51  2  0
 51 52  1  0
 13 53  2  0
 53 54  1  0
 54 55  1  0
 55 56  1  0
 55 57  1  0
 55 58  1  0
 53  2  1  0
 51 21  1  0
 41 24  1  0
M  END
>  <score>  (269) 
7.62077

$$$$

     RDKit          3D

 52 54  0  0  0  0  0  0  0  0999 V2000
   26.7830   14.7043   29.2021 H   0  0  0  0  0  0  0  0  0  0  0  0
   26.3352   13.9754   29.6586 O   0  0  0  0  0  0  0  0  0  0  0  0
   25.0164   14.1412   29.3749 C   0  0  0  0  0  0  0  0  0  0  0  0
   24.5985   15.0271   28.6436 O   0  0  0  0  0  0  0  0  0  0  0  0
   24.0629   13.2081   30.0022 C   0  0  0  0  0  0  0  0  0  0  0  0
   24.5590   12.1192   30.7299 C   0  0  0  0  0  0  0  0  0  0  0  0
   25.6287   12.0004   30.8426 H   0  0  0  0  0  0  0  0  0  0  0  0
   23.7078   11.1691   31.2822 C   0  0  0  0  0  0  0  0  0  0  0  0
   24.1388   10.3323   31.8239 H   0  0  0  0  0  0  0  0  0  0  0  0
   22.3138   11.2895   31.1550 C   0  0  0  0  0  0  0  0  0  0  0  0
   21.4326   10.2350   31.7073 C   0  0  0  0  0  0  0  0  0  0  0  0
   21.7722    8.9801   31.4053 N   0  0  0  0  0  0  0  0  0  0  0  0
   21.0190    7.9915   31.8148 C   0  0  0  0  0  0  0  0  0  0  0  0
   21.5387    6.8437   31.3582 N   0  0  0  0  0  0  0  0  0  0  0  0
   22.3871    6.9635   30.8229 H   0  0  0  0  0  0  0  0  0  0  0  0
   20.8462    5.6806   31.2114 C   0  0  0  0  0  0  0  0  0  0  0  0
   19.7054    5.5838   31.6320 O   0  0  0  0  0  0  0  0  0  0  0  0
   21.4912    4.5396   30.4387 C   0  0  0  0  0  0  0  0  0  0  0  0
   20.8923    3.6345   30.5696 H   0  0  0  0  0  0  0  0  0  0  0  0
   21.5057    4.7876   29.3750 H   0  0  0  0  0  0  0  0  0  0  0  0
   22.8992    4.2894   30.9276 C   0  0  0  0  0  0  0  0  0  0  0  0
   23.1251    3.1749   31.7449 C   0  0  0  0  0  0  0  0  0  0  0  0
   22.3027    2.5134   31.9984 H   0  0  0  0  0  0  0  0  0  0  0  0
   24.4004    2.8837   32.2570 C   0  0  0  0  0  0  0  0  0  0  0  0
   24.6434    1.7840   33.0470 O   0  0  0  0  0  0  0  0  0  0  0  0
   23.6042    0.7965   33.0747 C   0  0  0  0  0  0  0  0  0  0  0  0
   23.9171   -0.0535   33.6873 H   0  0  0  0  0  0  0  0  0  0  0  0
   23.3892    0.4357   32.0629 H   0  0  0  0  0  0  0  0  0  0  0  0
   22.6884    1.2172   33.5013 H   0  0  0  0  0  0  0  0  0  0  0  0
   25.4609    3.7499   31.9531 C   0  0  0  0  0  0  0  0  0  0  0  0
   27.2216    3.4409   32.6409 Br  0  0  0  0  0  0  0  0  0  0  0  0
   25.2413    4.8634   31.1386 C   0  0  0  0  0  0  0  0  0  0  0  0
   26.0684    5.5248   30.9015 H   0  0  0  0  0  0  0  0  0  0  0  0
   23.9711    5.1560   30.6184 C   0  0  0  0  0  0  0  0  0  0  0  0
   23.7597    6.2783   29.8457 O   0  0  0  0  0  0  0  0  0  0  0  0
   24.9151    7.1064   29.6203 C   0  0  0  0  0  0  0  0  0  0  0  0
   25.7020    6.5334   29.1178 H   0  0  0  0  0  0  0  0  0  0  0  0
   24.6568    7.9635   28.9919 H   0  0  0  0  0  0  0  0  0  0  0  0
   25.3106    7.4813   30.5711 H   0  0  0  0  0  0  0  0  0  0  0  0
   19.8826    8.1477   32.5530 C   0  0  0  0  0  0  0  0  0  0  0  0
   19.2958    7.3102   32.8938 H   0  0  0  0  0  0  0  0  0  0  0  0
   19.5521    9.4240   32.9025 C   0  0  0  0  0  0  0  0  0  0  0  0
   18.4472    9.5685   33.6713 N   0  0  0  0  0  0  0  0  0  0  0  0
   18.0832   10.5127   33.7789 H   0  0  0  0  0  0  0  0  0  0  0  0
   17.7933    8.7862   33.6555 H   0  0  0  0  0  0  0  0  0  0  0  0
   20.3121   10.5032   32.4882 C   0  0  0  0  0  0  0  0  0  0  0  0
   19.9823   11.8367   32.8673 C   0  0  0  0  0  0  0  0  0  0  0  0
   19.7395   12.9332   33.1771 N   0  0  0  0  0  0  0  0  0  0  0  0
   21.8063   12.3807   30.4238 C   0  0  0  0  0  0  0  0  0  0  0  0
   20.7355   12.4772   30.2662 H   0  0  0  0  0  0  0  0  0  0  0  0
   22.6658   13.3299   29.8538 C   0  0  0  0  0  0  0  0  0  0  0  0
   22.2346   14.1462   29.2772 H   0  0  0  0  0  0  0  0  0  0  0  0
  1  2  1  0
  2  3  1  0
  3  4  2  0
  3  5  1  0
  5  6  2  0
  6  7  1  0
  6  8  1  0
  8  9  1  0
  8 10  2  0
 10 11  1  0
 11 12  2  0
 12 13  1  0
 13 14  1  0
 14 15  1  0
 14 16  1  0
 16 17  2  0
 16 18  1  0
 18 19  1  0
 18 20  1  0
 18 21  1  0
 21 22  2  0
 22 23  1  0
 22 24  1  0
 24 25  1  0
 25 26  1  0
 26 27  1  0
 26 28  1  0
 26 29  1  0
 24 30  2  0
 30 31  1  0
 30 32  1  0
 32 33  1  0
 32 34  2  0
 34 35  1  0
 35 36  1  0
 36 37  1  0
 36 38  1  0
 36 39  1  0
 13 40  2  0
 40 41  1  0
 40 42  1  0
 42 43  1  0
 43 44  1  0
 43 45  1  0
 42 46  2  0
 46 47  1  0
 47 48  3  0
 10 49  1  0
 49 50  1  0
 49 51  2  0
 51 52  1  0
 51  5  1  0
 46 11  1  0
 34 21  1  0
M  END
>  <score>  (270) 
7.62231

$$$$

     RDKit          3D

 44 46  0  0  0  0  0  0  0  0999 V2000
   26.1956    5.4079   30.8470 H   0  0  0  0  0  0  0  0  0  0  0  0
   25.3488    4.7771   31.0998 C   0  0  0  0  0  0  0  0  0  0  0  0
   25.5282    3.6719   31.9459 C   0  0  0  0  0  0  0  0  0  0  0  0
   27.2761    3.2942   32.6368 Br  0  0  0  0  0  0  0  0  0  0  0  0
   24.4423    2.8416   32.2738 C   0  0  0  0  0  0  0  0  0  0  0  0
   24.6637    1.7826   33.1278 O   0  0  0  0  0  0  0  0  0  0  0  0
   23.6929    0.7282   33.1463 C   0  0  0  0  0  0  0  0  0  0  0  0
   23.5004    0.3569   32.1361 H   0  0  0  0  0  0  0  0  0  0  0  0
   24.0770   -0.1004   33.7476 H   0  0  0  0  0  0  0  0  0  0  0  0
   22.7522    1.0663   33.5882 H   0  0  0  0  0  0  0  0  0  0  0  0
   23.1810    3.1398   31.7293 C   0  0  0  0  0  0  0  0  0  0  0  0
   22.3440    2.4964   31.9808 H   0  0  0  0  0  0  0  0  0  0  0  0
   22.9947    4.2450   30.8793 C   0  0  0  0  0  0  0  0  0  0  0  0
   21.6142    4.5381   30.3256 C   0  0  0  0  0  0  0  0  0  0  0  0
   21.0167    3.6205   30.3024 H   0  0  0  0  0  0  0  0  0  0  0  0
   21.7226    4.8780   29.2927 H   0  0  0  0  0  0  0  0  0  0  0  0
   20.8908    5.6305   31.1225 C   0  0  0  0  0  0  0  0  0  0  0  0
   19.7070    5.5291   31.3913 O   0  0  0  0  0  0  0  0  0  0  0  0
   21.5482    6.7966   31.3772 N   0  0  0  0  0  0  0  0  0  0  0  0
   22.4607    6.9232   30.9544 H   0  0  0  0  0  0  0  0  0  0  0  0
   20.9665    7.9615   31.7303 C   0  0  0  0  0  0  0  0  0  0  0  0
   21.7238    8.9720   31.3494 N   0  0  0  0  0  0  0  0  0  0  0  0
   21.4178   10.2449   31.6947 C   0  0  0  0  0  0  0  0  0  0  0  0
   22.3374   11.3717   31.2539 C   0  0  0  0  0  0  0  0  0  0  0  0
   23.3859   11.2005   30.3473 N   0  0  0  0  0  0  0  0  0  0  0  0
   23.9731   12.3217   30.1886 N   0  0  0  0  0  0  0  0  0  0  0  0
   23.3089   13.1871   30.9872 N   0  0  0  0  0  0  0  0  0  0  0  0
   23.5736   14.1726   31.0693 H   0  0  0  0  0  0  0  0  0  0  0  0
   22.2794   12.6246   31.6650 N   0  0  0  0  0  0  0  0  0  0  0  0
   20.2783   10.4698   32.4828 C   0  0  0  0  0  0  0  0  0  0  0  0
   19.9299   11.7914   32.9044 C   0  0  0  0  0  0  0  0  0  0  0  0
   19.6841   12.8882   33.2076 N   0  0  0  0  0  0  0  0  0  0  0  0
   19.5136    9.3784   32.8475 C   0  0  0  0  0  0  0  0  0  0  0  0
   18.4447    9.4977   33.6612 N   0  0  0  0  0  0  0  0  0  0  0  0
   17.9175    8.6647   33.8991 H   0  0  0  0  0  0  0  0  0  0  0  0
   18.1372   10.4181   33.9589 H   0  0  0  0  0  0  0  0  0  0  0  0
   19.8280    8.1094   32.4609 C   0  0  0  0  0  0  0  0  0  0  0  0
   19.2276    7.2697   32.7758 H   0  0  0  0  0  0  0  0  0  0  0  0
   24.0871    5.0830   30.5660 C   0  0  0  0  0  0  0  0  0  0  0  0
   23.8656    6.1745   29.7528 O   0  0  0  0  0  0  0  0  0  0  0  0
   24.9304    7.1219   29.5849 C   0  0  0  0  0  0  0  0  0  0  0  0
   25.7819    6.6701   29.0696 H   0  0  0  0  0  0  0  0  0  0  0  0
   24.5740    7.9638   28.9841 H   0  0  0  0  0  0  0  0  0  0  0  0
   25.2646    7.5095   30.5508 H   0  0  0  0  0  0  0  0  0  0  0  0
  1  2  1  0
  2  3  2  0
  3  4  1  0
  3  5  1  0
  5  6  1  0
  6  7  1  0
  7  8  1  0
  7  9  1  0
  7 10  1  0
  5 11  2  0
 11 12  1  0
 11 13  1  0
 13 14  1  0
 14 15  1  0
 14 16  1  0
 14 17  1  0
 17 18  2  0
 17 19  1  0
 19 20  1  0
 19 21  1  0
 21 22  2  0
 22 23  1  0
 23 24  1  0
 24 25  1  0
 25 26  2  0
 26 27  1  0
 27 28  1  0
 27 29  1  0
 23 30  2  0
 30 31  1  0
 31 32  3  0
 30 33  1  0
 33 34  1  0
 34 35  1  0
 34 36  1  0
 33 37  2  0
 37 38  1  0
 13 39  2  0
 39 40  1  0
 40 41  1  0
 41 42  1  0
 41 43  1  0
 41 44  1  0
 39  2  1  0
 37 21  1  0
 29 24  2  0
M  END
>  <score>  (271) 
7.62466

$$$$

     RDKit          3D

 58 60  0  0  0  0  0  0  0  0999 V2000
   26.1859    5.4142   30.8455 H   0  0  0  0  0  0  0  0  0  0  0  0
   25.3422    4.7817   31.1003 C   0  0  0  0  0  0  0  0  0  0  0  0
   25.5244    3.6778   31.9451 C   0  0  0  0  0  0  0  0  0  0  0  0
   27.2722    3.3075   32.6359 Br  0  0  0  0  0  0  0  0  0  0  0  0
   24.4406    2.8459   32.2722 C   0  0  0  0  0  0  0  0  0  0  0  0
   24.6644    1.7844   33.1208 O   0  0  0  0  0  0  0  0  0  0  0  0
   23.6883    0.7336   33.1405 C   0  0  0  0  0  0  0  0  0  0  0  0
   24.0677   -0.0977   33.7435 H   0  0  0  0  0  0  0  0  0  0  0  0
   23.4959    0.3633   32.1281 H   0  0  0  0  0  0  0  0  0  0  0  0
   22.7486    1.0786   33.5831 H   0  0  0  0  0  0  0  0  0  0  0  0
   23.1784    3.1427   31.7318 C   0  0  0  0  0  0  0  0  0  0  0  0
   22.3427    2.4968   31.9815 H   0  0  0  0  0  0  0  0  0  0  0  0
   22.9913    4.2501   30.8876 C   0  0  0  0  0  0  0  0  0  0  0  0
   21.6126    4.5479   30.3375 C   0  0  0  0  0  0  0  0  0  0  0  0
   21.0014    3.6419   30.3330 H   0  0  0  0  0  0  0  0  0  0  0  0
   21.7117    4.8862   29.3037 H   0  0  0  0  0  0  0  0  0  0  0  0
   20.9120    5.6518   31.1283 C   0  0  0  0  0  0  0  0  0  0  0  0
   19.7225    5.5745   31.3914 O   0  0  0  0  0  0  0  0  0  0  0  0
   21.5848    6.8171   31.3664 N   0  0  0  0  0  0  0  0  0  0  0  0
   22.4758    6.9420   30.9109 H   0  0  0  0  0  0  0  0  0  0  0  0
   21.0061    7.9794   31.7245 C   0  0  0  0  0  0  0  0  0  0  0  0
   21.7522    8.9939   31.3375 N   0  0  0  0  0  0  0  0  0  0  0  0
   21.3919   10.2248   31.6966 C   0  0  0  0  0  0  0  0  0  0  0  0
   22.2436   11.3443   31.2120 C   0  0  0  0  0  0  0  0  0  0  0  0
   23.2562   10.9827   31.0193 H   0  0  0  0  0  0  0  0  0  0  0  0
   22.2907   12.1415   31.9585 H   0  0  0  0  0  0  0  0  0  0  0  0
   21.6267   11.8656   29.9327 C   0  0  0  0  0  0  0  0  0  0  0  0
   20.5915   12.1794   30.1152 H   0  0  0  0  0  0  0  0  0  0  0  0
   21.6091   11.0800   29.1716 H   0  0  0  0  0  0  0  0  0  0  0  0
   22.4078   13.0000   29.4438 N   0  0  0  0  0  0  0  0  0  0  0  0
   23.8135   12.7827   29.0503 C   0  0  0  0  0  0  0  0  0  0  0  0
   24.4552   12.7230   29.9354 H   0  0  0  0  0  0  0  0  0  0  0  0
   23.8995   11.8279   28.5303 H   0  0  0  0  0  0  0  0  0  0  0  0
   24.3043   13.9169   28.1300 C   0  0  0  0  0  0  0  0  0  0  0  0
   25.3971   13.8844   28.1221 H   0  0  0  0  0  0  0  0  0  0  0  0
   23.9758   13.7257   27.1029 H   0  0  0  0  0  0  0  0  0  0  0  0
   23.9042   15.2445   28.5571 O   0  0  0  0  0  0  0  0  0  0  0  0
   22.5493   15.3806   29.0558 C   0  0  0  0  0  0  0  0  0  0  0  0
   22.4139   16.3720   29.5020 H   0  0  0  0  0  0  0  0  0  0  0  0
   21.8508   15.3154   28.2301 H   0  0  0  0  0  0  0  0  0  0  0  0
   22.1647   14.3065   30.0734 C   0  0  0  0  0  0  0  0  0  0  0  0
   22.7529   14.4323   30.9876 H   0  0  0  0  0  0  0  0  0  0  0  0
   21.1036   14.3974   30.3377 H   0  0  0  0  0  0  0  0  0  0  0  0
   20.2729   10.4693   32.4753 C   0  0  0  0  0  0  0  0  0  0  0  0
   19.9405   11.7963   32.8834 C   0  0  0  0  0  0  0  0  0  0  0  0
   19.7077   12.8949   33.1927 N   0  0  0  0  0  0  0  0  0  0  0  0
   19.5230    9.3772   32.8426 C   0  0  0  0  0  0  0  0  0  0  0  0
   18.4564    9.4980   33.6563 N   0  0  0  0  0  0  0  0  0  0  0  0
   18.1495   10.4222   33.9427 H   0  0  0  0  0  0  0  0  0  0  0  0
   17.9227    8.6662   33.8942 H   0  0  0  0  0  0  0  0  0  0  0  0
   19.8539    8.1156   32.4513 C   0  0  0  0  0  0  0  0  0  0  0  0
   19.2562    7.2714   32.7583 H   0  0  0  0  0  0  0  0  0  0  0  0
   24.0808    5.0881   30.5697 C   0  0  0  0  0  0  0  0  0  0  0  0
   23.8592    6.1786   29.7546 O   0  0  0  0  0  0  0  0  0  0  0  0
   24.9322    7.1176   29.5875 C   0  0  0  0  0  0  0  0  0  0  0  0
   24.5842    7.9632   28.9855 H   0  0  0  0  0  0  0  0  0  0  0  0
   25.2656    7.5010   30.5573 H   0  0  0  0  0  0  0  0  0  0  0  0
   25.7813    6.6563   29.0727 H   0  0  0  0  0  0  0  0  0  0  0  0
  1  2  1  0
  2  3  2  0
  3  4  1  0
  3  5  1  0
  5  6  1  0
  6  7  1  0
  7  8  1  0
  7  9  1  0
  7 10  1  0
  5 11  2  0
 11 12  1  0
 11 13  1  0
 13 14  1  0
 14 15  1  0
 14 16  1  0
 14 17  1  0
 17 18  2  0
 17 19  1  0
 19 20  1  0
 19 21  1  0
 21 22  2  0
 22 23  1  0
 23 24  1  0
 24 25  1  0
 24 26  1  0
 24 27  1  0
 27 28  1  0
 27 29  1  0
 27 30  1  0
 30 31  1  0
 31 32  1  0
 31 33  1  0
 31 34  1  0
 34 35  1  0
 34 36  1  0
 34 37  1  0
 37 38  1  0
 38 39  1  0
 38 40  1  0
 38 41  1  0
 41 42  1  0
 41 43  1  0
 23 44  2  0
 44 45  1  0
 45 46  3  0
 44 47  1  0
 47 48  1  0
 48 49  1  0
 48 50  1  0
 47 51  2  0
 51 52  1  0
 13 53  2  0
 53 54  1  0
 54 55  1  0
 55 56  1  0
 55 57  1  0
 55 58  1  0
 53  2  1  0
 51 21  1  0
 41 30  1  0
M  END
>  <score>  (272) 
7.62554

$$$$

     RDKit          3D

 50 52  0  0  0  0  0  0  0  0999 V2000
   26.8799   10.6301   29.3515 H   0  0  0  0  0  0  0  0  0  0  0  0
   25.8951   10.8373   29.7550 C   0  0  0  0  0  0  0  0  0  0  0  0
   25.2046   11.9050   29.3121 N   0  0  0  0  0  0  0  0  0  0  0  0
   23.9702   12.1123   29.8326 C   0  0  0  0  0  0  0  0  0  0  0  0
   23.3701   12.9271   29.4426 H   0  0  0  0  0  0  0  0  0  0  0  0
   23.3745   11.2517   30.7952 C   0  0  0  0  0  0  0  0  0  0  0  0
   22.0493   11.3316   31.2716 N   0  0  0  0  0  0  0  0  0  0  0  0
   21.5104   12.1843   31.1818 H   0  0  0  0  0  0  0  0  0  0  0  0
   21.3508   10.2402   31.7453 C   0  0  0  0  0  0  0  0  0  0  0  0
   21.7853    9.0350   31.4130 N   0  0  0  0  0  0  0  0  0  0  0  0
   21.0567    8.0127   31.7679 C   0  0  0  0  0  0  0  0  0  0  0  0
   21.6235    6.8693   31.3385 N   0  0  0  0  0  0  0  0  0  0  0  0
   22.5003    6.9903   30.8538 H   0  0  0  0  0  0  0  0  0  0  0  0
   20.9302    5.7096   31.1361 C   0  0  0  0  0  0  0  0  0  0  0  0
   19.7442    5.6446   31.4090 O   0  0  0  0  0  0  0  0  0  0  0  0
   21.5992    4.5817   30.3636 C   0  0  0  0  0  0  0  0  0  0  0  0
   20.9629    3.6955   30.4058 H   0  0  0  0  0  0  0  0  0  0  0  0
   21.6786    4.8996   29.3209 H   0  0  0  0  0  0  0  0  0  0  0  0
   22.9811    4.2627   30.8967 C   0  0  0  0  0  0  0  0  0  0  0  0
   23.1755    3.1498   31.7331 C   0  0  0  0  0  0  0  0  0  0  0  0
   22.3397    2.5032   31.9829 H   0  0  0  0  0  0  0  0  0  0  0  0
   24.4430    2.8541   32.2677 C   0  0  0  0  0  0  0  0  0  0  0  0
   24.6690    1.7856   33.1071 O   0  0  0  0  0  0  0  0  0  0  0  0
   23.6782    0.7474   33.1277 C   0  0  0  0  0  0  0  0  0  0  0  0
   24.0404   -0.0918   33.7314 H   0  0  0  0  0  0  0  0  0  0  0  0
   22.7420    1.1084   33.5653 H   0  0  0  0  0  0  0  0  0  0  0  0
   23.4821    0.3816   32.1142 H   0  0  0  0  0  0  0  0  0  0  0  0
   25.5232    3.6924   31.9441 C   0  0  0  0  0  0  0  0  0  0  0  0
   27.2743    3.3443   32.6376 Br  0  0  0  0  0  0  0  0  0  0  0  0
   25.3338    4.7931   31.1012 C   0  0  0  0  0  0  0  0  0  0  0  0
   26.1788    5.4240   30.8489 H   0  0  0  0  0  0  0  0  0  0  0  0
   24.0700    5.0969   30.5751 C   0  0  0  0  0  0  0  0  0  0  0  0
   23.8485    6.1875   29.7617 O   0  0  0  0  0  0  0  0  0  0  0  0
   24.9340    7.1108   29.5979 C   0  0  0  0  0  0  0  0  0  0  0  0
   25.2827    7.4652   30.5728 H   0  0  0  0  0  0  0  0  0  0  0  0
   25.7703    6.6409   29.0695 H   0  0  0  0  0  0  0  0  0  0  0  0
   24.5982    7.9742   29.0147 H   0  0  0  0  0  0  0  0  0  0  0  0
   19.8856    8.1171   32.4653 C   0  0  0  0  0  0  0  0  0  0  0  0
   19.2882    7.2595   32.7245 H   0  0  0  0  0  0  0  0  0  0  0  0
   19.5114    9.3640   32.8514 C   0  0  0  0  0  0  0  0  0  0  0  0
   18.4193    9.4880   33.6216 N   0  0  0  0  0  0  0  0  0  0  0  0
   18.1451   10.4185   33.9249 H   0  0  0  0  0  0  0  0  0  0  0  0
   17.9069    8.6547   33.9021 H   0  0  0  0  0  0  0  0  0  0  0  0
   20.2287   10.4608   32.4876 C   0  0  0  0  0  0  0  0  0  0  0  0
   19.8870   11.7851   32.8853 C   0  0  0  0  0  0  0  0  0  0  0  0
   19.6904   12.8871   33.1938 N   0  0  0  0  0  0  0  0  0  0  0  0
   24.1468   10.2057   31.2936 C   0  0  0  0  0  0  0  0  0  0  0  0
   23.7260    9.5518   32.0591 H   0  0  0  0  0  0  0  0  0  0  0  0
   25.4164    9.9950   30.7649 C   0  0  0  0  0  0  0  0  0  0  0  0
   26.0087    9.1576   31.1083 H   0  0  0  0  0  0  0  0  0  0  0  0
  1  2  1  0
  2  3  2  0
  3  4  1  0
  4  5  1  0
  4  6  2  0
  6  7  1  0
  7  8  1  0
  7  9  1  0
  9 10  2  0
 10 11  1  0
 11 12  1  0
 12 13  1  0
 12 14  1  0
 14 15  2  0
 14 16  1  0
 16 17  1  0
 16 18  1  0
 16 19  1  0
 19 20  2  0
 20 21  1  0
 20 22  1  0
 22 23  1  0
 23 24  1  0
 24 25  1  0
 24 26  1  0
 24 27  1  0
 22 28  2  0
 28 29  1  0
 28 30  1  0
 30 31  1  0
 30 32  2  0
 32 33  1  0
 33 34  1  0
 34 35  1  0
 34 36  1  0
 34 37  1  0
 11 38  2  0
 38 39  1  0
 38 40  1  0
 40 41  1  0
 41 42  1  0
 41 43  1  0
 40 44  2  0
 44 45  1  0
 45 46  3  0
  6 47  1  0
 47 48  1  0
 47 49  2  0
 49 50  1  0
 49  2  1  0
 44  9  1  0
 32 19  1  0
M  END
>  <score>  (273) 
7.62733

$$$$

     RDKit          3D

 47 49  0  0  0  0  0  0  0  0999 V2000
   25.5350   12.3372   31.1510 H   0  0  0  0  0  0  0  0  0  0  0  0
   24.4626   12.3417   30.9776 C   0  0  0  0  0  0  0  0  0  0  0  0
   23.8905   13.3779   30.3325 N   0  0  0  0  0  0  0  0  0  0  0  0
   22.5649   13.4012   30.1228 N   0  0  0  0  0  0  0  0  0  0  0  0
   21.7658   12.4048   30.5518 C   0  0  0  0  0  0  0  0  0  0  0  0
   20.7009   12.4658   30.3460 H   0  0  0  0  0  0  0  0  0  0  0  0
   22.2936   11.3010   31.2179 C   0  0  0  0  0  0  0  0  0  0  0  0
   21.3881   10.2382   31.6427 C   0  0  0  0  0  0  0  0  0  0  0  0
   21.6883    9.0266   31.2058 N   0  0  0  0  0  0  0  0  0  0  0  0
   20.9298    8.0213   31.5597 C   0  0  0  0  0  0  0  0  0  0  0  0
   21.4254    6.9092   30.9936 N   0  0  0  0  0  0  0  0  0  0  0  0
   22.3014    7.0388   30.5065 H   0  0  0  0  0  0  0  0  0  0  0  0
   20.8945    5.6628   31.0683 C   0  0  0  0  0  0  0  0  0  0  0  0
   19.8467    5.4704   31.6640 O   0  0  0  0  0  0  0  0  0  0  0  0
   21.5911    4.5409   30.3120 C   0  0  0  0  0  0  0  0  0  0  0  0
   20.9641    3.6447   30.3460 H   0  0  0  0  0  0  0  0  0  0  0  0
   21.6978    4.8420   29.2633 H   0  0  0  0  0  0  0  0  0  0  0  0
   22.9675    4.2611   30.8842 C   0  0  0  0  0  0  0  0  0  0  0  0
   23.1622    3.1516   31.7286 C   0  0  0  0  0  0  0  0  0  0  0  0
   22.3393    2.4900   31.9767 H   0  0  0  0  0  0  0  0  0  0  0  0
   24.4277    2.8570   32.2667 C   0  0  0  0  0  0  0  0  0  0  0  0
   24.6642    1.7920   33.1076 O   0  0  0  0  0  0  0  0  0  0  0  0
   23.6806    0.7486   33.1290 C   0  0  0  0  0  0  0  0  0  0  0  0
   24.0467   -0.0875   33.7314 H   0  0  0  0  0  0  0  0  0  0  0  0
   22.7422    1.0987   33.5689 H   0  0  0  0  0  0  0  0  0  0  0  0
   23.4848    0.3776   32.1180 H   0  0  0  0  0  0  0  0  0  0  0  0
   25.5077    3.6908   31.9403 C   0  0  0  0  0  0  0  0  0  0  0  0
   27.2617    3.3426   32.6310 Br  0  0  0  0  0  0  0  0  0  0  0  0
   25.3180    4.7966   31.1005 C   0  0  0  0  0  0  0  0  0  0  0  0
   26.1579    5.4316   30.8386 H   0  0  0  0  0  0  0  0  0  0  0  0
   24.0549    5.1006   30.5692 C   0  0  0  0  0  0  0  0  0  0  0  0
   23.8377    6.1846   29.7444 O   0  0  0  0  0  0  0  0  0  0  0  0
   24.9286    7.1059   29.5914 C   0  0  0  0  0  0  0  0  0  0  0  0
   24.6071    7.9597   28.9909 H   0  0  0  0  0  0  0  0  0  0  0  0
   25.2602    7.4815   30.5654 H   0  0  0  0  0  0  0  0  0  0  0  0
   25.7777    6.6357   29.0838 H   0  0  0  0  0  0  0  0  0  0  0  0
   19.8496    8.1271   32.3917 C   0  0  0  0  0  0  0  0  0  0  0  0
   19.2756    7.2745   32.7129 H   0  0  0  0  0  0  0  0  0  0  0  0
   19.5327    9.3771   32.8282 C   0  0  0  0  0  0  0  0  0  0  0  0
   18.4946    9.4851   33.6916 N   0  0  0  0  0  0  0  0  0  0  0  0
   17.9293    8.6610   33.8964 H   0  0  0  0  0  0  0  0  0  0  0  0
   18.1527   10.4138   33.9220 H   0  0  0  0  0  0  0  0  0  0  0  0
   20.2790   10.4707   32.4405 C   0  0  0  0  0  0  0  0  0  0  0  0
   19.9567   11.7902   32.8702 C   0  0  0  0  0  0  0  0  0  0  0  0
   19.6932   12.8729   33.2013 N   0  0  0  0  0  0  0  0  0  0  0  0
   23.6894   11.2602   31.4187 C   0  0  0  0  0  0  0  0  0  0  0  0
   24.1731   10.4314   31.9371 H   0  0  0  0  0  0  0  0  0  0  0  0
  1  2  1  0
  2  3  2  0
  3  4  1  0
  4  5  2  0
  5  6  1  0
  5  7  1  0
  7  8  1  0
  8  9  2  0
  9 10  1  0
 10 11  1  0
 11 12  1  0
 11 13  1  0
 13 14  2  0
 13 15  1  0
 15 16  1  0
 15 17  1  0
 15 18  1  0
 18 19  2  0
 19 20  1  0
 19 21  1  0
 21 22  1  0
 22 23  1  0
 23 24  1  0
 23 25  1  0
 23 26  1  0
 21 27  2  0
 27 28  1  0
 27 29  1  0
 29 30  1  0
 29 31  2  0
 31 32  1  0
 32 33  1  0
 33 34  1  0
 33 35  1  0
 33 36  1  0
 10 37  2  0
 37 38  1  0
 37 39  1  0
 39 40  1  0
 40 41  1  0
 40 42  1  0
 39 43  2  0
 43 44  1  0
 44 45  3  0
  7 46  2  0
 46 47  1  0
 46  2  1  0
 43  8  1  0
 31 18  1  0
M  END
>  <score>  (274) 
7.62737

$$$$

     RDKit          3D

 50 51  0  0  0  0  0  0  0  0999 V2000
   25.4174   14.0410   28.8146 H   0  0  0  0  0  0  0  0  0  0  0  0
   24.7454   13.7470   28.1657 O   0  0  0  0  0  0  0  0  0  0  0  0
   23.7838   12.8347   28.7225 N   0  0  0  0  0  0  0  0  0  0  0  0
   23.8103   11.8760   28.3820 H   0  0  0  0  0  0  0  0  0  0  0  0
   22.6248   13.1571   29.4315 C   0  0  0  0  0  0  0  0  0  0  0  0
   22.3548   14.3123   29.7446 O   0  0  0  0  0  0  0  0  0  0  0  0
   21.7210   12.0148   29.9234 C   0  0  0  0  0  0  0  0  0  0  0  0
   20.7147   12.4086   30.0958 H   0  0  0  0  0  0  0  0  0  0  0  0
   21.6361   11.2677   29.1311 H   0  0  0  0  0  0  0  0  0  0  0  0
   22.2540   11.3443   31.2169 C   0  0  0  0  0  0  0  0  0  0  0  0
   22.3195   12.0965   32.0056 H   0  0  0  0  0  0  0  0  0  0  0  0
   23.2598   10.9494   31.0485 H   0  0  0  0  0  0  0  0  0  0  0  0
   21.3824   10.2114   31.7009 C   0  0  0  0  0  0  0  0  0  0  0  0
   21.7509    8.9751   31.3705 N   0  0  0  0  0  0  0  0  0  0  0  0
   21.0023    7.9654   31.7537 C   0  0  0  0  0  0  0  0  0  0  0  0
   21.5784    6.8101   31.3712 N   0  0  0  0  0  0  0  0  0  0  0  0
   22.4686    6.9365   30.9236 H   0  0  0  0  0  0  0  0  0  0  0  0
   20.9106    5.6460   31.1263 C   0  0  0  0  0  0  0  0  0  0  0  0
   19.7222    5.5553   31.3899 O   0  0  0  0  0  0  0  0  0  0  0  0
   21.6129    4.5460   30.3354 C   0  0  0  0  0  0  0  0  0  0  0  0
   21.0019    3.6386   30.3308 H   0  0  0  0  0  0  0  0  0  0  0  0
   21.7090    4.8877   29.3033 H   0  0  0  0  0  0  0  0  0  0  0  0
   22.9936    4.2516   30.8849 C   0  0  0  0  0  0  0  0  0  0  0  0
   23.1774    3.1446   31.7305 C   0  0  0  0  0  0  0  0  0  0  0  0
   22.3419    2.4989   31.9813 H   0  0  0  0  0  0  0  0  0  0  0  0
   24.4388    2.8454   32.2724 C   0  0  0  0  0  0  0  0  0  0  0  0
   24.6660    1.7846   33.1215 O   0  0  0  0  0  0  0  0  0  0  0  0
   23.6896    0.7350   33.1405 C   0  0  0  0  0  0  0  0  0  0  0  0
   23.4956    0.3624   32.1292 H   0  0  0  0  0  0  0  0  0  0  0  0
   24.0663   -0.0971   33.7425 H   0  0  0  0  0  0  0  0  0  0  0  0
   22.7488    1.0769   33.5830 H   0  0  0  0  0  0  0  0  0  0  0  0
   25.5236    3.6743   31.9451 C   0  0  0  0  0  0  0  0  0  0  0  0
   27.2735    3.3088   32.6360 Br  0  0  0  0  0  0  0  0  0  0  0  0
   25.3445    4.7813   31.1021 C   0  0  0  0  0  0  0  0  0  0  0  0
   26.1900    5.4117   30.8468 H   0  0  0  0  0  0  0  0  0  0  0  0
   24.0838    5.0882   30.5680 C   0  0  0  0  0  0  0  0  0  0  0  0
   23.8582    6.1769   29.7513 O   0  0  0  0  0  0  0  0  0  0  0  0
   24.9314    7.1154   29.5876 C   0  0  0  0  0  0  0  0  0  0  0  0
   25.2654    7.5014   30.5567 H   0  0  0  0  0  0  0  0  0  0  0  0
   25.7827    6.6584   29.0719 H   0  0  0  0  0  0  0  0  0  0  0  0
   24.5854    7.9612   28.9866 H   0  0  0  0  0  0  0  0  0  0  0  0
   19.8475    8.1036   32.4717 C   0  0  0  0  0  0  0  0  0  0  0  0
   19.2404    7.2617   32.7591 H   0  0  0  0  0  0  0  0  0  0  0  0
   19.5183    9.3652   32.8579 C   0  0  0  0  0  0  0  0  0  0  0  0
   18.4398    9.4893   33.6569 N   0  0  0  0  0  0  0  0  0  0  0  0
   17.9039    8.6599   33.9059 H   0  0  0  0  0  0  0  0  0  0  0  0
   18.1421   10.4155   33.9492 H   0  0  0  0  0  0  0  0  0  0  0  0
   20.2675   10.4549   32.4803 C   0  0  0  0  0  0  0  0  0  0  0  0
   19.9433   11.7828   32.8856 C   0  0  0  0  0  0  0  0  0  0  0  0
   19.7051   12.8791   33.1955 N   0  0  0  0  0  0  0  0  0  0  0  0
  1  2  1  0
  2  3  1  0
  3  4  1  0
  3  5  1  0
  5  6  2  0
  5  7  1  0
  7  8  1  0
  7  9  1  0
  7 10  1  0
 10 11  1  0
 10 12  1  0
 10 13  1  0
 13 14  2  0
 14 15  1  0
 15 16  1  0
 16 17  1  0
 16 18  1  0
 18 19  2  0
 18 20  1  0
 20 21  1  0
 20 22  1  0
 20 23  1  0
 23 24  2  0
 24 25  1  0
 24 26  1  0
 26 27  1  0
 27 28  1  0
 28 29  1  0
 28 30  1  0
 28 31  1  0
 26 32  2  0
 32 33  1  0
 32 34  1  0
 34 35  1  0
 34 36  2  0
 36 37  1  0
 37 38  1  0
 38 39  1  0
 38 40  1  0
 38 41  1  0
 15 42  2  0
 42 43  1  0
 42 44  1  0
 44 45  1  0
 45 46  1  0
 45 47  1  0
 44 48  2  0
 48 49  1  0
 49 50  3  0
 48 13  1  0
 36 23  1  0
M  END
>  <score>  (275) 
7.62995

$$$$

     RDKit          3D

 49 51  0  0  0  0  0  0  0  0999 V2000
   21.2556   14.3185   29.3147 H   0  0  0  0  0  0  0  0  0  0  0  0
   21.8405   13.5379   29.7915 C   0  0  0  0  0  0  0  0  0  0  0  0
   23.2377   13.6182   29.8343 C   0  0  0  0  0  0  0  0  0  0  0  0
   23.7246   14.4757   29.3824 H   0  0  0  0  0  0  0  0  0  0  0  0
   23.9853   12.5958   30.4249 C   0  0  0  0  0  0  0  0  0  0  0  0
   25.7352   12.6704   30.4275 Cl  0  0  0  0  0  0  0  0  0  0  0  0
   23.3181   11.5103   31.0086 C   0  0  0  0  0  0  0  0  0  0  0  0
   23.9273   10.7459   31.4771 H   0  0  0  0  0  0  0  0  0  0  0  0
   21.9075   11.4068   30.9725 C   0  0  0  0  0  0  0  0  0  0  0  0
   21.1876   10.2480   31.5508 C   0  0  0  0  0  0  0  0  0  0  0  0
   21.5844    9.0271   31.1707 N   0  0  0  0  0  0  0  0  0  0  0  0
   20.9232    7.9783   31.6072 C   0  0  0  0  0  0  0  0  0  0  0  0
   21.4661    6.8434   31.1361 N   0  0  0  0  0  0  0  0  0  0  0  0
   22.2911    6.9819   30.5724 H   0  0  0  0  0  0  0  0  0  0  0  0
   20.8813    5.6130   31.1525 C   0  0  0  0  0  0  0  0  0  0  0  0
   19.7959    5.4556   31.6822 O   0  0  0  0  0  0  0  0  0  0  0  0
   21.5436    4.4909   30.3677 C   0  0  0  0  0  0  0  0  0  0  0  0
   21.5689    4.7733   29.3126 H   0  0  0  0  0  0  0  0  0  0  0  0
   20.9423    3.5845   30.4669 H   0  0  0  0  0  0  0  0  0  0  0  0
   22.9439    4.2398   30.8752 C   0  0  0  0  0  0  0  0  0  0  0  0
   23.1615    3.1340   31.7055 C   0  0  0  0  0  0  0  0  0  0  0  0
   22.3367    2.4711   31.9509 H   0  0  0  0  0  0  0  0  0  0  0  0
   24.4307    2.8618   32.2446 C   0  0  0  0  0  0  0  0  0  0  0  0
   24.6585    1.7872   33.0719 O   0  0  0  0  0  0  0  0  0  0  0  0
   23.6332    0.7834   33.0943 C   0  0  0  0  0  0  0  0  0  0  0  0
   23.4264    0.4265   32.0811 H   0  0  0  0  0  0  0  0  0  0  0  0
   23.9550   -0.0678   33.7012 H   0  0  0  0  0  0  0  0  0  0  0  0
   22.7068    1.1835   33.5169 H   0  0  0  0  0  0  0  0  0  0  0  0
   25.4928    3.7288   31.9437 C   0  0  0  0  0  0  0  0  0  0  0  0
   27.2456    3.4491   32.6714 Br  0  0  0  0  0  0  0  0  0  0  0  0
   25.2779    4.8301   31.1100 C   0  0  0  0  0  0  0  0  0  0  0  0
   26.1043    5.4941   30.8843 H   0  0  0  0  0  0  0  0  0  0  0  0
   24.0111    5.1088   30.5692 C   0  0  0  0  0  0  0  0  0  0  0  0
   23.7865    6.2155   29.7793 O   0  0  0  0  0  0  0  0  0  0  0  0
   24.9125    7.0906   29.6052 C   0  0  0  0  0  0  0  0  0  0  0  0
   25.2693    7.4535   30.5746 H   0  0  0  0  0  0  0  0  0  0  0  0
   25.7352    6.5644   29.1106 H   0  0  0  0  0  0  0  0  0  0  0  0
   24.6310    7.9519   28.9940 H   0  0  0  0  0  0  0  0  0  0  0  0
   19.8468    8.0537   32.4415 C   0  0  0  0  0  0  0  0  0  0  0  0
   19.3396    7.1735   32.7942 H   0  0  0  0  0  0  0  0  0  0  0  0
   19.4697    9.2891   32.8647 C   0  0  0  0  0  0  0  0  0  0  0  0
   18.4581    9.3574   33.7577 N   0  0  0  0  0  0  0  0  0  0  0  0
   17.8879    8.5240   33.8638 H   0  0  0  0  0  0  0  0  0  0  0  0
   18.0389   10.2693   33.9174 H   0  0  0  0  0  0  0  0  0  0  0  0
   20.1205   10.4166   32.4315 C   0  0  0  0  0  0  0  0  0  0  0  0
   19.7580   11.7112   32.9127 C   0  0  0  0  0  0  0  0  0  0  0  0
   19.5287   12.7828   33.3065 N   0  0  0  0  0  0  0  0  0  0  0  0
   21.1824   12.4314   30.3391 C   0  0  0  0  0  0  0  0  0  0  0  0
   20.0973   12.3647   30.2689 H   0  0  0  0  0  0  0  0  0  0  0  0
  1  2  1  0
  2  3  2  0
  3  4  1  0
  3  5  1  0
  5  6  1  0
  5  7  2  0
  7  8  1  0
  7  9  1  0
  9 10  1  0
 10 11  2  0
 11 12  1  0
 12 13  1  0
 13 14  1  0
 13 15  1  0
 15 16  2  0
 15 17  1  0
 17 18  1  0
 17 19  1  0
 17 20  1  0
 20 21  2  0
 21 22  1  0
 21 23  1  0
 23 24  1  0
 24 25  1  0
 25 26  1  0
 25 27  1  0
 25 28  1  0
 23 29  2  0
 29 30  1  0
 29 31  1  0
 31 32  1  0
 31 33  2  0
 33 34  1  0
 34 35  1  0
 35 36  1  0
 35 37  1  0
 35 38  1  0
 12 39  2  0
 39 40  1  0
 39 41  1  0
 41 42  1  0
 42 43  1  0
 42 44  1  0
 41 45  2  0
 45 46  1  0
 46 47  3  0
  9 48  2  0
 48 49  1  0
 48  2  1  0
 45 10  1  0
 33 20  1  0
M  END
>  <score>  (276) 
7.63004

$$$$

     RDKit          3D

 48 50  0  0  0  0  0  0  0  0999 V2000
   26.0927    5.5068   30.9169 H   0  0  0  0  0  0  0  0  0  0  0  0
   25.2806    4.8191   31.1291 C   0  0  0  0  0  0  0  0  0  0  0  0
   25.4959    3.7112   31.9575 C   0  0  0  0  0  0  0  0  0  0  0  0
   27.2433    3.4300   32.6857 Br  0  0  0  0  0  0  0  0  0  0  0  0
   24.4414    2.8320   32.2479 C   0  0  0  0  0  0  0  0  0  0  0  0
   24.6672    1.7585   33.0769 O   0  0  0  0  0  0  0  0  0  0  0  0
   23.6341    0.7620   33.1045 C   0  0  0  0  0  0  0  0  0  0  0  0
   22.7133    1.1718   33.5335 H   0  0  0  0  0  0  0  0  0  0  0  0
   23.4223    0.3983   32.0923 H   0  0  0  0  0  0  0  0  0  0  0  0
   23.9526   -0.0867   33.7160 H   0  0  0  0  0  0  0  0  0  0  0  0
   23.1822    3.0905   31.6913 C   0  0  0  0  0  0  0  0  0  0  0  0
   22.3606    2.4253   31.9339 H   0  0  0  0  0  0  0  0  0  0  0  0
   22.9658    4.1892   30.8564 C   0  0  0  0  0  0  0  0  0  0  0  0
   21.5659    4.4215   30.3469 C   0  0  0  0  0  0  0  0  0  0  0  0
   21.5960    4.7148   29.2961 H   0  0  0  0  0  0  0  0  0  0  0  0
   20.9791    3.5023   30.4274 H   0  0  0  0  0  0  0  0  0  0  0  0
   20.9065    5.5358   31.1456 C   0  0  0  0  0  0  0  0  0  0  0  0
   19.7382    5.4488   31.4999 O   0  0  0  0  0  0  0  0  0  0  0  0
   21.6090    6.6807   31.3693 N   0  0  0  0  0  0  0  0  0  0  0  0
   22.5067    6.7946   30.9117 H   0  0  0  0  0  0  0  0  0  0  0  0
   21.0477    7.8394   31.7656 C   0  0  0  0  0  0  0  0  0  0  0  0
   21.8293    8.8558   31.4665 N   0  0  0  0  0  0  0  0  0  0  0  0
   21.4933   10.1331   31.7804 C   0  0  0  0  0  0  0  0  0  0  0  0
   22.4054   11.2896   31.3485 C   0  0  0  0  0  0  0  0  0  0  0  0
   22.0070   12.5413   31.2817 N   0  0  0  0  0  0  0  0  0  0  0  0
   23.0560   13.4009   30.7054 C   0  0  0  0  0  0  0  0  0  0  0  0
   23.3589   14.1651   31.4266 H   0  0  0  0  0  0  0  0  0  0  0  0
   22.6922   13.8906   29.7964 H   0  0  0  0  0  0  0  0  0  0  0  0
   24.2107   12.4754   30.3684 C   0  0  0  0  0  0  0  0  0  0  0  0
   25.1473   12.8087   30.8278 H   0  0  0  0  0  0  0  0  0  0  0  0
   24.3386   12.3798   29.2864 H   0  0  0  0  0  0  0  0  0  0  0  0
   23.7428   11.2195   30.9304 N   0  0  0  0  0  0  0  0  0  0  0  0
   24.0737   10.3461   30.5261 H   0  0  0  0  0  0  0  0  0  0  0  0
   20.2896   10.3400   32.4722 C   0  0  0  0  0  0  0  0  0  0  0  0
   19.8533   11.6385   32.8739 C   0  0  0  0  0  0  0  0  0  0  0  0
   19.4547   12.6775   33.2172 N   0  0  0  0  0  0  0  0  0  0  0  0
   19.4984    9.2396   32.7533 C   0  0  0  0  0  0  0  0  0  0  0  0
   18.3399    9.3423   33.4340 N   0  0  0  0  0  0  0  0  0  0  0  0
   17.8737    8.4681   33.6613 H   0  0  0  0  0  0  0  0  0  0  0  0
   18.3167   10.0927   34.1177 H   0  0  0  0  0  0  0  0  0  0  0  0
   19.8433    7.9781   32.3868 C   0  0  0  0  0  0  0  0  0  0  0  0
   19.1957    7.1438   32.6053 H   0  0  0  0  0  0  0  0  0  0  0  0
   24.0203    5.0811   30.5720 C   0  0  0  0  0  0  0  0  0  0  0  0
   23.7817    6.2019   29.8037 O   0  0  0  0  0  0  0  0  0  0  0  0
   24.9037    7.0815   29.6079 C   0  0  0  0  0  0  0  0  0  0  0  0
   25.2734    7.4630   30.5682 H   0  0  0  0  0  0  0  0  0  0  0  0
   25.7183    6.5523   29.0994 H   0  0  0  0  0  0  0  0  0  0  0  0
   24.6117    7.9367   28.9908 H   0  0  0  0  0  0  0  0  0  0  0  0
  1  2  1  0
  2  3  2  0
  3  4  1  0
  3  5  1  0
  5  6  1  0
  6  7  1  0
  7  8  1  0
  7  9  1  0
  7 10  1  0
  5 11  2  0
 11 12  1  0
 11 13  1  0
 13 14  1  0
 14 15  1  0
 14 16  1  0
 14 17  1  0
 17 18  2  0
 17 19  1  0
 19 20  1  0
 19 21  1  0
 21 22  2  0
 22 23  1  0
 23 24  1  0
 24 25  2  0
 25 26  1  0
 26 27  1  0
 26 28  1  0
 26 29  1  0
 29 30  1  0
 29 31  1  0
 29 32  1  0
 32 33  1  0
 23 34  2  0
 34 35  1  0
 35 36  3  0
 34 37  1  0
 37 38  1  0
 38 39  1  0
 38 40  1  0
 37 41  2  0
 41 42  1  0
 13 43  2  0
 43 44  1  0
 44 45  1  0
 45 46  1  0
 45 47  1  0
 45 48  1  0
 43  2  1  0
 41 21  1  0
 32 24  1  0
M  END
>  <score>  (277) 
7.63044

$$$$

     RDKit          3D

 59 61  0  0  0  0  0  0  0  0999 V2000
   26.1493    5.4432   30.8444 H   0  0  0  0  0  0  0  0  0  0  0  0
   25.3056    4.8115   31.0984 C   0  0  0  0  0  0  0  0  0  0  0  0
   25.5025    3.7145   31.9418 C   0  0  0  0  0  0  0  0  0  0  0  0
   27.2586    3.3764   32.6322 Br  0  0  0  0  0  0  0  0  0  0  0  0
   24.4269    2.8689   32.2611 C   0  0  0  0  0  0  0  0  0  0  0  0
   24.6607    1.7953   33.0914 O   0  0  0  0  0  0  0  0  0  0  0  0
   23.6679    0.7602   33.1165 C   0  0  0  0  0  0  0  0  0  0  0  0
   22.7342    1.1284   33.5511 H   0  0  0  0  0  0  0  0  0  0  0  0
   23.4683    0.3944   32.1048 H   0  0  0  0  0  0  0  0  0  0  0  0
   24.0264   -0.0794   33.7216 H   0  0  0  0  0  0  0  0  0  0  0  0
   23.1571    3.1561   31.7265 C   0  0  0  0  0  0  0  0  0  0  0  0
   22.3255    2.5024   31.9722 H   0  0  0  0  0  0  0  0  0  0  0  0
   22.9588    4.2631   30.8840 C   0  0  0  0  0  0  0  0  0  0  0  0
   21.5845    4.5596   30.3305 C   0  0  0  0  0  0  0  0  0  0  0  0
   20.9351    3.6883   30.4044 H   0  0  0  0  0  0  0  0  0  0  0  0
   21.6702    4.8356   29.2748 H   0  0  0  0  0  0  0  0  0  0  0  0
   20.9358    5.7042   31.0902 C   0  0  0  0  0  0  0  0  0  0  0  0
   19.8815    5.5450   31.6812 O   0  0  0  0  0  0  0  0  0  0  0  0
   21.4956    6.9402   31.0141 N   0  0  0  0  0  0  0  0  0  0  0  0
   22.3645    7.0699   30.5187 H   0  0  0  0  0  0  0  0  0  0  0  0
   20.9919    8.0557   31.5623 C   0  0  0  0  0  0  0  0  0  0  0  0
   21.7491    9.0609   31.2274 N   0  0  0  0  0  0  0  0  0  0  0  0
   21.3800   10.2467   31.6733 C   0  0  0  0  0  0  0  0  0  0  0  0
   22.1976   11.2975   31.3026 N   0  0  0  0  0  0  0  0  0  0  0  0
   21.7279   12.2703   30.2986 C   0  0  0  0  0  0  0  0  0  0  0  0
   21.8917   13.2794   30.6896 H   0  0  0  0  0  0  0  0  0  0  0  0
   20.6522   12.1577   30.1203 H   0  0  0  0  0  0  0  0  0  0  0  0
   22.4940   12.1134   28.9595 C   0  0  0  0  0  0  0  0  0  0  0  0
   22.1968   12.9282   28.2920 H   0  0  0  0  0  0  0  0  0  0  0  0
   22.1790   11.1726   28.4948 H   0  0  0  0  0  0  0  0  0  0  0  0
   23.9765   12.1109   29.1295 N   0  0  0  0  0  0  0  0  0  0  0  0
   24.7565   12.1352   27.8758 C   0  0  0  0  0  0  0  0  0  0  0  0
   24.8471   11.1197   27.4707 H   0  0  0  0  0  0  0  0  0  0  0  0
   24.2410   12.7530   27.1380 H   0  0  0  0  0  0  0  0  0  0  0  0
   26.1415   12.7329   28.0995 C   0  0  0  0  0  0  0  0  0  0  0  0
   26.7119   12.1425   28.8209 H   0  0  0  0  0  0  0  0  0  0  0  0
   26.0539   13.7558   28.4760 H   0  0  0  0  0  0  0  0  0  0  0  0
   26.6886   12.7582   27.1532 H   0  0  0  0  0  0  0  0  0  0  0  0
   24.4173   11.0863   30.1114 C   0  0  0  0  0  0  0  0  0  0  0  0
   24.2441   10.0806   29.7135 H   0  0  0  0  0  0  0  0  0  0  0  0
   25.4900   11.1878   30.3027 H   0  0  0  0  0  0  0  0  0  0  0  0
   23.6693   11.2269   31.4484 C   0  0  0  0  0  0  0  0  0  0  0  0
   24.0010   12.1680   31.8983 H   0  0  0  0  0  0  0  0  0  0  0  0
   23.9518   10.4102   32.1231 H   0  0  0  0  0  0  0  0  0  0  0  0
   20.2733   10.4619   32.4613 C   0  0  0  0  0  0  0  0  0  0  0  0
   19.9408   11.7743   32.8983 C   0  0  0  0  0  0  0  0  0  0  0  0
   19.6901   12.8624   33.2173 N   0  0  0  0  0  0  0  0  0  0  0  0
   19.5479    9.3732   32.8345 C   0  0  0  0  0  0  0  0  0  0  0  0
   18.5077    9.4767   33.6935 N   0  0  0  0  0  0  0  0  0  0  0  0
   17.9435    8.6513   33.8717 H   0  0  0  0  0  0  0  0  0  0  0  0
   18.1452   10.4022   33.9148 H   0  0  0  0  0  0  0  0  0  0  0  0
   19.8821    8.1407   32.3646 C   0  0  0  0  0  0  0  0  0  0  0  0
   19.3095    7.2726   32.6369 H   0  0  0  0  0  0  0  0  0  0  0  0
   24.0421    5.1075   30.5693 C   0  0  0  0  0  0  0  0  0  0  0  0
   23.8318    6.1962   29.7504 O   0  0  0  0  0  0  0  0  0  0  0  0
   24.9315    7.1038   29.5946 C   0  0  0  0  0  0  0  0  0  0  0  0
   25.2412    7.4929   30.5688 H   0  0  0  0  0  0  0  0  0  0  0  0
   25.7868    6.6034   29.1297 H   0  0  0  0  0  0  0  0  0  0  0  0
   24.6310    7.9442   28.9618 H   0  0  0  0  0  0  0  0  0  0  0  0
  1  2  1  0
  2  3  2  0
  3  4  1  0
  3  5  1  0
  5  6  1  0
  6  7  1  0
  7  8  1  0
  7  9  1  0
  7 10  1  0
  5 11  2  0
 11 12  1  0
 11 13  1  0
 13 14  1  0
 14 15  1  0
 14 16  1  0
 14 17  1  0
 17 18  2  0
 17 19  1  0
 19 20  1  0
 19 21  1  0
 21 22  2  0
 22 23  1  0
 23 24  1  0
 24 25  1  0
 25 26  1  0
 25 27  1  0
 25 28  1  0
 28 29  1  0
 28 30  1  0
 28 31  1  0
 31 32  1  0
 32 33  1  0
 32 34  1  0
 32 35  1  0
 35 36  1  0
 35 37  1  0
 35 38  1  0
 31 39  1  0
 39 40  1  0
 39 41  1  0
 39 42  1  0
 42 43  1  0
 42 44  1  0
 23 45  2  0
 45 46  1  0
 46 47  3  0
 45 48  1  0
 48 49  1  0
 49 50  1  0
 49 51  1  0
 48 52  2  0
 52 53  1  0
 13 54  2  0
 54 55  1  0
 55 56  1  0
 56 57  1  0
 56 58  1  0
 56 59  1  0
 54  2  1  0
 52 21  1  0
 42 24  1  0
M  END
>  <score>  (278) 
7.63085

$$$$

     RDKit          3D

 50 51  0  0  0  0  0  0  0  0999 V2000
   22.7856   14.5604   30.1999 H   0  0  0  0  0  0  0  0  0  0  0  0
   22.3395   14.1931   29.4193 O   0  0  0  0  0  0  0  0  0  0  0  0
   23.2164   13.3390   28.6705 C   0  0  0  0  0  0  0  0  0  0  0  0
   22.6261   12.7849   27.9351 H   0  0  0  0  0  0  0  0  0  0  0  0
   23.9407   13.9543   28.1285 H   0  0  0  0  0  0  0  0  0  0  0  0
   23.9926   12.3426   29.5452 C   0  0  0  0  0  0  0  0  0  0  0  0
   24.7741   11.8944   28.9254 H   0  0  0  0  0  0  0  0  0  0  0  0
   24.4929   12.8676   30.3688 H   0  0  0  0  0  0  0  0  0  0  0  0
   23.1541   11.2587   30.0629 N   0  0  0  0  0  0  0  0  0  0  0  0
   23.0905   10.4019   29.5113 H   0  0  0  0  0  0  0  0  0  0  0  0
   22.2862   11.3859   31.1576 C   0  0  0  0  0  0  0  0  0  0  0  0
   22.2763   12.4721   31.7445 O   0  0  0  0  0  0  0  0  0  0  0  0
   21.3912   10.2371   31.6290 C   0  0  0  0  0  0  0  0  0  0  0  0
   21.6592    8.9845   31.1935 N   0  0  0  0  0  0  0  0  0  0  0  0
   20.9073    7.9719   31.5627 C   0  0  0  0  0  0  0  0  0  0  0  0
   21.4124    6.8470   31.0299 N   0  0  0  0  0  0  0  0  0  0  0  0
   22.3030    6.9660   30.5706 H   0  0  0  0  0  0  0  0  0  0  0  0
   20.8791    5.6024   31.1095 C   0  0  0  0  0  0  0  0  0  0  0  0
   19.8303    5.4129   31.7051 O   0  0  0  0  0  0  0  0  0  0  0  0
   21.5669    4.5003   30.3260 C   0  0  0  0  0  0  0  0  0  0  0  0
   20.9549    3.6005   30.3736 H   0  0  0  0  0  0  0  0  0  0  0  0
   21.6483    4.8059   29.2783 H   0  0  0  0  0  0  0  0  0  0  0  0
   22.9485    4.2420   30.8774 C   0  0  0  0  0  0  0  0  0  0  0  0
   23.1570    3.1451   31.7265 C   0  0  0  0  0  0  0  0  0  0  0  0
   22.3296    2.4864   31.9725 H   0  0  0  0  0  0  0  0  0  0  0  0
   24.4278    2.8684   32.2625 C   0  0  0  0  0  0  0  0  0  0  0  0
   24.6620    1.7942   33.0910 O   0  0  0  0  0  0  0  0  0  0  0  0
   23.6628    0.7656   33.1124 C   0  0  0  0  0  0  0  0  0  0  0  0
   23.4642    0.4048   32.0983 H   0  0  0  0  0  0  0  0  0  0  0  0
   22.7306    1.1421   33.5443 H   0  0  0  0  0  0  0  0  0  0  0  0
   24.0144   -0.0770   33.7175 H   0  0  0  0  0  0  0  0  0  0  0  0
   25.4974    3.7199   31.9425 C   0  0  0  0  0  0  0  0  0  0  0  0
   27.2548    3.3929   32.6320 Br  0  0  0  0  0  0  0  0  0  0  0  0
   25.2906    4.8128   31.0977 C   0  0  0  0  0  0  0  0  0  0  0  0
   26.1287    5.4529   30.8442 H   0  0  0  0  0  0  0  0  0  0  0  0
   24.0252    5.0995   30.5650 C   0  0  0  0  0  0  0  0  0  0  0  0
   23.8215    6.1930   29.7494 O   0  0  0  0  0  0  0  0  0  0  0  0
   24.9280    7.0954   29.5987 C   0  0  0  0  0  0  0  0  0  0  0  0
   25.2608    7.4496   30.5788 H   0  0  0  0  0  0  0  0  0  0  0  0
   25.7679    6.5972   29.1046 H   0  0  0  0  0  0  0  0  0  0  0  0
   24.6277    7.9587   28.9964 H   0  0  0  0  0  0  0  0  0  0  0  0
   19.8268    8.0883   32.3966 C   0  0  0  0  0  0  0  0  0  0  0  0
   19.2333    7.2401   32.6873 H   0  0  0  0  0  0  0  0  0  0  0  0
   19.5455    9.3313   32.8854 C   0  0  0  0  0  0  0  0  0  0  0  0
   18.5136    9.4600   33.7621 N   0  0  0  0  0  0  0  0  0  0  0  0
   17.9106    8.6531   33.8882 H   0  0  0  0  0  0  0  0  0  0  0  0
   18.1375   10.3936   33.9266 H   0  0  0  0  0  0  0  0  0  0  0  0
   20.2951   10.4257   32.4984 C   0  0  0  0  0  0  0  0  0  0  0  0
   19.9419   11.7283   32.9672 C   0  0  0  0  0  0  0  0  0  0  0  0
   19.6392   12.7972   33.3104 N   0  0  0  0  0  0  0  0  0  0  0  0
  1  2  1  0
  2  3  1  0
  3  4  1  0
  3  5  1  0
  3  6  1  0
  6  7  1  0
  6  8  1  0
  6  9  1  0
  9 10  1  0
  9 11  1  0
 11 12  2  0
 11 13  1  0
 13 14  2  0
 14 15  1  0
 15 16  1  0
 16 17  1  0
 16 18  1  0
 18 19  2  0
 18 20  1  0
 20 21  1  0
 20 22  1  0
 20 23  1  0
 23 24  2  0
 24 25  1  0
 24 26  1  0
 26 27  1  0
 27 28  1  0
 28 29  1  0
 28 30  1  0
 28 31  1  0
 26 32  2  0
 32 33  1  0
 32 34  1  0
 34 35  1  0
 34 36  2  0
 36 37  1  0
 37 38  1  0
 38 39  1  0
 38 40  1  0
 38 41  1  0
 15 42  2  0
 42 43  1  0
 42 44  1  0
 44 45  1  0
 45 46  1  0
 45 47  1  0
 44 48  2  0
 48 49  1  0
 49 50  3  0
 48 13  1  0
 36 23  1  0
M  END
>  <score>  (279) 
7.63093

$$$$

     RDKit          3D

 50 52  0  0  0  0  0  0  0  0999 V2000
   24.3556   15.0026   29.3436 H   0  0  0  0  0  0  0  0  0  0  0  0
   24.8566   14.3266   29.8270 O   0  0  0  0  0  0  0  0  0  0  0  0
   24.0094   13.3602   30.2874 C   0  0  0  0  0  0  0  0  0  0  0  0
   24.5181   12.2874   31.0108 C   0  0  0  0  0  0  0  0  0  0  0  0
   25.5790   12.2718   31.2240 H   0  0  0  0  0  0  0  0  0  0  0  0
   23.6780   11.2549   31.4389 C   0  0  0  0  0  0  0  0  0  0  0  0
   24.1021   10.4124   31.9877 H   0  0  0  0  0  0  0  0  0  0  0  0
   22.2914   11.3284   31.1985 C   0  0  0  0  0  0  0  0  0  0  0  0
   21.4162   10.2485   31.6719 C   0  0  0  0  0  0  0  0  0  0  0  0
   21.7781    8.9972   31.3802 N   0  0  0  0  0  0  0  0  0  0  0  0
   21.0110    8.0071   31.7767 C   0  0  0  0  0  0  0  0  0  0  0  0
   21.5662    6.8375   31.3825 N   0  0  0  0  0  0  0  0  0  0  0  0
   22.4528    6.9488   30.9107 H   0  0  0  0  0  0  0  0  0  0  0  0
   20.8955    5.6714   31.1566 C   0  0  0  0  0  0  0  0  0  0  0  0
   19.7031    5.5754   31.4003 O   0  0  0  0  0  0  0  0  0  0  0  0
   21.5967    4.5717   30.3631 C   0  0  0  0  0  0  0  0  0  0  0  0
   20.9820    3.6680   30.3638 H   0  0  0  0  0  0  0  0  0  0  0  0
   21.6846    4.9186   29.3310 H   0  0  0  0  0  0  0  0  0  0  0  0
   22.9805    4.2665   30.9010 C   0  0  0  0  0  0  0  0  0  0  0  0
   23.1741    3.1519   31.7355 C   0  0  0  0  0  0  0  0  0  0  0  0
   22.3425    2.5009   31.9815 H   0  0  0  0  0  0  0  0  0  0  0  0
   24.4386    2.8500   32.2698 C   0  0  0  0  0  0  0  0  0  0  0  0
   24.6660    1.7843   33.1119 O   0  0  0  0  0  0  0  0  0  0  0  0
   23.6832    0.7410   33.1333 C   0  0  0  0  0  0  0  0  0  0  0  0
   22.7467    1.0934   33.5762 H   0  0  0  0  0  0  0  0  0  0  0  0
   24.0535   -0.0930   33.7369 H   0  0  0  0  0  0  0  0  0  0  0  0
   23.4905    0.3715   32.1207 H   0  0  0  0  0  0  0  0  0  0  0  0
   25.5201    3.6834   31.9438 C   0  0  0  0  0  0  0  0  0  0  0  0
   27.2705    3.3289   32.6342 Br  0  0  0  0  0  0  0  0  0  0  0  0
   25.3347    4.7879   31.1028 C   0  0  0  0  0  0  0  0  0  0  0  0
   26.1788    5.4187   30.8463 H   0  0  0  0  0  0  0  0  0  0  0  0
   24.0713    5.0982   30.5779 C   0  0  0  0  0  0  0  0  0  0  0  0
   23.8520    6.1852   29.7592 O   0  0  0  0  0  0  0  0  0  0  0  0
   24.9331    7.1124   29.5924 C   0  0  0  0  0  0  0  0  0  0  0  0
   24.5961    7.9599   28.9894 H   0  0  0  0  0  0  0  0  0  0  0  0
   25.2652    7.4935   30.5637 H   0  0  0  0  0  0  0  0  0  0  0  0
   25.7778    6.6418   29.0784 H   0  0  0  0  0  0  0  0  0  0  0  0
   19.8496    8.1779   32.4866 C   0  0  0  0  0  0  0  0  0  0  0  0
   19.2172    7.3622   32.7983 H   0  0  0  0  0  0  0  0  0  0  0  0
   19.5109    9.4525   32.8232 C   0  0  0  0  0  0  0  0  0  0  0  0
   18.4399    9.6338   33.6317 N   0  0  0  0  0  0  0  0  0  0  0  0
   18.7103    9.9953   34.5401 H   0  0  0  0  0  0  0  0  0  0  0  0
   17.6856   10.1598   33.2012 H   0  0  0  0  0  0  0  0  0  0  0  0
   20.2793   10.5148   32.4221 C   0  0  0  0  0  0  0  0  0  0  0  0
   19.9572   11.8431   32.8321 C   0  0  0  0  0  0  0  0  0  0  0  0
   19.7449   12.9358   33.1625 N   0  0  0  0  0  0  0  0  0  0  0  0
   21.7700   12.4415   30.4977 C   0  0  0  0  0  0  0  0  0  0  0  0
   20.7048   12.5437   30.2800 H   0  0  0  0  0  0  0  0  0  0  0  0
   22.6419   13.4386   30.0317 C   0  0  0  0  0  0  0  0  0  0  0  0
   22.2790   14.2913   29.4682 H   0  0  0  0  0  0  0  0  0  0  0  0
  1  2  1  0
  2  3  1  0
  3  4  2  0
  4  5  1  0
  4  6  1  0
  6  7  1  0
  6  8  2  0
  8  9  1  0
  9 10  2  0
 10 11  1  0
 11 12  1  0
 12 13  1  0
 12 14  1  0
 14 15  2  0
 14 16  1  0
 16 17  1  0
 16 18  1  0
 16 19  1  0
 19 20  2  0
 20 21  1  0
 20 22  1  0
 22 23  1  0
 23 24  1  0
 24 25  1  0
 24 26  1  0
 24 27  1  0
 22 28  2  0
 28 29  1  0
 28 30  1  0
 30 31  1  0
 30 32  2  0
 32 33  1  0
 33 34  1  0
 34 35  1  0
 34 36  1  0
 34 37  1  0
 11 38  2  0
 38 39  1  0
 38 40  1  0
 40 41  1  0
 41 42  1  0
 41 43  1  0
 40 44  2  0
 44 45  1  0
 45 46  3  0
  8 47  1  0
 47 48  1  0
 47 49  2  0
 49 50  1  0
 49  3  1  0
 44  9  1  0
 32 19  1  0
M  END
>  <score>  (280) 
7.63168

$$$$

     RDKit          3D

 59 61  0  0  0  0  0  0  0  0999 V2000
   26.1433    5.4542   30.8484 H   0  0  0  0  0  0  0  0  0  0  0  0
   25.3052    4.8130   31.1013 C   0  0  0  0  0  0  0  0  0  0  0  0
   25.4991    3.7131   31.9435 C   0  0  0  0  0  0  0  0  0  0  0  0
   27.2551    3.3860   32.6342 Br  0  0  0  0  0  0  0  0  0  0  0  0
   24.4246    2.8668   32.2608 C   0  0  0  0  0  0  0  0  0  0  0  0
   24.6606    1.7945   33.0903 O   0  0  0  0  0  0  0  0  0  0  0  0
   23.6630    0.7654   33.1116 C   0  0  0  0  0  0  0  0  0  0  0  0
   22.7306    1.1362   33.5469 H   0  0  0  0  0  0  0  0  0  0  0  0
   23.4626    0.3981   32.1001 H   0  0  0  0  0  0  0  0  0  0  0  0
   24.0174   -0.0735   33.7171 H   0  0  0  0  0  0  0  0  0  0  0  0
   23.1579    3.1541   31.7208 C   0  0  0  0  0  0  0  0  0  0  0  0
   22.3260    2.5024   31.9699 H   0  0  0  0  0  0  0  0  0  0  0  0
   22.9606    4.2588   30.8767 C   0  0  0  0  0  0  0  0  0  0  0  0
   21.5774    4.5446   30.3359 C   0  0  0  0  0  0  0  0  0  0  0  0
   20.9408    3.6573   30.4036 H   0  0  0  0  0  0  0  0  0  0  0  0
   21.6551    4.8251   29.2821 H   0  0  0  0  0  0  0  0  0  0  0  0
   20.9295    5.6921   31.0970 C   0  0  0  0  0  0  0  0  0  0  0  0
   19.8664    5.5360   31.6751 O   0  0  0  0  0  0  0  0  0  0  0  0
   21.5042    6.9252   31.0371 N   0  0  0  0  0  0  0  0  0  0  0  0
   22.3561    7.0548   30.5109 H   0  0  0  0  0  0  0  0  0  0  0  0
   20.9729    8.0478   31.5414 C   0  0  0  0  0  0  0  0  0  0  0  0
   21.6945    9.0611   31.1582 N   0  0  0  0  0  0  0  0  0  0  0  0
   21.3278   10.2511   31.5872 C   0  0  0  0  0  0  0  0  0  0  0  0
   22.1585   11.2774   31.1908 N   0  0  0  0  0  0  0  0  0  0  0  0
   21.7287   12.1775   30.0944 C   0  0  0  0  0  0  0  0  0  0  0  0
   22.0537   13.2059   30.2919 H   0  0  0  0  0  0  0  0  0  0  0  0
   20.6378   12.1927   30.0147 H   0  0  0  0  0  0  0  0  0  0  0  0
   22.3161   11.7281   28.7515 C   0  0  0  0  0  0  0  0  0  0  0  0
   21.6500   12.0220   27.9319 H   0  0  0  0  0  0  0  0  0  0  0  0
   22.3873   10.6329   28.7458 H   0  0  0  0  0  0  0  0  0  0  0  0
   23.6575   12.3210   28.5247 N   0  0  0  0  0  0  0  0  0  0  0  0
   23.7143   13.6036   27.7956 C   0  0  0  0  0  0  0  0  0  0  0  0
   24.6894   13.7001   27.3100 H   0  0  0  0  0  0  0  0  0  0  0  0
   22.9490   13.6676   27.0146 H   0  0  0  0  0  0  0  0  0  0  0  0
   23.5674   14.4446   28.4822 H   0  0  0  0  0  0  0  0  0  0  0  0
   24.7202   12.1180   29.5315 C   0  0  0  0  0  0  0  0  0  0  0  0
   25.6915   12.0865   29.0267 H   0  0  0  0  0  0  0  0  0  0  0  0
   24.7563   12.9780   30.2102 H   0  0  0  0  0  0  0  0  0  0  0  0
   24.5099   10.8407   30.3447 C   0  0  0  0  0  0  0  0  0  0  0  0
   25.4766   10.4993   30.7232 H   0  0  0  0  0  0  0  0  0  0  0  0
   24.1047   10.0380   29.7252 H   0  0  0  0  0  0  0  0  0  0  0  0
   23.5948   11.1667   31.5173 C   0  0  0  0  0  0  0  0  0  0  0  0
   23.9248   12.1282   31.9293 H   0  0  0  0  0  0  0  0  0  0  0  0
   23.7405   10.3950   32.2819 H   0  0  0  0  0  0  0  0  0  0  0  0
   20.2493   10.4719   32.4141 C   0  0  0  0  0  0  0  0  0  0  0  0
   19.9374   11.7834   32.8676 C   0  0  0  0  0  0  0  0  0  0  0  0
   19.7055   12.8649   33.2274 N   0  0  0  0  0  0  0  0  0  0  0  0
   19.5444    9.3721   32.8175 C   0  0  0  0  0  0  0  0  0  0  0  0
   18.5352    9.4696   33.7139 N   0  0  0  0  0  0  0  0  0  0  0  0
   18.1472   10.3911   33.8954 H   0  0  0  0  0  0  0  0  0  0  0  0
   17.9516    8.6498   33.8602 H   0  0  0  0  0  0  0  0  0  0  0  0
   19.8790    8.1336   32.3630 C   0  0  0  0  0  0  0  0  0  0  0  0
   19.3254    7.2624   32.6702 H   0  0  0  0  0  0  0  0  0  0  0  0
   24.0429    5.1065   30.5641 C   0  0  0  0  0  0  0  0  0  0  0  0
   23.8243    6.2012   29.7552 O   0  0  0  0  0  0  0  0  0  0  0  0
   24.9282    7.1046   29.5987 C   0  0  0  0  0  0  0  0  0  0  0  0
   25.2554    7.4823   30.5727 H   0  0  0  0  0  0  0  0  0  0  0  0
   24.6285    7.9551   28.9807 H   0  0  0  0  0  0  0  0  0  0  0  0
   25.7727    6.6045   29.1136 H   0  0  0  0  0  0  0  0  0  0  0  0
  1  2  1  0
  2  3  2  0
  3  4  1  0
  3  5  1  0
  5  6  1  0
  6  7  1  0
  7  8  1  0
  7  9  1  0
  7 10  1  0
  5 11  2  0
 11 12  1  0
 11 13  1  0
 13 14  1  0
 14 15  1  0
 14 16  1  0
 14 17  1  0
 17 18  2  0
 17 19  1  0
 19 20  1  0
 19 21  1  0
 21 22  2  0
 22 23  1  0
 23 24  1  0
 24 25  1  0
 25 26  1  0
 25 27  1  0
 25 28  1  0
 28 29  1  0
 28 30  1  0
 28 31  1  0
 31 32  1  0
 32 33  1  0
 32 34  1  0
 32 35  1  0
 31 36  1  0
 36 37  1  0
 36 38  1  0
 36 39  1  0
 39 40  1  0
 39 41  1  0
 39 42  1  0
 42 43  1  0
 42 44  1  0
 23 45  2  0
 45 46  1  0
 46 47  3  0
 45 48  1  0
 48 49  1  0
 49 50  1  0
 49 51  1  0
 48 52  2  0
 52 53  1  0
 13 54  2  0
 54 55  1  0
 55 56  1  0
 56 57  1  0
 56 58  1  0
 56 59  1  0
 54  2  1  0
 52 21  1  0
 42 24  1  0
M  END
>  <score>  (281) 
7.63428

$$$$

     RDKit          3D

 53 56  0  0  0  0  0  0  0  0999 V2000
   26.0949    5.5370   30.9279 H   0  0  0  0  0  0  0  0  0  0  0  0
   25.2590    4.8876   31.1670 C   0  0  0  0  0  0  0  0  0  0  0  0
   25.4716    3.7640   31.9738 C   0  0  0  0  0  0  0  0  0  0  0  0
   27.2281    3.4185   32.6542 Br  0  0  0  0  0  0  0  0  0  0  0  0
   24.4095    2.8947   32.2626 C   0  0  0  0  0  0  0  0  0  0  0  0
   24.6484    1.7758   33.0267 O   0  0  0  0  0  0  0  0  0  0  0  0
   23.6006    0.7957   33.0677 C   0  0  0  0  0  0  0  0  0  0  0  0
   23.3745    0.4253   32.0614 H   0  0  0  0  0  0  0  0  0  0  0  0
   22.6914    1.2258   33.4990 H   0  0  0  0  0  0  0  0  0  0  0  0
   23.9127   -0.0514   33.6858 H   0  0  0  0  0  0  0  0  0  0  0  0
   23.1391    3.1941   31.7507 C   0  0  0  0  0  0  0  0  0  0  0  0
   22.3148    2.5266   31.9801 H   0  0  0  0  0  0  0  0  0  0  0  0
   22.9145    4.3180   30.9470 C   0  0  0  0  0  0  0  0  0  0  0  0
   21.5080    4.5271   30.4270 C   0  0  0  0  0  0  0  0  0  0  0  0
   21.5475    4.7922   29.3685 H   0  0  0  0  0  0  0  0  0  0  0  0
   20.9447    3.5941   30.5148 H   0  0  0  0  0  0  0  0  0  0  0  0
   20.7746    5.6310   31.1841 C   0  0  0  0  0  0  0  0  0  0  0  0
   19.6642    5.4500   31.6565 O   0  0  0  0  0  0  0  0  0  0  0  0
   21.3219    6.8772   31.1632 N   0  0  0  0  0  0  0  0  0  0  0  0
   22.0877    7.0365   30.5250 H   0  0  0  0  0  0  0  0  0  0  0  0
   20.6874    7.9981   31.5788 C   0  0  0  0  0  0  0  0  0  0  0  0
   21.2089    9.0582   31.0076 N   0  0  0  0  0  0  0  0  0  0  0  0
   20.7739   10.2821   31.3551 C   0  0  0  0  0  0  0  0  0  0  0  0
   21.5456   11.4378   30.8617 C   0  0  0  0  0  0  0  0  0  0  0  0
   21.0359   12.6283   30.2892 C   0  0  0  0  0  0  0  0  0  0  0  0
   19.9793   12.7517   30.0704 H   0  0  0  0  0  0  0  0  0  0  0  0
   21.9104   13.6872   29.9729 C   0  0  0  0  0  0  0  0  0  0  0  0
   21.5190   14.6019   29.5388 H   0  0  0  0  0  0  0  0  0  0  0  0
   23.2864   13.5801   30.2265 C   0  0  0  0  0  0  0  0  0  0  0  0
   23.9758   14.3785   29.9789 H   0  0  0  0  0  0  0  0  0  0  0  0
   23.7759   12.4031   30.7836 C   0  0  0  0  0  0  0  0  0  0  0  0
   22.9178   11.3576   31.0600 C   0  0  0  0  0  0  0  0  0  0  0  0
   23.6905   10.2549   31.5884 C   0  0  0  0  0  0  0  0  0  0  0  0
   23.3097    9.2804   31.8775 H   0  0  0  0  0  0  0  0  0  0  0  0
   24.9867   10.6742   31.6471 C   0  0  0  0  0  0  0  0  0  0  0  0
   25.8052   10.0710   32.0245 H   0  0  0  0  0  0  0  0  0  0  0  0
   25.0362   11.9856   31.1630 N   0  0  0  0  0  0  0  0  0  0  0  0
   25.8704   12.5667   31.0996 H   0  0  0  0  0  0  0  0  0  0  0  0
   19.7609   10.4428   32.2940 C   0  0  0  0  0  0  0  0  0  0  0  0
   19.3662   11.7325   32.7512 C   0  0  0  0  0  0  0  0  0  0  0  0
   19.0743   12.7998   33.1123 N   0  0  0  0  0  0  0  0  0  0  0  0
   19.2475    9.3042   32.8661 C   0  0  0  0  0  0  0  0  0  0  0  0
   18.3224    9.3315   33.8463 N   0  0  0  0  0  0  0  0  0  0  0  0
   17.8794    8.4350   34.0331 H   0  0  0  0  0  0  0  0  0  0  0  0
   17.7649   10.1763   33.9126 H   0  0  0  0  0  0  0  0  0  0  0  0
   19.7037    8.0674   32.5281 C   0  0  0  0  0  0  0  0  0  0  0  0
   19.3375    7.1994   33.0517 H   0  0  0  0  0  0  0  0  0  0  0  0
   23.9885    5.1906   30.6469 C   0  0  0  0  0  0  0  0  0  0  0  0
   23.7799    6.3125   29.8699 O   0  0  0  0  0  0  0  0  0  0  0  0
   24.9328    7.1397   29.6213 C   0  0  0  0  0  0  0  0  0  0  0  0
   24.6616    7.9905   28.9882 H   0  0  0  0  0  0  0  0  0  0  0  0
   25.7150    6.5672   29.1108 H   0  0  0  0  0  0  0  0  0  0  0  0
   25.3414    7.5271   30.5613 H   0  0  0  0  0  0  0  0  0  0  0  0
  1  2  1  0
  2  3  2  0
  3  4  1  0
  3  5  1  0
  5  6  1  0
  6  7  1  0
  7  8  1  0
  7  9  1  0
  7 10  1  0
  5 11  2  0
 11 12  1  0
 11 13  1  0
 13 14  1  0
 14 15  1  0
 14 16  1  0
 14 17  1  0
 17 18  2  0
 17 19  1  0
 19 20  1  0
 19 21  1  0
 21 22  2  0
 22 23  1  0
 23 24  1  0
 24 25  2  0
 25 26  1  0
 25 27  1  0
 27 28  1  0
 27 29  2  0
 29 30  1  0
 29 31  1  0
 31 32  2  0
 32 33  1  0
 33 34  1  0
 33 35  2  0
 35 36  1  0
 35 37  1  0
 37 38  1  0
 23 39  2  0
 39 40  1  0
 40 41  3  0
 39 42  1  0
 42 43  1  0
 43 44  1  0
 43 45  1  0
 42 46  2  0
 46 47  1  0
 13 48  2  0
 48 49  1  0
 49 50  1  0
 50 51  1  0
 50 52  1  0
 50 53  1  0
 48  2  1  0
 46 21  1  0
 32 24  1  0
 37 31  1  0
M  END
>  <score>  (282) 
7.63498

$$$$

     RDKit          3D

 64 66  0  0  0  0  0  0  0  0999 V2000
   26.1372    5.4790   30.8855 H   0  0  0  0  0  0  0  0  0  0  0  0
   25.3057    4.8257   31.1232 C   0  0  0  0  0  0  0  0  0  0  0  0
   25.5079    3.7212   31.9571 C   0  0  0  0  0  0  0  0  0  0  0  0
   27.2610    3.3967   32.6597 Br  0  0  0  0  0  0  0  0  0  0  0  0
   24.4373    2.8652   32.2606 C   0  0  0  0  0  0  0  0  0  0  0  0
   24.6637    1.7804   33.0746 O   0  0  0  0  0  0  0  0  0  0  0  0
   23.6399    0.7764   33.0974 C   0  0  0  0  0  0  0  0  0  0  0  0
   23.4306    0.4155   32.0854 H   0  0  0  0  0  0  0  0  0  0  0  0
   23.9679   -0.0715   33.7067 H   0  0  0  0  0  0  0  0  0  0  0  0
   22.7168    1.1786   33.5248 H   0  0  0  0  0  0  0  0  0  0  0  0
   23.1716    3.1477   31.7226 C   0  0  0  0  0  0  0  0  0  0  0  0
   22.3377    2.4977   31.9731 H   0  0  0  0  0  0  0  0  0  0  0  0
   22.9738    4.2467   30.8783 C   0  0  0  0  0  0  0  0  0  0  0  0
   21.5920    4.5034   30.3352 C   0  0  0  0  0  0  0  0  0  0  0  0
   21.6468    4.7141   29.2661 H   0  0  0  0  0  0  0  0  0  0  0  0
   20.9616    3.6211   30.4699 H   0  0  0  0  0  0  0  0  0  0  0  0
   20.9603    5.6871   31.0494 C   0  0  0  0  0  0  0  0  0  0  0  0
   19.8206    5.6043   31.4748 O   0  0  0  0  0  0  0  0  0  0  0  0
   21.6438    6.8653   31.1531 N   0  0  0  0  0  0  0  0  0  0  0  0
   22.5153    6.9716   30.6578 H   0  0  0  0  0  0  0  0  0  0  0  0
   21.1238    7.9936   31.6612 C   0  0  0  0  0  0  0  0  0  0  0  0
   21.7859    9.0545   31.2644 N   0  0  0  0  0  0  0  0  0  0  0  0
   21.3719   10.2474   31.6950 C   0  0  0  0  0  0  0  0  0  0  0  0
   22.0349   11.3804   31.2905 O   0  0  0  0  0  0  0  0  0  0  0  0
   23.2412   11.1840   30.5335 C   0  0  0  0  0  0  0  0  0  0  0  0
   23.0283   10.6447   29.6030 H   0  0  0  0  0  0  0  0  0  0  0  0
   23.9439   10.5782   31.1162 H   0  0  0  0  0  0  0  0  0  0  0  0
   23.8721   12.5385   30.2029 C   0  0  0  0  0  0  0  0  0  0  0  0
   24.0962   13.0792   31.1280 H   0  0  0  0  0  0  0  0  0  0  0  0
   24.8118   12.3781   29.6640 H   0  0  0  0  0  0  0  0  0  0  0  0
   22.9220   13.3654   29.3370 C   0  0  0  0  0  0  0  0  0  0  0  0
   22.7517   12.8419   28.3906 H   0  0  0  0  0  0  0  0  0  0  0  0
   21.9592   13.4622   29.8556 H   0  0  0  0  0  0  0  0  0  0  0  0
   23.4764   14.7017   29.0629 N   0  0  0  0  0  0  0  0  0  0  0  0
   24.8233   14.7617   28.4483 C   0  0  0  0  0  0  0  0  0  0  0  0
   25.5829   14.4729   29.1840 H   0  0  0  0  0  0  0  0  0  0  0  0
   24.8748   14.0538   27.6167 H   0  0  0  0  0  0  0  0  0  0  0  0
   25.1193   16.1695   27.9200 C   0  0  0  0  0  0  0  0  0  0  0  0
   25.1125   16.8670   28.7587 H   0  0  0  0  0  0  0  0  0  0  0  0
   26.1163   16.2030   27.4787 H   0  0  0  0  0  0  0  0  0  0  0  0
   24.0775   16.6234   26.8845 C   0  0  0  0  0  0  0  0  0  0  0  0
   24.3939   16.3233   25.8817 H   0  0  0  0  0  0  0  0  0  0  0  0
   24.0138   17.7155   26.8976 H   0  0  0  0  0  0  0  0  0  0  0  0
   22.6944   16.0222   27.1625 C   0  0  0  0  0  0  0  0  0  0  0  0
   22.5989   15.0872   26.6110 H   0  0  0  0  0  0  0  0  0  0  0  0
   21.9133   16.6974   26.8136 H   0  0  0  0  0  0  0  0  0  0  0  0
   22.4982   15.7266   28.6430 C   0  0  0  0  0  0  0  0  0  0  0  0
   21.4789   15.3820   28.8394 H   0  0  0  0  0  0  0  0  0  0  0  0
   22.6439   16.6450   29.2160 H   0  0  0  0  0  0  0  0  0  0  0  0
   20.2847   10.3775   32.5343 C   0  0  0  0  0  0  0  0  0  0  0  0
   19.8562   11.6573   32.9857 C   0  0  0  0  0  0  0  0  0  0  0  0
   19.5245   12.7200   33.3127 N   0  0  0  0  0  0  0  0  0  0  0  0
   19.6320    9.2492   32.9223 C   0  0  0  0  0  0  0  0  0  0  0  0
   18.5391    9.3101   33.7081 N   0  0  0  0  0  0  0  0  0  0  0  0
   17.8738   10.0457   33.4905 H   0  0  0  0  0  0  0  0  0  0  0  0
   18.1817    8.4186   34.0318 H   0  0  0  0  0  0  0  0  0  0  0  0
   20.0508    8.0320   32.5064 C   0  0  0  0  0  0  0  0  0  0  0  0
   19.5472    7.1381   32.8359 H   0  0  0  0  0  0  0  0  0  0  0  0
   24.0443    5.1148   30.5830 C   0  0  0  0  0  0  0  0  0  0  0  0
   23.8211    6.2274   29.7983 O   0  0  0  0  0  0  0  0  0  0  0  0
   24.9381    7.1087   29.6097 C   0  0  0  0  0  0  0  0  0  0  0  0
   25.7560    6.5847   29.1062 H   0  0  0  0  0  0  0  0  0  0  0  0
   25.3025    7.4822   30.5720 H   0  0  0  0  0  0  0  0  0  0  0  0
   24.6411    7.9633   28.9951 H   0  0  0  0  0  0  0  0  0  0  0  0
  1  2  1  0
  2  3  2  0
  3  4  1  0
  3  5  1  0
  5  6  1  0
  6  7  1  0
  7  8  1  0
  7  9  1  0
  7 10  1  0
  5 11  2  0
 11 12  1  0
 11 13  1  0
 13 14  1  0
 14 15  1  0
 14 16  1  0
 14 17  1  0
 17 18  2  0
 17 19  1  0
 19 20  1  0
 19 21  1  0
 21 22  2  0
 22 23  1  0
 23 24  1  0
 24 25  1  0
 25 26  1  0
 25 27  1  0
 25 28  1  0
 28 29  1  0
 28 30  1  0
 28 31  1  0
 31 32  1  0
 31 33  1  0
 31 34  1  0
 34 35  1  0
 35 36  1  0
 35 37  1  0
 35 38  1  0
 38 39  1  0
 38 40  1  0
 38 41  1  0
 41 42  1  0
 41 43  1  0
 41 44  1  0
 44 45  1  0
 44 46  1  0
 44 47  1  0
 47 48  1  0
 47 49  1  0
 23 50  2  0
 50 51  1  0
 51 52  3  0
 50 53  1  0
 53 54  1  0
 54 55  1  0
 54 56  1  0
 53 57  2  0
 57 58  1  0
 13 59  2  0
 59 60  1  0
 60 61  1  0
 61 62  1  0
 61 63  1  0
 61 64  1  0
 59  2  1  0
 57 21  1  0
 47 34  1  0
M  END
>  <score>  (283) 
7.63638

$$$$

     RDKit          3D

 58 60  0  0  0  0  0  0  0  0999 V2000
   26.1519    5.4615   30.8710 H   0  0  0  0  0  0  0  0  0  0  0  0
   25.3152    4.8165   31.1165 C   0  0  0  0  0  0  0  0  0  0  0  0
   25.5150    3.7121   31.9506 C   0  0  0  0  0  0  0  0  0  0  0  0
   27.2683    3.3897   32.6504 Br  0  0  0  0  0  0  0  0  0  0  0  0
   24.4423    2.8615   32.2631 C   0  0  0  0  0  0  0  0  0  0  0  0
   24.6731    1.7803   33.0815 O   0  0  0  0  0  0  0  0  0  0  0  0
   23.6567    0.7682   33.1052 C   0  0  0  0  0  0  0  0  0  0  0  0
   23.9947   -0.0761   33.7135 H   0  0  0  0  0  0  0  0  0  0  0  0
   23.4495    0.4033   32.0934 H   0  0  0  0  0  0  0  0  0  0  0  0
   22.7302    1.1591   33.5375 H   0  0  0  0  0  0  0  0  0  0  0  0
   23.1746    3.1476   31.7290 C   0  0  0  0  0  0  0  0  0  0  0  0
   22.3403    2.4988   31.9780 H   0  0  0  0  0  0  0  0  0  0  0  0
   22.9753    4.2492   30.8860 C   0  0  0  0  0  0  0  0  0  0  0  0
   21.5929    4.5205   30.3385 C   0  0  0  0  0  0  0  0  0  0  0  0
   21.6583    4.7672   29.2755 H   0  0  0  0  0  0  0  0  0  0  0  0
   20.9505    3.6423   30.4488 H   0  0  0  0  0  0  0  0  0  0  0  0
   20.9618    5.6970   31.0592 C   0  0  0  0  0  0  0  0  0  0  0  0
   19.8069    5.6383   31.4491 O   0  0  0  0  0  0  0  0  0  0  0  0
   21.6473    6.8718   31.1351 N   0  0  0  0  0  0  0  0  0  0  0  0
   22.5501    6.9611   30.6898 H   0  0  0  0  0  0  0  0  0  0  0  0
   21.1109    8.0003   31.6258 C   0  0  0  0  0  0  0  0  0  0  0  0
   21.7869    9.0569   31.2602 N   0  0  0  0  0  0  0  0  0  0  0  0
   21.3807   10.2442   31.7152 C   0  0  0  0  0  0  0  0  0  0  0  0
   22.0976   11.3677   31.4017 O   0  0  0  0  0  0  0  0  0  0  0  0
   23.2452   11.1747   30.5638 C   0  0  0  0  0  0  0  0  0  0  0  0
   23.8029   10.2829   30.8741 H   0  0  0  0  0  0  0  0  0  0  0  0
   22.7652   10.9963   29.1225 C   0  0  0  0  0  0  0  0  0  0  0  0
   23.6212   10.8382   28.4590 H   0  0  0  0  0  0  0  0  0  0  0  0
   22.1139   10.1219   29.0544 H   0  0  0  0  0  0  0  0  0  0  0  0
   22.0149   12.2468   28.6797 C   0  0  0  0  0  0  0  0  0  0  0  0
   21.1475   12.4132   29.3298 H   0  0  0  0  0  0  0  0  0  0  0  0
   21.6446   12.1285   27.6532 H   0  0  0  0  0  0  0  0  0  0  0  0
   22.9557   13.3789   28.7854 N   0  0  0  0  0  0  0  0  0  0  0  0
   22.5903   14.5713   28.0101 C   0  0  0  0  0  0  0  0  0  0  0  0
   21.6233   14.9584   28.3440 H   0  0  0  0  0  0  0  0  0  0  0  0
   23.3393   15.3623   28.1254 H   0  0  0  0  0  0  0  0  0  0  0  0
   22.5279   14.3123   26.9484 H   0  0  0  0  0  0  0  0  0  0  0  0
   23.4921   13.6435   30.1308 C   0  0  0  0  0  0  0  0  0  0  0  0
   22.6868   13.9582   30.7980 H   0  0  0  0  0  0  0  0  0  0  0  0
   24.2323   14.4472   30.0834 H   0  0  0  0  0  0  0  0  0  0  0  0
   24.1588   12.3940   30.6837 C   0  0  0  0  0  0  0  0  0  0  0  0
   24.4347   12.5540   31.7273 H   0  0  0  0  0  0  0  0  0  0  0  0
   25.0743   12.2137   30.1196 H   0  0  0  0  0  0  0  0  0  0  0  0
   20.2715   10.3826   32.5261 C   0  0  0  0  0  0  0  0  0  0  0  0
   19.8705   11.6705   32.9848 C   0  0  0  0  0  0  0  0  0  0  0  0
   19.5645   12.7488   33.2986 N   0  0  0  0  0  0  0  0  0  0  0  0
   19.6089    9.2447   32.8867 C   0  0  0  0  0  0  0  0  0  0  0  0
   18.5381    9.3029   33.7050 N   0  0  0  0  0  0  0  0  0  0  0  0
   17.8437   10.0064   33.4714 H   0  0  0  0  0  0  0  0  0  0  0  0
   18.2258    8.4234   34.1088 H   0  0  0  0  0  0  0  0  0  0  0  0
   20.0224    8.0294   32.4511 C   0  0  0  0  0  0  0  0  0  0  0  0
   19.5185    7.1253   32.7495 H   0  0  0  0  0  0  0  0  0  0  0  0
   24.0507    5.1088   30.5847 C   0  0  0  0  0  0  0  0  0  0  0  0
   23.8241    6.2154   29.7940 O   0  0  0  0  0  0  0  0  0  0  0  0
   24.9359    7.1046   29.6105 C   0  0  0  0  0  0  0  0  0  0  0  0
   25.7601    6.5913   29.1039 H   0  0  0  0  0  0  0  0  0  0  0  0
   25.2938    7.4782   30.5760 H   0  0  0  0  0  0  0  0  0  0  0  0
   24.6325    7.9600   28.9996 H   0  0  0  0  0  0  0  0  0  0  0  0
  1  2  1  0
  2  3  2  0
  3  4  1  0
  3  5  1  0
  5  6  1  0
  6  7  1  0
  7  8  1  0
  7  9  1  0
  7 10  1  0
  5 11  2  0
 11 12  1  0
 11 13  1  0
 13 14  1  0
 14 15  1  0
 14 16  1  0
 14 17  1  0
 17 18  2  0
 17 19  1  0
 19 20  1  0
 19 21  1  0
 21 22  2  0
 22 23  1  0
 23 24  1  0
 24 25  1  0
 25 26  1  0
 25 27  1  0
 27 28  1  0
 27 29  1  0
 27 30  1  0
 30 31  1  0
 30 32  1  0
 30 33  1  0
 33 34  1  0
 34 35  1  0
 34 36  1  0
 34 37  1  0
 33 38  1  0
 38 39  1  0
 38 40  1  0
 38 41  1  0
 41 42  1  0
 41 43  1  0
 23 44  2  0
 44 45  1  0
 45 46  3  0
 44 47  1  0
 47 48  1  0
 48 49  1  0
 48 50  1  0
 47 51  2  0
 51 52  1  0
 13 53  2  0
 53 54  1  0
 54 55  1  0
 55 56  1  0
 55 57  1  0
 55 58  1  0
 53  2  1  0
 51 21  1  0
 41 25  1  0
M  END
>  <score>  (284) 
7.63685

$$$$

     RDKit          3D

 51 53  0  0  0  0  0  0  0  0999 V2000
   25.6115   12.5359   28.5900 H   0  0  0  0  0  0  0  0  0  0  0  0
   25.1996   11.8789   29.3506 C   0  0  0  0  0  0  0  0  0  0  0  0
   23.9097   12.0943   29.8571 C   0  0  0  0  0  0  0  0  0  0  0  0
   23.2793   12.8801   29.4634 H   0  0  0  0  0  0  0  0  0  0  0  0
   23.3879   11.2189   30.8114 C   0  0  0  0  0  0  0  0  0  0  0  0
   22.0812   11.3443   31.2461 N   0  0  0  0  0  0  0  0  0  0  0  0
   21.5694   12.1948   31.0674 H   0  0  0  0  0  0  0  0  0  0  0  0
   21.3490   10.2750   31.6805 C   0  0  0  0  0  0  0  0  0  0  0  0
   21.7215    9.0896   31.2384 N   0  0  0  0  0  0  0  0  0  0  0  0
   20.9896    8.0667   31.5758 C   0  0  0  0  0  0  0  0  0  0  0  0
   21.4891    6.9542   31.0059 N   0  0  0  0  0  0  0  0  0  0  0  0
   22.3446    7.0806   30.4858 H   0  0  0  0  0  0  0  0  0  0  0  0
   20.9306    5.7161   31.0767 C   0  0  0  0  0  0  0  0  0  0  0  0
   19.8741    5.5482   31.6669 O   0  0  0  0  0  0  0  0  0  0  0  0
   21.5892    4.5689   30.3260 C   0  0  0  0  0  0  0  0  0  0  0  0
   21.6850    4.8456   29.2704 H   0  0  0  0  0  0  0  0  0  0  0  0
   20.9440    3.6917   30.3903 H   0  0  0  0  0  0  0  0  0  0  0  0
   22.9638    4.2682   30.8859 C   0  0  0  0  0  0  0  0  0  0  0  0
   23.1589    3.1575   31.7270 C   0  0  0  0  0  0  0  0  0  0  0  0
   22.3269    2.5048   31.9730 H   0  0  0  0  0  0  0  0  0  0  0  0
   24.4277    2.8648   32.2626 C   0  0  0  0  0  0  0  0  0  0  0  0
   24.6616    1.7946   33.0977 O   0  0  0  0  0  0  0  0  0  0  0  0
   23.6743    0.7534   33.1231 C   0  0  0  0  0  0  0  0  0  0  0  0
   24.0391   -0.0841   33.7278 H   0  0  0  0  0  0  0  0  0  0  0  0
   22.7378    1.1125   33.5608 H   0  0  0  0  0  0  0  0  0  0  0  0
   23.4761    0.3842   32.1118 H   0  0  0  0  0  0  0  0  0  0  0  0
   25.5072    3.7031   31.9395 C   0  0  0  0  0  0  0  0  0  0  0  0
   27.2609    3.3560   32.6307 Br  0  0  0  0  0  0  0  0  0  0  0  0
   25.3152    4.8041   31.0988 C   0  0  0  0  0  0  0  0  0  0  0  0
   26.1614    5.4320   30.8430 H   0  0  0  0  0  0  0  0  0  0  0  0
   24.0510    5.1067   30.5708 C   0  0  0  0  0  0  0  0  0  0  0  0
   23.8368    6.1944   29.7510 O   0  0  0  0  0  0  0  0  0  0  0  0
   24.9310    7.1100   29.5957 C   0  0  0  0  0  0  0  0  0  0  0  0
   24.6058    7.9791   29.0162 H   0  0  0  0  0  0  0  0  0  0  0  0
   25.2795    7.4550   30.5737 H   0  0  0  0  0  0  0  0  0  0  0  0
   25.7678    6.6376   29.0705 H   0  0  0  0  0  0  0  0  0  0  0  0
   19.8905    8.1493   32.3836 C   0  0  0  0  0  0  0  0  0  0  0  0
   19.3106    7.2846   32.6536 H   0  0  0  0  0  0  0  0  0  0  0  0
   19.5558    9.3802   32.8508 C   0  0  0  0  0  0  0  0  0  0  0  0
   18.5115    9.4867   33.6900 N   0  0  0  0  0  0  0  0  0  0  0  0
   17.9453    8.6595   33.8714 H   0  0  0  0  0  0  0  0  0  0  0  0
   18.1695   10.4192   33.9069 H   0  0  0  0  0  0  0  0  0  0  0  0
   20.2652   10.4830   32.4862 C   0  0  0  0  0  0  0  0  0  0  0  0
   19.9319   11.7982   32.9141 C   0  0  0  0  0  0  0  0  0  0  0  0
   19.6996   12.8995   33.2025 N   0  0  0  0  0  0  0  0  0  0  0  0
   24.1562   10.1639   31.2901 C   0  0  0  0  0  0  0  0  0  0  0  0
   23.7248    9.5102   32.0455 H   0  0  0  0  0  0  0  0  0  0  0  0
   25.4286    9.9345   30.7737 C   0  0  0  0  0  0  0  0  0  0  0  0
   26.0042    9.0898   31.1229 H   0  0  0  0  0  0  0  0  0  0  0  0
   25.9557   10.7837   29.7948 C   0  0  0  0  0  0  0  0  0  0  0  0
   27.5783   10.4939   29.2139 Cl  0  0  0  0  0  0  0  0  0  0  0  0
  1  2  1  0
  2  3  2  0
  3  4  1  0
  3  5  1  0
  5  6  1  0
  6  7  1  0
  6  8  1  0
  8  9  2  0
  9 10  1  0
 10 11  1  0
 11 12  1  0
 11 13  1  0
 13 14  2  0
 13 15  1  0
 15 16  1  0
 15 17  1  0
 15 18  1  0
 18 19  2  0
 19 20  1  0
 19 21  1  0
 21 22  1  0
 22 23  1  0
 23 24  1  0
 23 25  1  0
 23 26  1  0
 21 27  2  0
 27 28  1  0
 27 29  1  0
 29 30  1  0
 29 31  2  0
 31 32  1  0
 32 33  1  0
 33 34  1  0
 33 35  1  0
 33 36  1  0
 10 37  2  0
 37 38  1  0
 37 39  1  0
 39 40  1  0
 40 41  1  0
 40 42  1  0
 39 43  2  0
 43 44  1  0
 44 45  3  0
  5 46  2  0
 46 47  1  0
 46 48  1  0
 48 49  1  0
 48 50  2  0
 50 51  1  0
 50  2  1  0
 43  8  1  0
 31 18  1  0
M  END
>  <score>  (285) 
7.63702

$$$$

     RDKit          3D

 53 55  0  0  0  0  0  0  0  0999 V2000
   26.1469    5.4542   30.8620 H   0  0  0  0  0  0  0  0  0  0  0  0
   25.3101    4.8087   31.1076 C   0  0  0  0  0  0  0  0  0  0  0  0
   25.5148    3.7109   31.9471 C   0  0  0  0  0  0  0  0  0  0  0  0
   27.2722    3.4042   32.6475 Br  0  0  0  0  0  0  0  0  0  0  0  0
   24.4432    2.8599   32.2613 C   0  0  0  0  0  0  0  0  0  0  0  0
   24.6747    1.7823   33.0849 O   0  0  0  0  0  0  0  0  0  0  0  0
   23.6587    0.7695   33.1063 C   0  0  0  0  0  0  0  0  0  0  0  0
   22.7320    1.1614   33.5369 H   0  0  0  0  0  0  0  0  0  0  0  0
   23.4555    0.4102   32.0920 H   0  0  0  0  0  0  0  0  0  0  0  0
   23.9925   -0.0785   33.7125 H   0  0  0  0  0  0  0  0  0  0  0  0
   23.1717    3.1476   31.7302 C   0  0  0  0  0  0  0  0  0  0  0  0
   22.3430    2.4937   31.9802 H   0  0  0  0  0  0  0  0  0  0  0  0
   22.9598    4.2558   30.8969 C   0  0  0  0  0  0  0  0  0  0  0  0
   21.5642    4.5419   30.3759 C   0  0  0  0  0  0  0  0  0  0  0  0
   21.6253    4.8456   29.3283 H   0  0  0  0  0  0  0  0  0  0  0  0
   20.9395    3.6482   30.4437 H   0  0  0  0  0  0  0  0  0  0  0  0
   20.8979    5.6717   31.1464 C   0  0  0  0  0  0  0  0  0  0  0  0
   19.7267    5.6017   31.4814 O   0  0  0  0  0  0  0  0  0  0  0  0
   21.5998    6.8214   31.3348 N   0  0  0  0  0  0  0  0  0  0  0  0
   22.4707    6.9366   30.8372 H   0  0  0  0  0  0  0  0  0  0  0  0
   21.0603    7.9645   31.7815 C   0  0  0  0  0  0  0  0  0  0  0  0
   21.7992    8.9753   31.4026 N   0  0  0  0  0  0  0  0  0  0  0  0
   21.3948   10.2089   31.7067 C   0  0  0  0  0  0  0  0  0  0  0  0
   22.2489   11.3059   31.2233 C   0  0  0  0  0  0  0  0  0  0  0  0
   23.6336   11.2156   31.4071 C   0  0  0  0  0  0  0  0  0  0  0  0
   24.0625   10.3826   31.9587 H   0  0  0  0  0  0  0  0  0  0  0  0
   24.4850   12.1811   30.8894 C   0  0  0  0  0  0  0  0  0  0  0  0
   25.5493   12.0690   31.0478 H   0  0  0  0  0  0  0  0  0  0  0  0
   24.0020   13.2366   30.1103 C   0  0  0  0  0  0  0  0  0  0  0  0
   24.9715   14.1168   29.4477 C   0  0  0  0  0  0  0  0  0  0  0  0
   26.1737   14.0268   29.6325 O   0  0  0  0  0  0  0  0  0  0  0  0
   24.6329   15.0030   28.4683 N   0  0  0  0  0  0  0  0  0  0  0  0
   25.3892   15.6040   28.1596 H   0  0  0  0  0  0  0  0  0  0  0  0
   23.6683   15.2880   28.3746 H   0  0  0  0  0  0  0  0  0  0  0  0
   22.6063   13.3594   29.9502 C   0  0  0  0  0  0  0  0  0  0  0  0
   22.1890   14.1440   29.3252 H   0  0  0  0  0  0  0  0  0  0  0  0
   21.7331   12.4198   30.5272 C   0  0  0  0  0  0  0  0  0  0  0  0
   20.6606   12.5265   30.3688 H   0  0  0  0  0  0  0  0  0  0  0  0
   20.2366   10.4341   32.4343 C   0  0  0  0  0  0  0  0  0  0  0  0
   19.8798   11.7549   32.8308 C   0  0  0  0  0  0  0  0  0  0  0  0
   19.6178   12.8313   33.1811 N   0  0  0  0  0  0  0  0  0  0  0  0
   19.4966    9.3430   32.8215 C   0  0  0  0  0  0  0  0  0  0  0  0
   18.3465    9.4819   33.5272 N   0  0  0  0  0  0  0  0  0  0  0  0
   18.1155   10.3910   33.9232 H   0  0  0  0  0  0  0  0  0  0  0  0
   17.9290    8.6418   33.9181 H   0  0  0  0  0  0  0  0  0  0  0  0
   19.8970    8.0817   32.4924 C   0  0  0  0  0  0  0  0  0  0  0  0
   19.3176    7.2168   32.7729 H   0  0  0  0  0  0  0  0  0  0  0  0
   24.0418    5.1022   30.5796 C   0  0  0  0  0  0  0  0  0  0  0  0
   23.8210    6.2014   29.7792 O   0  0  0  0  0  0  0  0  0  0  0  0
   24.9321    7.0934   29.6098 C   0  0  0  0  0  0  0  0  0  0  0  0
   24.6313    7.9512   29.0017 H   0  0  0  0  0  0  0  0  0  0  0  0
   25.2785    7.4592   30.5823 H   0  0  0  0  0  0  0  0  0  0  0  0
   25.7613    6.5825   29.1093 H   0  0  0  0  0  0  0  0  0  0  0  0
  1  2  1  0
  2  3  2  0
  3  4  1  0
  3  5  1  0
  5  6  1  0
  6  7  1  0
  7  8  1  0
  7  9  1  0
  7 10  1  0
  5 11  2  0
 11 12  1  0
 11 13  1  0
 13 14  1  0
 14 15  1  0
 14 16  1  0
 14 17  1  0
 17 18  2  0
 17 19  1  0
 19 20  1  0
 19 21  1  0
 21 22  2  0
 22 23  1  0
 23 24  1  0
 24 25  2  0
 25 26  1  0
 25 27  1  0
 27 28  1  0
 27 29  2  0
 29 30  1  0
 30 31  2  0
 30 32  1  0
 32 33  1  0
 32 34  1  0
 29 35  1  0
 35 36  1  0
 35 37  2  0
 37 38  1  0
 23 39  2  0
 39 40  1  0
 40 41  3  0
 39 42  1  0
 42 43  1  0
 43 44  1  0
 43 45  1  0
 42 46  2  0
 46 47  1  0
 13 48  2  0
 48 49  1  0
 49 50  1  0
 50 51  1  0
 50 52  1  0
 50 53  1  0
 48  2  1  0
 46 21  1  0
 37 24  1  0
M  END
>  <score>  (286) 
7.63719

$$$$

     RDKit          3D

 50 52  0  0  0  0  0  0  0  0999 V2000
   26.1719    5.4286   30.8516 H   0  0  0  0  0  0  0  0  0  0  0  0
   25.3305    4.7913   31.1029 C   0  0  0  0  0  0  0  0  0  0  0  0
   25.5221    3.6895   31.9473 C   0  0  0  0  0  0  0  0  0  0  0  0
   27.2758    3.3453   32.6399 Br  0  0  0  0  0  0  0  0  0  0  0  0
   24.4438    2.8493   32.2708 C   0  0  0  0  0  0  0  0  0  0  0  0
   24.6724    1.7823   33.1121 O   0  0  0  0  0  0  0  0  0  0  0  0
   23.6805    0.7463   33.1298 C   0  0  0  0  0  0  0  0  0  0  0  0
   23.4833    0.3817   32.1165 H   0  0  0  0  0  0  0  0  0  0  0  0
   24.0410   -0.0931   33.7324 H   0  0  0  0  0  0  0  0  0  0  0  0
   22.7440    1.1076   33.5656 H   0  0  0  0  0  0  0  0  0  0  0  0
   23.1782    3.1361   31.7292 C   0  0  0  0  0  0  0  0  0  0  0  0
   22.3452    2.4882   31.9832 H   0  0  0  0  0  0  0  0  0  0  0  0
   22.9849    4.2361   30.8780 C   0  0  0  0  0  0  0  0  0  0  0  0
   21.6019    4.5206   30.3358 C   0  0  0  0  0  0  0  0  0  0  0  0
   20.9875    3.6202   30.3542 H   0  0  0  0  0  0  0  0  0  0  0  0
   21.6779    4.8659   29.3028 H   0  0  0  0  0  0  0  0  0  0  0  0
   20.9183    5.6101   31.1424 C   0  0  0  0  0  0  0  0  0  0  0  0
   19.7324    5.5515   31.4123 O   0  0  0  0  0  0  0  0  0  0  0  0
   21.6153    6.7515   31.3838 N   0  0  0  0  0  0  0  0  0  0  0  0
   22.4681    6.8814   30.8654 H   0  0  0  0  0  0  0  0  0  0  0  0
   21.0473    7.9049   31.7829 C   0  0  0  0  0  0  0  0  0  0  0  0
   21.7984    8.9271   31.4359 N   0  0  0  0  0  0  0  0  0  0  0  0
   21.4254   10.2012   31.7169 C   0  0  0  0  0  0  0  0  0  0  0  0
   22.2780   11.3804   31.2246 C   0  0  0  0  0  0  0  0  0  0  0  0
   23.5058   11.3525   31.3007 O   0  0  0  0  0  0  0  0  0  0  0  0
   21.7493   12.5662   30.7010 N   0  0  0  0  0  0  0  0  0  0  0  0
   20.7544   12.6030   30.5013 H   0  0  0  0  0  0  0  0  0  0  0  0
   22.5848   13.6085   30.1251 C   0  0  0  0  0  0  0  0  0  0  0  0
   23.2624   14.1270   30.8146 H   0  0  0  0  0  0  0  0  0  0  0  0
   21.9885   14.4271   28.9971 C   0  0  0  0  0  0  0  0  0  0  0  0
   20.9647   14.1973   28.6895 H   0  0  0  0  0  0  0  0  0  0  0  0
   22.2693   15.4820   28.9399 H   0  0  0  0  0  0  0  0  0  0  0  0
   23.0706   13.3926   28.7032 C   0  0  0  0  0  0  0  0  0  0  0  0
   22.7725   12.4696   28.1976 H   0  0  0  0  0  0  0  0  0  0  0  0
   24.0687   13.7595   28.4502 H   0  0  0  0  0  0  0  0  0  0  0  0
   20.2267   10.3866   32.4330 C   0  0  0  0  0  0  0  0  0  0  0  0
   19.8276   11.6873   32.8618 C   0  0  0  0  0  0  0  0  0  0  0  0
   19.5902   12.7577   33.2461 N   0  0  0  0  0  0  0  0  0  0  0  0
   19.4582    9.2850   32.7643 C   0  0  0  0  0  0  0  0  0  0  0  0
   18.3025    9.3501   33.4738 N   0  0  0  0  0  0  0  0  0  0  0  0
   17.6645    8.5864   33.2747 H   0  0  0  0  0  0  0  0  0  0  0  0
   18.4498    9.5066   34.4669 H   0  0  0  0  0  0  0  0  0  0  0  0
   19.8596    8.0309   32.4366 C   0  0  0  0  0  0  0  0  0  0  0  0
   19.2777    7.1683   32.7032 H   0  0  0  0  0  0  0  0  0  0  0  0
   24.0674    5.0848   30.5674 C   0  0  0  0  0  0  0  0  0  0  0  0
   23.8437    6.1800   29.7589 O   0  0  0  0  0  0  0  0  0  0  0  0
   24.9294    7.1054   29.5965 C   0  0  0  0  0  0  0  0  0  0  0  0
   25.2661    7.4807   30.5681 H   0  0  0  0  0  0  0  0  0  0  0  0
   24.5998    7.9574   28.9935 H   0  0  0  0  0  0  0  0  0  0  0  0
   25.7756    6.6307   29.0895 H   0  0  0  0  0  0  0  0  0  0  0  0
  1  2  1  0
  2  3  2  0
  3  4  1  0
  3  5  1  0
  5  6  1  0
  6  7  1  0
  7  8  1  0
  7  9  1  0
  7 10  1  0
  5 11  2  0
 11 12  1  0
 11 13  1  0
 13 14  1  0
 14 15  1  0
 14 16  1  0
 14 17  1  0
 17 18  2  0
 17 19  1  0
 19 20  1  0
 19 21  1  0
 21 22  2  0
 22 23  1  0
 23 24  1  0
 24 25  2  0
 24 26  1  0
 26 27  1  0
 26 28  1  0
 28 29  1  0
 28 30  1  0
 30 31  1  0
 30 32  1  0
 30 33  1  0
 33 34  1  0
 33 35  1  0
 23 36  2  0
 36 37  1  0
 37 38  3  0
 36 39  1  0
 39 40  1  0
 40 41  1  0
 40 42  1  0
 39 43  2  0
 43 44  1  0
 13 45  2  0
 45 46  1  0
 46 47  1  0
 47 48  1  0
 47 49  1  0
 47 50  1  0
 45  2  1  0
 43 21  1  0
 33 28  1  0
M  END
>  <score>  (287) 
7.63902

$$$$

     RDKit          3D

 46 48  0  0  0  0  0  0  0  0999 V2000
   24.2469   12.6669   28.7842 H   0  0  0  0  0  0  0  0  0  0  0  0
   23.6398   12.5002   29.6675 C   0  0  0  0  0  0  0  0  0  0  0  0
   23.5565   13.6283   31.0091 S   0  0  0  0  0  0  0  0  0  0  0  0
   22.4452   12.5561   31.8451 C   0  0  0  0  0  0  0  0  0  0  0  0
   22.0920   12.7548   32.8520 H   0  0  0  0  0  0  0  0  0  0  0  0
   22.1518   11.4122   31.1306 C   0  0  0  0  0  0  0  0  0  0  0  0
   21.3146   10.2911   31.5983 C   0  0  0  0  0  0  0  0  0  0  0  0
   21.6230    9.0801   31.1277 N   0  0  0  0  0  0  0  0  0  0  0  0
   20.9130    8.0514   31.5146 C   0  0  0  0  0  0  0  0  0  0  0  0
   21.4363    6.9269   30.9948 N   0  0  0  0  0  0  0  0  0  0  0  0
   22.3190    7.0504   30.5170 H   0  0  0  0  0  0  0  0  0  0  0  0
   20.9101    5.6760   31.0930 C   0  0  0  0  0  0  0  0  0  0  0  0
   19.8542    5.5066   31.6832 O   0  0  0  0  0  0  0  0  0  0  0  0
   21.5776    4.5413   30.3321 C   0  0  0  0  0  0  0  0  0  0  0  0
   21.6638    4.8267   29.2781 H   0  0  0  0  0  0  0  0  0  0  0  0
   20.9430    3.6541   30.3938 H   0  0  0  0  0  0  0  0  0  0  0  0
   22.9573    4.2556   30.8826 C   0  0  0  0  0  0  0  0  0  0  0  0
   23.1587    3.1499   31.7253 C   0  0  0  0  0  0  0  0  0  0  0  0
   22.3300    2.4927   31.9721 H   0  0  0  0  0  0  0  0  0  0  0  0
   24.4279    2.8656   32.2621 C   0  0  0  0  0  0  0  0  0  0  0  0
   24.6630    1.7939   33.0933 O   0  0  0  0  0  0  0  0  0  0  0  0
   23.6676    0.7611   33.1164 C   0  0  0  0  0  0  0  0  0  0  0  0
   24.0232   -0.0797   33.7211 H   0  0  0  0  0  0  0  0  0  0  0  0
   23.4681    0.3964   32.1038 H   0  0  0  0  0  0  0  0  0  0  0  0
   22.7336    1.1306   33.5502 H   0  0  0  0  0  0  0  0  0  0  0  0
   25.5017    3.7127   31.9419 C   0  0  0  0  0  0  0  0  0  0  0  0
   27.2585    3.3812   32.6327 Br  0  0  0  0  0  0  0  0  0  0  0  0
   25.3027    4.8098   31.0994 C   0  0  0  0  0  0  0  0  0  0  0  0
   26.1425    5.4472   30.8448 H   0  0  0  0  0  0  0  0  0  0  0  0
   24.0387    5.1031   30.5673 C   0  0  0  0  0  0  0  0  0  0  0  0
   23.8260    6.1932   29.7509 O   0  0  0  0  0  0  0  0  0  0  0  0
   24.9287    7.0996   29.5981 C   0  0  0  0  0  0  0  0  0  0  0  0
   24.6216    7.9602   28.9965 H   0  0  0  0  0  0  0  0  0  0  0  0
   25.7707    6.6082   29.0994 H   0  0  0  0  0  0  0  0  0  0  0  0
   25.2642    7.4598   30.5759 H   0  0  0  0  0  0  0  0  0  0  0  0
   19.8501    8.1337   32.3801 C   0  0  0  0  0  0  0  0  0  0  0  0
   19.3079    7.2579   32.6922 H   0  0  0  0  0  0  0  0  0  0  0  0
   19.5510    9.3658   32.8863 C   0  0  0  0  0  0  0  0  0  0  0  0
   18.5362    9.4655   33.7857 N   0  0  0  0  0  0  0  0  0  0  0  0
   17.9281    8.6547   33.8700 H   0  0  0  0  0  0  0  0  0  0  0  0
   18.1302   10.3858   33.9251 H   0  0  0  0  0  0  0  0  0  0  0  0
   20.2717   10.4686   32.4991 C   0  0  0  0  0  0  0  0  0  0  0  0
   19.9319   11.7726   32.9642 C   0  0  0  0  0  0  0  0  0  0  0  0
   19.6839   12.8530   33.3097 N   0  0  0  0  0  0  0  0  0  0  0  0
   22.8370   11.4043   29.8407 C   0  0  0  0  0  0  0  0  0  0  0  0
   22.7471   10.6033   29.1082 H   0  0  0  0  0  0  0  0  0  0  0  0
  1  2  1  0
  2  3  1  0
  3  4  1  0
  4  5  1  0
  4  6  2  0
  6  7  1  0
  7  8  2  0
  8  9  1  0
  9 10  1  0
 10 11  1  0
 10 12  1  0
 12 13  2  0
 12 14  1  0
 14 15  1  0
 14 16  1  0
 14 17  1  0
 17 18  2  0
 18 19  1  0
 18 20  1  0
 20 21  1  0
 21 22  1  0
 22 23  1  0
 22 24  1  0
 22 25  1  0
 20 26  2  0
 26 27  1  0
 26 28  1  0
 28 29  1  0
 28 30  2  0
 30 31  1  0
 31 32  1  0
 32 33  1  0
 32 34  1  0
 32 35  1  0
  9 36  2  0
 36 37  1  0
 36 38  1  0
 38 39  1  0
 39 40  1  0
 39 41  1  0
 38 42  2  0
 42 43  1  0
 43 44  3  0
  6 45  1  0
 45 46  1  0
 45  2  2  0
 42  7  1  0
 30 17  1  0
M  END
>  <score>  (288) 
7.6399

$$$$

     RDKit          3D

 55 57  0  0  0  0  0  0  0  0999 V2000
   22.9094    9.7403   26.9399 H   0  0  0  0  0  0  0  0  0  0  0  0
   23.2977   10.3291   27.7636 C   0  0  0  0  0  0  0  0  0  0  0  0
   22.5656   10.4611   28.9467 C   0  0  0  0  0  0  0  0  0  0  0  0
   21.6109    9.9430   29.0310 H   0  0  0  0  0  0  0  0  0  0  0  0
   23.0454   11.2700   29.9955 C   0  0  0  0  0  0  0  0  0  0  0  0
   22.2502   11.3975   31.2363 C   0  0  0  0  0  0  0  0  0  0  0  0
   22.2500   12.4786   31.8408 O   0  0  0  0  0  0  0  0  0  0  0  0
   21.4101   10.2294   31.6997 C   0  0  0  0  0  0  0  0  0  0  0  0
   21.7477    8.9876   31.2794 N   0  0  0  0  0  0  0  0  0  0  0  0
   21.0759    7.9293   31.6897 C   0  0  0  0  0  0  0  0  0  0  0  0
   21.5925    6.7991   31.1741 N   0  0  0  0  0  0  0  0  0  0  0  0
   22.4289    6.9369   30.6267 H   0  0  0  0  0  0  0  0  0  0  0  0
   20.9169    5.6221   31.0463 C   0  0  0  0  0  0  0  0  0  0  0  0
   19.7788    5.5229   31.4723 O   0  0  0  0  0  0  0  0  0  0  0  0
   21.5727    4.4574   30.3260 C   0  0  0  0  0  0  0  0  0  0  0  0
   20.9549    3.5637   30.4469 H   0  0  0  0  0  0  0  0  0  0  0  0
   21.6272    4.6867   29.2618 H   0  0  0  0  0  0  0  0  0  0  0  0
   22.9606    4.2233   30.8726 C   0  0  0  0  0  0  0  0  0  0  0  0
   23.1742    3.1255   31.7154 C   0  0  0  0  0  0  0  0  0  0  0  0
   22.3542    2.4596   31.9679 H   0  0  0  0  0  0  0  0  0  0  0  0
   24.4410    2.8561   32.2578 C   0  0  0  0  0  0  0  0  0  0  0  0
   24.6754    1.7748   33.0742 O   0  0  0  0  0  0  0  0  0  0  0  0
   23.6473    0.7756   33.0989 C   0  0  0  0  0  0  0  0  0  0  0  0
   23.9680   -0.0739   33.7075 H   0  0  0  0  0  0  0  0  0  0  0  0
   22.7262    1.1830   33.5249 H   0  0  0  0  0  0  0  0  0  0  0  0
   23.4358    0.4163   32.0872 H   0  0  0  0  0  0  0  0  0  0  0  0
   25.5031    3.7231   31.9569 C   0  0  0  0  0  0  0  0  0  0  0  0
   27.2608    3.4251   32.6618 Br  0  0  0  0  0  0  0  0  0  0  0  0
   25.2888    4.8263   31.1234 C   0  0  0  0  0  0  0  0  0  0  0  0
   26.1110    5.4934   30.8875 H   0  0  0  0  0  0  0  0  0  0  0  0
   24.0247    5.1023   30.5798 C   0  0  0  0  0  0  0  0  0  0  0  0
   23.7966    6.2160   29.7983 O   0  0  0  0  0  0  0  0  0  0  0  0
   24.9196    7.0941   29.6140 C   0  0  0  0  0  0  0  0  0  0  0  0
   24.6306    7.9523   29.0020 H   0  0  0  0  0  0  0  0  0  0  0  0
   25.7377    6.5689   29.1107 H   0  0  0  0  0  0  0  0  0  0  0  0
   25.2849    7.4651   30.5776 H   0  0  0  0  0  0  0  0  0  0  0  0
   20.0168    7.9957   32.5435 C   0  0  0  0  0  0  0  0  0  0  0  0
   19.4990    7.1122   32.8721 H   0  0  0  0  0  0  0  0  0  0  0  0
   19.6242    9.2368   32.9463 C   0  0  0  0  0  0  0  0  0  0  0  0
   18.5257    9.3196   33.7264 N   0  0  0  0  0  0  0  0  0  0  0  0
   17.9211   10.1227   33.5478 H   0  0  0  0  0  0  0  0  0  0  0  0
   18.0985    8.4467   34.0178 H   0  0  0  0  0  0  0  0  0  0  0  0
   20.2987   10.3724   32.5414 C   0  0  0  0  0  0  0  0  0  0  0  0
   19.8533   11.6462   33.0040 C   0  0  0  0  0  0  0  0  0  0  0  0
   19.4744   12.6696   33.4114 N   0  0  0  0  0  0  0  0  0  0  0  0
   24.2797   11.9215   29.8372 C   0  0  0  0  0  0  0  0  0  0  0  0
   24.6836   12.5423   30.6350 H   0  0  0  0  0  0  0  0  0  0  0  0
   25.0033   11.7702   28.6466 C   0  0  0  0  0  0  0  0  0  0  0  0
   25.9577   12.2631   28.5174 H   0  0  0  0  0  0  0  0  0  0  0  0
   24.5126   10.9879   27.5903 C   0  0  0  0  0  0  0  0  0  0  0  0
   25.1460   10.8447   26.3773 O   0  0  0  0  0  0  0  0  0  0  0  0
   26.3668   11.5780   26.2073 C   0  0  0  0  0  0  0  0  0  0  0  0
   26.2085   12.6446   26.3982 H   0  0  0  0  0  0  0  0  0  0  0  0
   27.1349   11.2054   26.8924 H   0  0  0  0  0  0  0  0  0  0  0  0
   26.7356   11.4625   25.1831 H   0  0  0  0  0  0  0  0  0  0  0  0
  1  2  1  0
  2  3  2  0
  3  4  1  0
  3  5  1  0
  5  6  1  0
  6  7  2  0
  6  8  1  0
  8  9  2  0
  9 10  1  0
 10 11  1  0
 11 12  1  0
 11 13  1  0
 13 14  2  0
 13 15  1  0
 15 16  1  0
 15 17  1  0
 15 18  1  0
 18 19  2  0
 19 20  1  0
 19 21  1  0
 21 22  1  0
 22 23  1  0
 23 24  1  0
 23 25  1  0
 23 26  1  0
 21 27  2  0
 27 28  1  0
 27 29  1  0
 29 30  1  0
 29 31  2  0
 31 32  1  0
 32 33  1  0
 33 34  1  0
 33 35  1  0
 33 36  1  0
 10 37  2  0
 37 38  1  0
 37 39  1  0
 39 40  1  0
 40 41  1  0
 40 42  1  0
 39 43  2  0
 43 44  1  0
 44 45  3  0
  5 46  2  0
 46 47  1  0
 46 48  1  0
 48 49  1  0
 48 50  2  0
 50 51  1  0
 51 52  1  0
 52 53  1  0
 52 54  1  0
 52 55  1  0
 50  2  1  0
 43  8  1  0
 31 18  1  0
M  END
>  <score>  (289) 
7.6401

$$$$

     RDKit          3D

 57 59  0  0  0  0  0  0  0  0999 V2000
   26.1547    5.4333   30.8427 H   0  0  0  0  0  0  0  0  0  0  0  0
   25.3126    4.8007   31.0989 C   0  0  0  0  0  0  0  0  0  0  0  0
   25.5080    3.7009   31.9393 C   0  0  0  0  0  0  0  0  0  0  0  0
   27.2603    3.3568   32.6312 Br  0  0  0  0  0  0  0  0  0  0  0  0
   24.4303    2.8620   32.2644 C   0  0  0  0  0  0  0  0  0  0  0  0
   24.6629    1.7934   33.1008 O   0  0  0  0  0  0  0  0  0  0  0  0
   23.6754    0.7519   33.1248 C   0  0  0  0  0  0  0  0  0  0  0  0
   24.0393   -0.0864   33.7291 H   0  0  0  0  0  0  0  0  0  0  0  0
   22.7389    1.1117   33.5631 H   0  0  0  0  0  0  0  0  0  0  0  0
   23.4793    0.3845   32.1119 H   0  0  0  0  0  0  0  0  0  0  0  0
   23.1620    3.1511   31.7282 C   0  0  0  0  0  0  0  0  0  0  0  0
   22.3336    2.4936   31.9742 H   0  0  0  0  0  0  0  0  0  0  0  0
   22.9632    4.2584   30.8849 C   0  0  0  0  0  0  0  0  0  0  0  0
   21.5877    4.5457   30.3178 C   0  0  0  0  0  0  0  0  0  0  0  0
   21.6860    4.8346   29.2650 H   0  0  0  0  0  0  0  0  0  0  0  0
   20.9520    3.6615   30.3721 H   0  0  0  0  0  0  0  0  0  0  0  0
   20.9108    5.6761   31.0730 C   0  0  0  0  0  0  0  0  0  0  0  0
   19.8567    5.4990   31.6657 O   0  0  0  0  0  0  0  0  0  0  0  0
   21.4511    6.9215   30.9888 N   0  0  0  0  0  0  0  0  0  0  0  0
   22.3216    7.0421   30.4934 H   0  0  0  0  0  0  0  0  0  0  0  0
   20.9502    8.0429   31.5353 C   0  0  0  0  0  0  0  0  0  0  0  0
   21.6916    9.0628   31.1740 N   0  0  0  0  0  0  0  0  0  0  0  0
   21.3866   10.2660   31.6422 C   0  0  0  0  0  0  0  0  0  0  0  0
   22.2704   11.3837   31.2019 C   0  0  0  0  0  0  0  0  0  0  0  0
   23.2839   11.0095   31.0255 H   0  0  0  0  0  0  0  0  0  0  0  0
   22.3180   12.1492   31.9778 H   0  0  0  0  0  0  0  0  0  0  0  0
   21.6825   11.9598   29.9278 C   0  0  0  0  0  0  0  0  0  0  0  0
   20.6813   12.3556   30.1382 H   0  0  0  0  0  0  0  0  0  0  0  0
   21.5767   11.1731   29.1698 H   0  0  0  0  0  0  0  0  0  0  0  0
   22.5380   13.0388   29.4127 N   0  0  0  0  0  0  0  0  0  0  0  0
   21.8890   13.8584   28.3866 C   0  0  0  0  0  0  0  0  0  0  0  0
   21.1793   14.5616   28.8348 H   0  0  0  0  0  0  0  0  0  0  0  0
   21.3563   13.2172   27.6742 H   0  0  0  0  0  0  0  0  0  0  0  0
   23.0144   14.5929   27.6767 C   0  0  0  0  0  0  0  0  0  0  0  0
   22.8029   14.7021   26.6086 H   0  0  0  0  0  0  0  0  0  0  0  0
   23.1434   15.5895   28.1097 H   0  0  0  0  0  0  0  0  0  0  0  0
   24.2645   13.7523   27.9101 C   0  0  0  0  0  0  0  0  0  0  0  0
   24.5898   13.2825   26.9766 H   0  0  0  0  0  0  0  0  0  0  0  0
   25.0792   14.3803   28.2837 H   0  0  0  0  0  0  0  0  0  0  0  0
   23.8838   12.6820   28.9340 C   0  0  0  0  0  0  0  0  0  0  0  0
   23.8775   11.6985   28.4491 H   0  0  0  0  0  0  0  0  0  0  0  0
   24.5985   12.6637   29.7629 H   0  0  0  0  0  0  0  0  0  0  0  0
   20.2940   10.4745   32.4739 C   0  0  0  0  0  0  0  0  0  0  0  0
   19.9595   11.7879   32.9126 C   0  0  0  0  0  0  0  0  0  0  0  0
   19.6902   12.8727   33.2292 N   0  0  0  0  0  0  0  0  0  0  0  0
   19.5550    9.3765   32.8503 C   0  0  0  0  0  0  0  0  0  0  0  0
   18.5180    9.4809   33.7172 N   0  0  0  0  0  0  0  0  0  0  0  0
   18.1602   10.4106   33.9175 H   0  0  0  0  0  0  0  0  0  0  0  0
   17.9375    8.6599   33.8813 H   0  0  0  0  0  0  0  0  0  0  0  0
   19.8721    8.1390   32.3818 C   0  0  0  0  0  0  0  0  0  0  0  0
   19.3041    7.2788   32.6855 H   0  0  0  0  0  0  0  0  0  0  0  0
   24.0487    5.1009   30.5698 C   0  0  0  0  0  0  0  0  0  0  0  0
   23.8363    6.1859   29.7464 O   0  0  0  0  0  0  0  0  0  0  0  0
   24.9302    7.1040   29.5936 C   0  0  0  0  0  0  0  0  0  0  0  0
   24.6108    7.9604   28.9927 H   0  0  0  0  0  0  0  0  0  0  0  0
   25.2613    7.4723   30.5707 H   0  0  0  0  0  0  0  0  0  0  0  0
   25.7766    6.6256   29.0885 H   0  0  0  0  0  0  0  0  0  0  0  0
  1  2  1  0
  2  3  2  0
  3  4  1  0
  3  5  1  0
  5  6  1  0
  6  7  1  0
  7  8  1  0
  7  9  1  0
  7 10  1  0
  5 11  2  0
 11 12  1  0
 11 13  1  0
 13 14  1  0
 14 15  1  0
 14 16  1  0
 14 17  1  0
 17 18  2  0
 17 19  1  0
 19 20  1  0
 19 21  1  0
 21 22  2  0
 22 23  1  0
 23 24  1  0
 24 25  1  0
 24 26  1  0
 24 27  1  0
 27 28  1  0
 27 29  1  0
 27 30  1  0
 30 31  1  0
 31 32  1  0
 31 33  1  0
 31 34  1  0
 34 35  1  0
 34 36  1  0
 34 37  1  0
 37 38  1  0
 37 39  1  0
 37 40  1  0
 40 41  1  0
 40 42  1  0
 23 43  2  0
 43 44  1  0
 44 45  3  0
 43 46  1  0
 46 47  1  0
 47 48  1  0
 47 49  1  0
 46 50  2  0
 50 51  1  0
 13 52  2  0
 52 53  1  0
 53 54  1  0
 54 55  1  0
 54 56  1  0
 54 57  1  0
 52  2  1  0
 50 21  1  0
 40 30  1  0
M  END
>  <score>  (290) 
7.64075

$$$$

     RDKit          3D

 51 53  0  0  0  0  0  0  0  0999 V2000
   25.5692   12.3122   31.2369 H   0  0  0  0  0  0  0  0  0  0  0  0
   24.5078   12.3410   31.0143 C   0  0  0  0  0  0  0  0  0  0  0  0
   23.6684   11.3017   31.4350 C   0  0  0  0  0  0  0  0  0  0  0  0
   24.1048   10.4692   31.9831 H   0  0  0  0  0  0  0  0  0  0  0  0
   22.2762   11.3377   31.1951 C   0  0  0  0  0  0  0  0  0  0  0  0
   21.3971   10.2270   31.6689 C   0  0  0  0  0  0  0  0  0  0  0  0
   21.7615    8.9719   31.3652 N   0  0  0  0  0  0  0  0  0  0  0  0
   21.0026    7.9660   31.7476 C   0  0  0  0  0  0  0  0  0  0  0  0
   21.5749    6.8051   31.3817 N   0  0  0  0  0  0  0  0  0  0  0  0
   22.4696    6.9301   30.9363 H   0  0  0  0  0  0  0  0  0  0  0  0
   20.9072    5.6414   31.1282 C   0  0  0  0  0  0  0  0  0  0  0  0
   19.7202    5.5499   31.3898 O   0  0  0  0  0  0  0  0  0  0  0  0
   21.6133    4.5446   30.3335 C   0  0  0  0  0  0  0  0  0  0  0  0
   21.0059    3.6349   30.3227 H   0  0  0  0  0  0  0  0  0  0  0  0
   21.7137    4.8845   29.3010 H   0  0  0  0  0  0  0  0  0  0  0  0
   22.9928    4.2504   30.8834 C   0  0  0  0  0  0  0  0  0  0  0  0
   23.1780    3.1442   31.7309 C   0  0  0  0  0  0  0  0  0  0  0  0
   22.3432    2.4989   31.9806 H   0  0  0  0  0  0  0  0  0  0  0  0
   24.4388    2.8435   32.2728 C   0  0  0  0  0  0  0  0  0  0  0  0
   24.6636    1.7824   33.1227 O   0  0  0  0  0  0  0  0  0  0  0  0
   23.6892    0.7326   33.1413 C   0  0  0  0  0  0  0  0  0  0  0  0
   23.4982    0.3611   32.1301 H   0  0  0  0  0  0  0  0  0  0  0  0
   22.7510    1.0752   33.5855 H   0  0  0  0  0  0  0  0  0  0  0  0
   24.0695   -0.0963   33.7437 H   0  0  0  0  0  0  0  0  0  0  0  0
   25.5233    3.6740   31.9460 C   0  0  0  0  0  0  0  0  0  0  0  0
   27.2720    3.3051   32.6351 Br  0  0  0  0  0  0  0  0  0  0  0  0
   25.3442    4.7800   31.1012 C   0  0  0  0  0  0  0  0  0  0  0  0
   26.1889    5.4120   30.8460 H   0  0  0  0  0  0  0  0  0  0  0  0
   24.0835    5.0875   30.5688 C   0  0  0  0  0  0  0  0  0  0  0  0
   23.8625    6.1781   29.7540 O   0  0  0  0  0  0  0  0  0  0  0  0
   24.9317    7.1188   29.5872 C   0  0  0  0  0  0  0  0  0  0  0  0
   25.7801    6.6608   29.0711 H   0  0  0  0  0  0  0  0  0  0  0  0
   24.5818    7.9619   28.9855 H   0  0  0  0  0  0  0  0  0  0  0  0
   25.2620    7.5047   30.5556 H   0  0  0  0  0  0  0  0  0  0  0  0
   19.8464    8.1110   32.4592 C   0  0  0  0  0  0  0  0  0  0  0  0
   19.2399    7.2712   32.7637 H   0  0  0  0  0  0  0  0  0  0  0  0
   19.5099    9.3781   32.8280 C   0  0  0  0  0  0  0  0  0  0  0  0
   18.4469    9.4966   33.6528 N   0  0  0  0  0  0  0  0  0  0  0  0
   18.1409   10.4164   33.9475 H   0  0  0  0  0  0  0  0  0  0  0  0
   17.9131    8.6687   33.9044 H   0  0  0  0  0  0  0  0  0  0  0  0
   20.2574   10.4723   32.4344 C   0  0  0  0  0  0  0  0  0  0  0  0
   19.9364   11.8006   32.8549 C   0  0  0  0  0  0  0  0  0  0  0  0
   19.6991   12.8893   33.1929 N   0  0  0  0  0  0  0  0  0  0  0  0
   21.7661   12.4566   30.4913 C   0  0  0  0  0  0  0  0  0  0  0  0
   20.7143   12.5605   30.2491 H   0  0  0  0  0  0  0  0  0  0  0  0
   22.6166   13.4617   30.0353 C   0  0  0  0  0  0  0  0  0  0  0  0
   22.1134   14.5290   29.3285 N   0  0  0  0  0  0  0  0  0  0  0  0
   22.7536   15.2184   28.9461 H   0  0  0  0  0  0  0  0  0  0  0  0
   21.1309   14.5367   29.0729 H   0  0  0  0  0  0  0  0  0  0  0  0
   23.9757   13.4124   30.2963 C   0  0  0  0  0  0  0  0  0  0  0  0
   24.6071   14.2168   29.9407 H   0  0  0  0  0  0  0  0  0  0  0  0
  1  2  1  0
  2  3  2  0
  3  4  1  0
  3  5  1  0
  5  6  1  0
  6  7  2  0
  7  8  1  0
  8  9  1  0
  9 10  1  0
  9 11  1  0
 11 12  2  0
 11 13  1  0
 13 14  1  0
 13 15  1  0
 13 16  1  0
 16 17  2  0
 17 18  1  0
 17 19  1  0
 19 20  1  0
 20 21  1  0
 21 22  1  0
 21 23  1  0
 21 24  1  0
 19 25  2  0
 25 26  1  0
 25 27  1  0
 27 28  1  0
 27 29  2  0
 29 30  1  0
 30 31  1  0
 31 32  1  0
 31 33  1  0
 31 34  1  0
  8 35  2  0
 35 36  1  0
 35 37  1  0
 37 38  1  0
 38 39  1  0
 38 40  1  0
 37 41  2  0
 41 42  1  0
 42 43  3  0
  5 44  2  0
 44 45  1  0
 44 46  1  0
 46 47  1  0
 47 48  1  0
 47 49  1  0
 46 50  2  0
 50 51  1  0
 50  2  1  0
 41  6  1  0
 29 16  1  0
M  END
>  <score>  (291) 
7.64251

$$$$

     RDKit          3D

 48 50  0  0  0  0  0  0  0  0999 V2000
   24.4894   14.1499   29.9569 H   0  0  0  0  0  0  0  0  0  0  0  0
   23.8579   13.3432   30.3136 C   0  0  0  0  0  0  0  0  0  0  0  0
   22.5332   13.3925   30.0940 N   0  0  0  0  0  0  0  0  0  0  0  0
   21.7658   12.3925   30.5480 C   0  0  0  0  0  0  0  0  0  0  0  0
   20.6972   12.4422   30.3512 H   0  0  0  0  0  0  0  0  0  0  0  0
   22.3027   11.3000   31.2200 C   0  0  0  0  0  0  0  0  0  0  0  0
   21.4020   10.2549   31.6403 C   0  0  0  0  0  0  0  0  0  0  0  0
   21.6963    9.0422   31.2020 N   0  0  0  0  0  0  0  0  0  0  0  0
   20.9393    8.0381   31.5557 C   0  0  0  0  0  0  0  0  0  0  0  0
   21.4319    6.9295   30.9837 N   0  0  0  0  0  0  0  0  0  0  0  0
   22.3018    7.0676   30.4948 H   0  0  0  0  0  0  0  0  0  0  0  0
   20.8964    5.6828   31.0557 C   0  0  0  0  0  0  0  0  0  0  0  0
   19.8497    5.5005   31.6557 O   0  0  0  0  0  0  0  0  0  0  0  0
   21.5937    4.5504   30.3126 C   0  0  0  0  0  0  0  0  0  0  0  0
   20.9649    3.6564   30.3466 H   0  0  0  0  0  0  0  0  0  0  0  0
   21.7022    4.8489   29.2666 H   0  0  0  0  0  0  0  0  0  0  0  0
   22.9709    4.2651   30.8836 C   0  0  0  0  0  0  0  0  0  0  0  0
   23.1636    3.1537   31.7282 C   0  0  0  0  0  0  0  0  0  0  0  0
   22.3425    2.4908   31.9777 H   0  0  0  0  0  0  0  0  0  0  0  0
   24.4275    2.8513   32.2675 C   0  0  0  0  0  0  0  0  0  0  0  0
   24.6636    1.7887   33.1118 O   0  0  0  0  0  0  0  0  0  0  0  0
   23.6830    0.7457   33.1318 C   0  0  0  0  0  0  0  0  0  0  0  0
   24.0513   -0.0869   33.7329 H   0  0  0  0  0  0  0  0  0  0  0  0
   23.4891    0.3741   32.1225 H   0  0  0  0  0  0  0  0  0  0  0  0
   22.7461    1.0920   33.5733 H   0  0  0  0  0  0  0  0  0  0  0  0
   25.5090    3.6841   31.9410 C   0  0  0  0  0  0  0  0  0  0  0  0
   27.2632    3.3334   32.6317 Br  0  0  0  0  0  0  0  0  0  0  0  0
   25.3245    4.7917   31.1000 C   0  0  0  0  0  0  0  0  0  0  0  0
   26.1639    5.4287   30.8375 H   0  0  0  0  0  0  0  0  0  0  0  0
   24.0629    5.0995   30.5674 C   0  0  0  0  0  0  0  0  0  0  0  0
   23.8460    6.1824   29.7427 O   0  0  0  0  0  0  0  0  0  0  0  0
   24.9297    7.1086   29.5900 C   0  0  0  0  0  0  0  0  0  0  0  0
   24.6025    7.9590   28.9911 H   0  0  0  0  0  0  0  0  0  0  0  0
   25.2578    7.4862   30.5619 H   0  0  0  0  0  0  0  0  0  0  0  0
   25.7784    6.6447   29.0805 H   0  0  0  0  0  0  0  0  0  0  0  0
   19.8630    8.1446   32.3893 C   0  0  0  0  0  0  0  0  0  0  0  0
   19.2884    7.2961   32.7168 H   0  0  0  0  0  0  0  0  0  0  0  0
   19.5519    9.3958   32.8198 C   0  0  0  0  0  0  0  0  0  0  0  0
   18.5096    9.4978   33.6743 N   0  0  0  0  0  0  0  0  0  0  0  0
   18.1677   10.4203   33.9167 H   0  0  0  0  0  0  0  0  0  0  0  0
   17.9513    8.6730   33.8839 H   0  0  0  0  0  0  0  0  0  0  0  0
   20.2941   10.4926   32.4358 C   0  0  0  0  0  0  0  0  0  0  0  0
   19.9682   11.8130   32.8614 C   0  0  0  0  0  0  0  0  0  0  0  0
   19.6978   12.8919   33.2029 N   0  0  0  0  0  0  0  0  0  0  0  0
   23.6862   11.2289   31.4431 C   0  0  0  0  0  0  0  0  0  0  0  0
   24.1379   10.3880   31.9737 H   0  0  0  0  0  0  0  0  0  0  0  0
   24.4658   12.2928   31.0025 C   0  0  0  0  0  0  0  0  0  0  0  0
   25.5369   12.3080   31.1707 H   0  0  0  0  0  0  0  0  0  0  0  0
  1  2  1  0
  2  3  2  0
  3  4  1  0
  4  5  1  0
  4  6  2  0
  6  7  1  0
  7  8  2  0
  8  9  1  0
  9 10  1  0
 10 11  1  0
 10 12  1  0
 12 13  2  0
 12 14  1  0
 14 15  1  0
 14 16  1  0
 14 17  1  0
 17 18  2  0
 18 19  1  0
 18 20  1  0
 20 21  1  0
 21 22  1  0
 22 23  1  0
 22 24  1  0
 22 25  1  0
 20 26  2  0
 26 27  1  0
 26 28  1  0
 28 29  1  0
 28 30  2  0
 30 31  1  0
 31 32  1  0
 32 33  1  0
 32 34  1  0
 32 35  1  0
  9 36  2  0
 36 37  1  0
 36 38  1  0
 38 39  1  0
 39 40  1  0
 39 41  1  0
 38 42  2  0
 42 43  1  0
 43 44  3  0
  6 45  1  0
 45 46  1  0
 45 47  2  0
 47 48  1  0
 47  2  1  0
 42  7  1  0
 30 17  1  0
M  END
>  <score>  (292) 
7.64279

$$$$

     RDKit          3D

 53 55  0  0  0  0  0  0  0  0999 V2000
   26.1636    5.4400   30.8523 H   0  0  0  0  0  0  0  0  0  0  0  0
   25.3234    4.8002   31.1015 C   0  0  0  0  0  0  0  0  0  0  0  0
   25.5228    3.7020   31.9457 C   0  0  0  0  0  0  0  0  0  0  0  0
   27.2783    3.3715   32.6411 Br  0  0  0  0  0  0  0  0  0  0  0  0
   24.4483    2.8536   32.2658 C   0  0  0  0  0  0  0  0  0  0  0  0
   24.6749    1.7825   33.1031 O   0  0  0  0  0  0  0  0  0  0  0  0
   23.6736    0.7552   33.1216 C   0  0  0  0  0  0  0  0  0  0  0  0
   23.4738    0.3952   32.1086 H   0  0  0  0  0  0  0  0  0  0  0  0
   22.7403    1.1275   33.5525 H   0  0  0  0  0  0  0  0  0  0  0  0
   24.0223   -0.0890   33.7239 H   0  0  0  0  0  0  0  0  0  0  0  0
   23.1774    3.1415   31.7312 C   0  0  0  0  0  0  0  0  0  0  0  0
   22.3466    2.4888   31.9828 H   0  0  0  0  0  0  0  0  0  0  0  0
   22.9717    4.2527   30.8946 C   0  0  0  0  0  0  0  0  0  0  0  0
   21.5859    4.5644   30.3683 C   0  0  0  0  0  0  0  0  0  0  0  0
   21.6598    4.8871   29.3273 H   0  0  0  0  0  0  0  0  0  0  0  0
   20.9553    3.6774   30.4221 H   0  0  0  0  0  0  0  0  0  0  0  0
   20.9231    5.6902   31.1389 C   0  0  0  0  0  0  0  0  0  0  0  0
   19.7340    5.6399   31.4125 O   0  0  0  0  0  0  0  0  0  0  0  0
   21.6241    6.8384   31.3268 N   0  0  0  0  0  0  0  0  0  0  0  0
   22.4751    6.9660   30.7985 H   0  0  0  0  0  0  0  0  0  0  0  0
   21.0665    7.9836   31.7432 C   0  0  0  0  0  0  0  0  0  0  0  0
   21.8029    8.9968   31.3620 N   0  0  0  0  0  0  0  0  0  0  0  0
   21.4012   10.2254   31.6767 C   0  0  0  0  0  0  0  0  0  0  0  0
   22.2330   11.3901   31.2233 C   0  0  0  0  0  0  0  0  0  0  0  0
   21.6602   11.9799   30.5006 H   0  0  0  0  0  0  0  0  0  0  0  0
   22.4325   12.0187   32.0938 H   0  0  0  0  0  0  0  0  0  0  0  0
   23.5507   10.9487   30.5804 C   0  0  1  0  0  0  0  0  0  0  0  0
   24.1099   10.2997   31.2689 H   0  0  0  0  0  0  0  0  0  0  0  0
   23.2776   10.2401   29.3632 O   0  0  0  0  0  0  0  0  0  0  0  0
   23.8460   10.9610   28.2653 C   0  0  0  0  0  0  0  0  0  0  0  0
   23.0905   11.6401   27.8725 H   0  0  0  0  0  0  0  0  0  0  0  0
   24.1914   10.2949   27.4672 H   0  0  0  0  0  0  0  0  0  0  0  0
   24.9899   11.7583   28.8589 C   0  0  0  0  0  0  0  0  0  0  0  0
   25.8705   11.1178   28.9774 H   0  0  0  0  0  0  0  0  0  0  0  0
   25.2631   12.6305   28.2589 H   0  0  0  0  0  0  0  0  0  0  0  0
   24.4093   12.1538   30.1992 C   0  0  0  0  0  0  0  0  0  0  0  0
   25.1847   12.3488   30.9447 H   0  0  0  0  0  0  0  0  0  0  0  0
   23.7903   13.0533   30.0852 H   0  0  0  0  0  0  0  0  0  0  0  0
   20.2681   10.4424   32.4471 C   0  0  0  0  0  0  0  0  0  0  0  0
   19.9166   11.7560   32.8664 C   0  0  0  0  0  0  0  0  0  0  0  0
   19.6854   12.8366   33.2306 N   0  0  0  0  0  0  0  0  0  0  0  0
   19.5324    9.3553   32.8364 C   0  0  0  0  0  0  0  0  0  0  0  0
   18.4466    9.4897   33.6328 N   0  0  0  0  0  0  0  0  0  0  0  0
   17.9185    8.6582   33.8820 H   0  0  0  0  0  0  0  0  0  0  0  0
   18.1322   10.4189   33.9094 H   0  0  0  0  0  0  0  0  0  0  0  0
   19.9064    8.1036   32.4604 C   0  0  0  0  0  0  0  0  0  0  0  0
   19.3146    7.2530   32.7409 H   0  0  0  0  0  0  0  0  0  0  0  0
   24.0565    5.0939   30.5749 C   0  0  0  0  0  0  0  0  0  0  0  0
   23.8369    6.1884   29.7671 O   0  0  0  0  0  0  0  0  0  0  0  0
   24.9289    7.1031   29.6022 C   0  0  0  0  0  0  0  0  0  0  0  0
   25.7696    6.6158   29.1018 H   0  0  0  0  0  0  0  0  0  0  0  0
   24.6104    7.9570   28.9974 H   0  0  0  0  0  0  0  0  0  0  0  0
   25.2670    7.4723   30.5735 H   0  0  0  0  0  0  0  0  0  0  0  0
  1  2  1  0
  2  3  2  0
  3  4  1  0
  3  5  1  0
  5  6  1  0
  6  7  1  0
  7  8  1  0
  7  9  1  0
  7 10  1  0
  5 11  2  0
 11 12  1  0
 11 13  1  0
 13 14  1  0
 14 15  1  0
 14 16  1  0
 14 17  1  0
 17 18  2  0
 17 19  1  0
 19 20  1  0
 19 21  1  0
 21 22  2  0
 22 23  1  0
 23 24  1  0
 24 25  1  0
 24 26  1  0
 24 27  1  0
 27 28  1  1
 27 29  1  0
 29 30  1  0
 30 31  1  0
 30 32  1  0
 30 33  1  0
 33 34  1  0
 33 35  1  0
 33 36  1  0
 36 37  1  0
 36 38  1  0
 23 39  2  0
 39 40  1  0
 40 41  3  0
 39 42  1  0
 42 43  1  0
 43 44  1  0
 43 45  1  0
 42 46  2  0
 46 47  1  0
 13 48  2  0
 48 49  1  0
 49 50  1  0
 50 51  1  0
 50 52  1  0
 50 53  1  0
 48  2  1  0
 46 21  1  0
 36 27  1  0
M  END
>  <score>  (293) 
7.64497

$$$$

     RDKit          3D

 51 53  0  0  0  0  0  0  0  0999 V2000
   25.7309   14.1167   30.1333 H   0  0  0  0  0  0  0  0  0  0  0  0
   24.8415   14.3231   29.8011 O   0  0  0  0  0  0  0  0  0  0  0  0
   23.9453   13.3941   30.2658 C   0  0  0  0  0  0  0  0  0  0  0  0
   24.4727   12.3258   30.9835 C   0  0  0  0  0  0  0  0  0  0  0  0
   25.5356   12.3086   31.1803 H   0  0  0  0  0  0  0  0  0  0  0  0
   23.6558   11.2853   31.4253 C   0  0  0  0  0  0  0  0  0  0  0  0
   24.0987   10.4566   31.9769 H   0  0  0  0  0  0  0  0  0  0  0  0
   22.2673   11.3236   31.2026 C   0  0  0  0  0  0  0  0  0  0  0  0
   21.4161   10.2060   31.6762 C   0  0  0  0  0  0  0  0  0  0  0  0
   21.8168    8.9630   31.3829 N   0  0  0  0  0  0  0  0  0  0  0  0
   21.0686    7.9504   31.7582 C   0  0  0  0  0  0  0  0  0  0  0  0
   21.6239    6.7914   31.3582 N   0  0  0  0  0  0  0  0  0  0  0  0
   22.4889    6.9114   30.8459 H   0  0  0  0  0  0  0  0  0  0  0  0
   20.9260    5.6418   31.1332 C   0  0  0  0  0  0  0  0  0  0  0  0
   19.7370    5.5767   31.4042 O   0  0  0  0  0  0  0  0  0  0  0  0
   21.6058    4.5373   30.3417 C   0  0  0  0  0  0  0  0  0  0  0  0
   20.9859    3.6402   30.3680 H   0  0  0  0  0  0  0  0  0  0  0  0
   21.6859    4.8756   29.3056 H   0  0  0  0  0  0  0  0  0  0  0  0
   22.9857    4.2435   30.8854 C   0  0  0  0  0  0  0  0  0  0  0  0
   23.1775    3.1406   31.7318 C   0  0  0  0  0  0  0  0  0  0  0  0
   22.3410    2.4953   31.9822 H   0  0  0  0  0  0  0  0  0  0  0  0
   24.4434    2.8515   32.2696 C   0  0  0  0  0  0  0  0  0  0  0  0
   24.6696    1.7855   33.1109 O   0  0  0  0  0  0  0  0  0  0  0  0
   23.6800    0.7461   33.1299 C   0  0  0  0  0  0  0  0  0  0  0  0
   23.4831    0.3807   32.1167 H   0  0  0  0  0  0  0  0  0  0  0  0
   24.0428   -0.0934   33.7329 H   0  0  0  0  0  0  0  0  0  0  0  0
   22.7427    1.1057   33.5661 H   0  0  0  0  0  0  0  0  0  0  0  0
   25.5227    3.6902   31.9461 C   0  0  0  0  0  0  0  0  0  0  0  0
   27.2748    3.3400   32.6390 Br  0  0  0  0  0  0  0  0  0  0  0  0
   25.3311    4.7899   31.1014 C   0  0  0  0  0  0  0  0  0  0  0  0
   26.1732    5.4251   30.8501 H   0  0  0  0  0  0  0  0  0  0  0  0
   24.0682    5.0894   30.5704 C   0  0  0  0  0  0  0  0  0  0  0  0
   23.8462    6.1832   29.7595 O   0  0  0  0  0  0  0  0  0  0  0  0
   24.9313    7.1090   29.5945 C   0  0  0  0  0  0  0  0  0  0  0  0
   25.2686    7.4852   30.5658 H   0  0  0  0  0  0  0  0  0  0  0  0
   24.5998    7.9599   28.9907 H   0  0  0  0  0  0  0  0  0  0  0  0
   25.7767    6.6333   29.0869 H   0  0  0  0  0  0  0  0  0  0  0  0
   19.8967    8.0799   32.4564 C   0  0  0  0  0  0  0  0  0  0  0  0
   19.3134    7.2222   32.7428 H   0  0  0  0  0  0  0  0  0  0  0  0
   19.5219    9.3318   32.8177 C   0  0  0  0  0  0  0  0  0  0  0  0
   18.4459    9.4040   33.6359 N   0  0  0  0  0  0  0  0  0  0  0  0
   18.5440    8.7806   34.4332 H   0  0  0  0  0  0  0  0  0  0  0  0
   17.5688    9.2637   33.1469 H   0  0  0  0  0  0  0  0  0  0  0  0
   20.2595   10.4236   32.4249 C   0  0  0  0  0  0  0  0  0  0  0  0
   19.8978   11.7314   32.8586 C   0  0  0  0  0  0  0  0  0  0  0  0
   19.6363   12.8037   33.2228 N   0  0  0  0  0  0  0  0  0  0  0  0
   21.7258   12.4390   30.5157 C   0  0  0  0  0  0  0  0  0  0  0  0
   20.6592   12.5302   30.3197 H   0  0  0  0  0  0  0  0  0  0  0  0
   22.5556   13.4598   30.0252 C   0  0  0  0  0  0  0  0  0  0  0  0
   21.9938   14.4907   29.3068 O   0  0  0  0  0  0  0  0  0  0  0  0
   22.6930   15.0952   29.0027 H   0  0  0  0  0  0  0  0  0  0  0  0
  1  2  1  0
  2  3  1  0
  3  4  2  0
  4  5  1  0
  4  6  1  0
  6  7  1  0
  6  8  2  0
  8  9  1  0
  9 10  2  0
 10 11  1  0
 11 12  1  0
 12 13  1  0
 12 14  1  0
 14 15  2  0
 14 16  1  0
 16 17  1  0
 16 18  1  0
 16 19  1  0
 19 20  2  0
 20 21  1  0
 20 22  1  0
 22 23  1  0
 23 24  1  0
 24 25  1  0
 24 26  1  0
 24 27  1  0
 22 28  2  0
 28 29  1  0
 28 30  1  0
 30 31  1  0
 30 32  2  0
 32 33  1  0
 33 34  1  0
 34 35  1  0
 34 36  1  0
 34 37  1  0
 11 38  2  0
 38 39  1  0
 38 40  1  0
 40 41  1  0
 41 42  1  0
 41 43  1  0
 40 44  2  0
 44 45  1  0
 45 46  3  0
  8 47  1  0
 47 48  1  0
 47 49  2  0
 49 50  1  0
 50 51  1  0
 49  3  1  0
 44  9  1  0
 32 19  1  0
M  END
>  <score>  (294) 
7.64549

$$$$

     RDKit          3D

 52 54  0  0  0  0  0  0  0  0999 V2000
   21.6162   13.3341   27.1431 H   0  0  0  0  0  0  0  0  0  0  0  0
   21.7070   12.9375   28.1404 C   0  0  0  0  0  0  0  0  0  0  0  0
   20.6828   13.1048   29.0731 C   0  0  0  0  0  0  0  0  0  0  0  0
   19.7921   13.6643   28.8094 H   0  0  0  0  0  0  0  0  0  0  0  0
   20.8122   12.5349   30.3421 C   0  0  0  0  0  0  0  0  0  0  0  0
   20.0164   12.6324   31.0756 H   0  0  0  0  0  0  0  0  0  0  0  0
   21.9672   11.8078   30.6595 C   0  0  0  0  0  0  0  0  0  0  0  0
   22.1172   11.1740   31.9998 C   0  0  0  0  0  0  0  0  0  0  0  0
   21.9248   11.9277   32.7664 H   0  0  0  0  0  0  0  0  0  0  0  0
   23.1391   10.7931   32.1007 H   0  0  0  0  0  0  0  0  0  0  0  0
   21.1902   10.0184   32.1737 C   0  0  0  0  0  0  0  0  0  0  0  0
   21.6315    8.8330   31.7539 N   0  0  0  0  0  0  0  0  0  0  0  0
   20.8665    7.7774   31.9112 C   0  0  0  0  0  0  0  0  0  0  0  0
   21.4584    6.6754   31.4137 N   0  0  0  0  0  0  0  0  0  0  0  0
   22.3858    6.8223   31.0405 H   0  0  0  0  0  0  0  0  0  0  0  0
   20.8294    5.4895   31.1660 C   0  0  0  0  0  0  0  0  0  0  0  0
   19.6581    5.3280   31.4743 O   0  0  0  0  0  0  0  0  0  0  0  0
   21.5693    4.4452   30.3487 C   0  0  0  0  0  0  0  0  0  0  0  0
   21.6069    4.7971   29.3164 H   0  0  0  0  0  0  0  0  0  0  0  0
   20.9946    3.5146   30.3747 H   0  0  0  0  0  0  0  0  0  0  0  0
   22.9755    4.2206   30.8704 C   0  0  0  0  0  0  0  0  0  0  0  0
   23.1996    3.1017   31.6772 C   0  0  0  0  0  0  0  0  0  0  0  0
   22.3876    2.4097   31.8777 H   0  0  0  0  0  0  0  0  0  0  0  0
   24.4557    2.8431   32.2434 C   0  0  0  0  0  0  0  0  0  0  0  0
   24.6718    1.7496   33.0491 O   0  0  0  0  0  0  0  0  0  0  0  0
   23.6127    0.7801   33.0871 C   0  0  0  0  0  0  0  0  0  0  0  0
   23.9068   -0.0736   33.7031 H   0  0  0  0  0  0  0  0  0  0  0  0
   23.3901    0.4192   32.0779 H   0  0  0  0  0  0  0  0  0  0  0  0
   22.7023    1.2155   33.5112 H   0  0  0  0  0  0  0  0  0  0  0  0
   25.5083    3.7362   31.9827 C   0  0  0  0  0  0  0  0  0  0  0  0
   27.2536    3.4603   32.7248 Br  0  0  0  0  0  0  0  0  0  0  0  0
   25.2929    4.8528   31.1660 C   0  0  0  0  0  0  0  0  0  0  0  0
   26.1138    5.5307   30.9601 H   0  0  0  0  0  0  0  0  0  0  0  0
   24.0323    5.1191   30.6043 C   0  0  0  0  0  0  0  0  0  0  0  0
   23.7983    6.2292   29.8205 O   0  0  0  0  0  0  0  0  0  0  0  0
   24.9167    7.1074   29.6117 C   0  0  0  0  0  0  0  0  0  0  0  0
   25.7394    6.5812   29.1156 H   0  0  0  0  0  0  0  0  0  0  0  0
   25.2794    7.5014   30.5668 H   0  0  0  0  0  0  0  0  0  0  0  0
   24.6186    7.9494   28.9811 H   0  0  0  0  0  0  0  0  0  0  0  0
   19.6437    7.8247   32.5113 C   0  0  0  0  0  0  0  0  0  0  0  0
   19.0464    6.9420   32.6366 H   0  0  0  0  0  0  0  0  0  0  0  0
   19.2016    9.0347   32.9412 C   0  0  0  0  0  0  0  0  0  0  0  0
   17.9984    9.0557   33.5470 N   0  0  0  0  0  0  0  0  0  0  0  0
   17.7498    8.1921   34.0214 H   0  0  0  0  0  0  0  0  0  0  0  0
   17.7491    9.9376   33.9863 H   0  0  0  0  0  0  0  0  0  0  0  0
   19.9576   10.1649   32.7865 C   0  0  0  0  0  0  0  0  0  0  0  0
   19.5219   11.4219   33.2954 C   0  0  0  0  0  0  0  0  0  0  0  0
   19.2087   12.4623   33.7100 N   0  0  0  0  0  0  0  0  0  0  0  0
   23.0015   11.6690   29.7260 C   0  0  0  0  0  0  0  0  0  0  0  0
   24.4628   10.7719   30.0871 Cl  0  0  0  0  0  0  0  0  0  0  0  0
   22.8637   12.2371   28.4730 C   0  0  0  0  0  0  0  0  0  0  0  0
   23.6705   12.0954   27.7645 H   0  0  0  0  0  0  0  0  0  0  0  0
  1  2  1  0
  2  3  2  0
  3  4  1  0
  3  5  1  0
  5  6  1  0
  5  7  2  0
  7  8  1  0
  8  9  1  0
  8 10  1  0
  8 11  1  0
 11 12  2  0
 12 13  1  0
 13 14  1  0
 14 15  1  0
 14 16  1  0
 16 17  2  0
 16 18  1  0
 18 19  1  0
 18 20  1  0
 18 21  1  0
 21 22  2  0
 22 23  1  0
 22 24  1  0
 24 25  1  0
 25 26  1  0
 26 27  1  0
 26 28  1  0
 26 29  1  0
 24 30  2  0
 30 31  1  0
 30 32  1  0
 32 33  1  0
 32 34  2  0
 34 35  1  0
 35 36  1  0
 36 37  1  0
 36 38  1  0
 36 39  1  0
 13 40  2  0
 40 41  1  0
 40 42  1  0
 42 43  1  0
 43 44  1  0
 43 45  1  0
 42 46  2  0
 46 47  1  0
 47 48  3  0
  7 49  1  0
 49 50  1  0
 49 51  2  0
 51 52  1  0
 51  2  1  0
 46 11  1  0
 34 21  1  0
M  END
>  <score>  (295) 
7.64606

$$$$

     RDKit          3D

 49 51  0  0  0  0  0  0  0  0999 V2000
   25.4713   12.1828   30.4989 H   0  0  0  0  0  0  0  0  0  0  0  0
   24.3968   12.3113   30.5930 C   0  0  0  0  0  0  0  0  0  0  0  0
   23.8543   13.4758   30.2747 N   0  0  0  0  0  0  0  0  0  0  0  0
   22.5665   13.5614   30.4844 C   0  0  0  0  0  0  0  0  0  0  0  0
   22.0559   14.7505   30.2245 N   0  0  0  0  0  0  0  0  0  0  0  0
   22.6594   15.2386   29.5756 H   0  0  0  0  0  0  0  0  0  0  0  0
   21.0694   14.6906   30.0143 H   0  0  0  0  0  0  0  0  0  0  0  0
   21.7393   12.6154   30.8860 N   0  0  0  0  0  0  0  0  0  0  0  0
   22.2499   11.4038   31.1865 C   0  0  0  0  0  0  0  0  0  0  0  0
   21.3812   10.2306   31.6750 C   0  0  0  0  0  0  0  0  0  0  0  0
   21.7611    8.9621   31.3903 N   0  0  0  0  0  0  0  0  0  0  0  0
   21.0235    7.9355   31.7659 C   0  0  0  0  0  0  0  0  0  0  0  0
   21.5965    6.7799   31.3774 N   0  0  0  0  0  0  0  0  0  0  0  0
   22.4601    6.9117   30.8778 H   0  0  0  0  0  0  0  0  0  0  0  0
   20.9146    5.6248   31.1326 C   0  0  0  0  0  0  0  0  0  0  0  0
   19.7252    5.5567   31.4000 O   0  0  0  0  0  0  0  0  0  0  0  0
   21.6064    4.5300   30.3364 C   0  0  0  0  0  0  0  0  0  0  0  0
   21.6900    4.8738   29.3024 H   0  0  0  0  0  0  0  0  0  0  0  0
   20.9947    3.6273   30.3504 H   0  0  0  0  0  0  0  0  0  0  0  0
   22.9867    4.2386   30.8834 C   0  0  0  0  0  0  0  0  0  0  0  0
   23.1799    3.1351   31.7296 C   0  0  0  0  0  0  0  0  0  0  0  0
   22.3439    2.4878   31.9812 H   0  0  0  0  0  0  0  0  0  0  0  0
   24.4460    2.8491   32.2700 C   0  0  0  0  0  0  0  0  0  0  0  0
   24.6716    1.7852   33.1145 O   0  0  0  0  0  0  0  0  0  0  0  0
   23.6836    0.7429   33.1337 C   0  0  0  0  0  0  0  0  0  0  0  0
   22.7444    1.0987   33.5684 H   0  0  0  0  0  0  0  0  0  0  0  0
   24.0479   -0.0968   33.7357 H   0  0  0  0  0  0  0  0  0  0  0  0
   23.4854    0.3772   32.1213 H   0  0  0  0  0  0  0  0  0  0  0  0
   25.5256    3.6885   31.9452 C   0  0  0  0  0  0  0  0  0  0  0  0
   27.2774    3.3356   32.6396 Br  0  0  0  0  0  0  0  0  0  0  0  0
   25.3329    4.7893   31.1014 C   0  0  0  0  0  0  0  0  0  0  0  0
   26.1759    5.4242   30.8513 H   0  0  0  0  0  0  0  0  0  0  0  0
   24.0688    5.0866   30.5696 C   0  0  0  0  0  0  0  0  0  0  0  0
   23.8443    6.1809   29.7605 O   0  0  0  0  0  0  0  0  0  0  0  0
   24.9298    7.1078   29.5941 C   0  0  0  0  0  0  0  0  0  0  0  0
   25.7766    6.6353   29.0863 H   0  0  0  0  0  0  0  0  0  0  0  0
   25.2715    7.4855   30.5631 H   0  0  0  0  0  0  0  0  0  0  0  0
   24.5972    7.9585   28.9908 H   0  0  0  0  0  0  0  0  0  0  0  0
   19.8569    8.0643   32.4647 C   0  0  0  0  0  0  0  0  0  0  0  0
   19.2789    7.2062   32.7607 H   0  0  0  0  0  0  0  0  0  0  0  0
   19.4841    9.3166   32.8267 C   0  0  0  0  0  0  0  0  0  0  0  0
   18.4027    9.3882   33.6351 N   0  0  0  0  0  0  0  0  0  0  0  0
   18.5488    8.8641   34.4916 H   0  0  0  0  0  0  0  0  0  0  0  0
   17.5510    9.1247   33.1521 H   0  0  0  0  0  0  0  0  0  0  0  0
   20.2185   10.4198   32.4427 C   0  0  0  0  0  0  0  0  0  0  0  0
   19.8387   11.7188   32.8897 C   0  0  0  0  0  0  0  0  0  0  0  0
   19.5917   12.7925   33.2564 N   0  0  0  0  0  0  0  0  0  0  0  0
   23.6328   11.2512   31.0579 C   0  0  0  0  0  0  0  0  0  0  0  0
   24.1063   10.3157   31.3307 H   0  0  0  0  0  0  0  0  0  0  0  0
  1  2  1  0
  2  3  2  0
  3  4  1  0
  4  5  1  0
  5  6  1  0
  5  7  1  0
  4  8  2  0
  8  9  1  0
  9 10  1  0
 10 11  2  0
 11 12  1  0
 12 13  1  0
 13 14  1  0
 13 15  1  0
 15 16  2  0
 15 17  1  0
 17 18  1  0
 17 19  1  0
 17 20  1  0
 20 21  2  0
 21 22  1  0
 21 23  1  0
 23 24  1  0
 24 25  1  0
 25 26  1  0
 25 27  1  0
 25 28  1  0
 23 29  2  0
 29 30  1  0
 29 31  1  0
 31 32  1  0
 31 33  2  0
 33 34  1  0
 34 35  1  0
 35 36  1  0
 35 37  1  0
 35 38  1  0
 12 39  2  0
 39 40  1  0
 39 41  1  0
 41 42  1  0
 42 43  1  0
 42 44  1  0
 41 45  2  0
 45 46  1  0
 46 47  3  0
  9 48  2  0
 48 49  1  0
 48  2  1  0
 45 10  1  0
 33 20  1  0
M  END
>  <score>  (296) 
7.64796

$$$$

     RDKit          3D

 49 51  0  0  0  0  0  0  0  0999 V2000
   22.9458   14.3280   29.9890 H   0  0  0  0  0  0  0  0  0  0  0  0
   22.9207   13.3172   30.3913 C   0  0  0  0  0  0  0  0  0  0  0  0
   21.7580   12.6061   30.6691 N   0  0  0  0  0  0  0  0  0  0  0  0
   22.1533   11.4244   31.1222 C   0  0  0  0  0  0  0  0  0  0  0  0
   21.3046   10.2691   31.5776 C   0  0  0  0  0  0  0  0  0  0  0  0
   21.6564    9.0256   31.1969 N   0  0  0  0  0  0  0  0  0  0  0  0
   20.9283    7.9965   31.5765 C   0  0  0  0  0  0  0  0  0  0  0  0
   21.4554    6.8730   31.0629 N   0  0  0  0  0  0  0  0  0  0  0  0
   22.3268    7.0042   30.5797 H   0  0  0  0  0  0  0  0  0  0  0  0
   20.9012    5.6330   31.1050 C   0  0  0  0  0  0  0  0  0  0  0  0
   19.8482    5.4547   31.6912 O   0  0  0  0  0  0  0  0  0  0  0  0
   21.5759    4.5176   30.3236 C   0  0  0  0  0  0  0  0  0  0  0  0
   20.9443    3.6324   30.3765 H   0  0  0  0  0  0  0  0  0  0  0  0
   21.6560    4.8187   29.2734 H   0  0  0  0  0  0  0  0  0  0  0  0
   22.9564    4.2404   30.8792 C   0  0  0  0  0  0  0  0  0  0  0  0
   23.1659    3.1385   31.7233 C   0  0  0  0  0  0  0  0  0  0  0  0
   22.3409    2.4766   31.9714 H   0  0  0  0  0  0  0  0  0  0  0  0
   24.4351    2.8644   32.2616 C   0  0  0  0  0  0  0  0  0  0  0  0
   24.6656    1.7933   33.0959 O   0  0  0  0  0  0  0  0  0  0  0  0
   23.6683    0.7603   33.1180 C   0  0  0  0  0  0  0  0  0  0  0  0
   23.4713    0.4006   32.1020 H   0  0  0  0  0  0  0  0  0  0  0  0
   24.0215   -0.0837   33.7233 H   0  0  0  0  0  0  0  0  0  0  0  0
   22.7344    1.1351   33.5509 H   0  0  0  0  0  0  0  0  0  0  0  0
   25.5051    3.7150   31.9404 C   0  0  0  0  0  0  0  0  0  0  0  0
   27.2607    3.3876   32.6325 Br  0  0  0  0  0  0  0  0  0  0  0  0
   25.2982    4.8080   31.0966 C   0  0  0  0  0  0  0  0  0  0  0  0
   26.1348    5.4478   30.8443 H   0  0  0  0  0  0  0  0  0  0  0  0
   24.0341    5.0952   30.5668 C   0  0  0  0  0  0  0  0  0  0  0  0
   23.8253    6.1883   29.7545 O   0  0  0  0  0  0  0  0  0  0  0  0
   24.9317    7.0939   29.5995 C   0  0  0  0  0  0  0  0  0  0  0  0
   25.7554    6.6101   29.0621 H   0  0  0  0  0  0  0  0  0  0  0  0
   25.2948    7.4195   30.5806 H   0  0  0  0  0  0  0  0  0  0  0  0
   24.6137    7.9764   29.0334 H   0  0  0  0  0  0  0  0  0  0  0  0
   19.8301    8.0922   32.3942 C   0  0  0  0  0  0  0  0  0  0  0  0
   19.2664    7.2270   32.7013 H   0  0  0  0  0  0  0  0  0  0  0  0
   19.5056    9.3331   32.8606 C   0  0  0  0  0  0  0  0  0  0  0  0
   18.4991    9.4411   33.7694 N   0  0  0  0  0  0  0  0  0  0  0  0
   18.1028   10.3722   33.9087 H   0  0  0  0  0  0  0  0  0  0  0  0
   17.8966    8.6296   33.8915 H   0  0  0  0  0  0  0  0  0  0  0  0
   20.2093   10.4436   32.4373 C   0  0  0  0  0  0  0  0  0  0  0  0
   19.8600   11.7395   32.9220 C   0  0  0  0  0  0  0  0  0  0  0  0
   19.5998   12.8093   33.2927 N   0  0  0  0  0  0  0  0  0  0  0  0
   23.5448   11.3692   31.1648 N   0  0  0  0  0  0  0  0  0  0  0  0
   24.3163   10.2416   31.6864 C   0  0  0  0  0  0  0  0  0  0  0  0
   23.7716    9.8121   32.5290 H   0  0  0  0  0  0  0  0  0  0  0  0
   25.3056   10.5555   32.0317 H   0  0  0  0  0  0  0  0  0  0  0  0
   24.4176    9.4744   30.9187 H   0  0  0  0  0  0  0  0  0  0  0  0
   24.0225   12.5705   30.6979 C   0  0  0  0  0  0  0  0  0  0  0  0
   25.0602   12.8712   30.6000 H   0  0  0  0  0  0  0  0  0  0  0  0
  1  2  1  0
  2  3  1  0
  3  4  2  0
  4  5  1  0
  5  6  2  0
  6  7  1  0
  7  8  1  0
  8  9  1  0
  8 10  1  0
 10 11  2  0
 10 12  1  0
 12 13  1  0
 12 14  1  0
 12 15  1  0
 15 16  2  0
 16 17  1  0
 16 18  1  0
 18 19  1  0
 19 20  1  0
 20 21  1  0
 20 22  1  0
 20 23  1  0
 18 24  2  0
 24 25  1  0
 24 26  1  0
 26 27  1  0
 26 28  2  0
 28 29  1  0
 29 30  1  0
 30 31  1  0
 30 32  1  0
 30 33  1  0
  7 34  2  0
 34 35  1  0
 34 36  1  0
 36 37  1  0
 37 38  1  0
 37 39  1  0
 36 40  2  0
 40 41  1  0
 41 42  3  0
  4 43  1  0
 43 44  1  0
 44 45  1  0
 44 46  1  0
 44 47  1  0
 43 48  1  0
 48 49  1  0
 48  2  2  0
 40  5  1  0
 28 15  1  0
M  END
>  <score>  (297) 
7.64876

$$$$

     RDKit          3D

 53 55  0  0  0  0  0  0  0  0999 V2000
   25.6410   12.2661   31.0939 H   0  0  0  0  0  0  0  0  0  0  0  0
   24.5710   12.3073   30.9349 C   0  0  0  0  0  0  0  0  0  0  0  0
   24.0347   13.4075   30.2757 C   0  0  0  0  0  0  0  0  0  0  0  0
   24.7136   14.1807   29.9255 H   0  0  0  0  0  0  0  0  0  0  0  0
   22.6545   13.4773   30.0355 C   0  0  0  0  0  0  0  0  0  0  0  0
   22.0756   14.5786   29.2743 C   0  0  0  0  0  0  0  0  0  0  0  0
   20.8759   14.7463   29.1713 O   0  0  0  0  0  0  0  0  0  0  0  0
   22.8429   15.4367   28.5388 N   0  0  0  0  0  0  0  0  0  0  0  0
   23.7829   15.1366   28.3146 H   0  0  0  0  0  0  0  0  0  0  0  0
   22.3259   16.0034   27.8750 H   0  0  0  0  0  0  0  0  0  0  0  0
   21.8231   12.4510   30.5101 C   0  0  0  0  0  0  0  0  0  0  0  0
   20.7531   12.5171   30.3287 H   0  0  0  0  0  0  0  0  0  0  0  0
   22.3504   11.3323   31.1728 C   0  0  0  0  0  0  0  0  0  0  0  0
   21.4538   10.2611   31.6546 C   0  0  0  0  0  0  0  0  0  0  0  0
   21.8292    9.0082   31.3966 N   0  0  0  0  0  0  0  0  0  0  0  0
   21.0453    8.0324   31.7762 C   0  0  0  0  0  0  0  0  0  0  0  0
   21.5994    6.8619   31.4422 N   0  0  0  0  0  0  0  0  0  0  0  0
   22.4868    6.9599   30.9707 H   0  0  0  0  0  0  0  0  0  0  0  0
   20.8883    5.7159   31.2543 C   0  0  0  0  0  0  0  0  0  0  0  0
   19.7159    5.6473   31.5883 O   0  0  0  0  0  0  0  0  0  0  0  0
   21.5207    4.5877   30.4520 C   0  0  0  0  0  0  0  0  0  0  0  0
   21.5508    4.8906   29.4033 H   0  0  0  0  0  0  0  0  0  0  0  0
   20.8951    3.6948   30.5342 H   0  0  0  0  0  0  0  0  0  0  0  0
   22.9245    4.2885   30.9282 C   0  0  0  0  0  0  0  0  0  0  0  0
   23.1437    3.1673   31.7412 C   0  0  0  0  0  0  0  0  0  0  0  0
   22.3178    2.5082   31.9916 H   0  0  0  0  0  0  0  0  0  0  0  0
   24.4194    2.8728   32.2545 C   0  0  0  0  0  0  0  0  0  0  0  0
   24.6566    1.7822   33.0586 O   0  0  0  0  0  0  0  0  0  0  0  0
   23.6292    0.7829   33.0877 C   0  0  0  0  0  0  0  0  0  0  0  0
   23.9552   -0.0637   33.6987 H   0  0  0  0  0  0  0  0  0  0  0  0
   23.4192    0.4210   32.0763 H   0  0  0  0  0  0  0  0  0  0  0  0
   22.7083    1.1891   33.5159 H   0  0  0  0  0  0  0  0  0  0  0  0
   25.4857    3.7319   31.9464 C   0  0  0  0  0  0  0  0  0  0  0  0
   27.2423    3.4170   32.6441 Br  0  0  0  0  0  0  0  0  0  0  0  0
   25.2742    4.8374   31.1190 C   0  0  0  0  0  0  0  0  0  0  0  0
   26.1063    5.4876   30.8705 H   0  0  0  0  0  0  0  0  0  0  0  0
   24.0040    5.1381   30.6045 C   0  0  0  0  0  0  0  0  0  0  0  0
   23.7924    6.2485   29.8157 O   0  0  0  0  0  0  0  0  0  0  0  0
   24.9266    7.1058   29.6134 C   0  0  0  0  0  0  0  0  0  0  0  0
   25.7349    6.5638   29.1136 H   0  0  0  0  0  0  0  0  0  0  0  0
   25.2972    7.4743   30.5741 H   0  0  0  0  0  0  0  0  0  0  0  0
   24.6479    7.9630   28.9948 H   0  0  0  0  0  0  0  0  0  0  0  0
   19.8633    8.1944   32.4350 C   0  0  0  0  0  0  0  0  0  0  0  0
   19.2682    7.3570   32.7566 H   0  0  0  0  0  0  0  0  0  0  0  0
   19.4808    9.4669   32.7082 C   0  0  0  0  0  0  0  0  0  0  0  0
   18.3393    9.5853   33.4151 N   0  0  0  0  0  0  0  0  0  0  0  0
   18.1122    8.7819   33.9955 H   0  0  0  0  0  0  0  0  0  0  0  0
   18.1070   10.5087   33.7676 H   0  0  0  0  0  0  0  0  0  0  0  0
   20.2668   10.5375   32.3385 C   0  0  0  0  0  0  0  0  0  0  0  0
   19.9396   11.8790   32.6906 C   0  0  0  0  0  0  0  0  0  0  0  0
   19.7601   12.9999   32.9537 N   0  0  0  0  0  0  0  0  0  0  0  0
   23.7467   11.2577   31.3551 C   0  0  0  0  0  0  0  0  0  0  0  0
   24.2012   10.3960   31.8451 H   0  0  0  0  0  0  0  0  0  0  0  0
  1  2  1  0
  2  3  2  0
  3  4  1  0
  3  5  1  0
  5  6  1  0
  6  7  2  0
  6  8  1  0
  8  9  1  0
  8 10  1  0
  5 11  2  0
 11 12  1  0
 11 13  1  0
 13 14  1  0
 14 15  2  0
 15 16  1  0
 16 17  1  0
 17 18  1  0
 17 19  1  0
 19 20  2  0
 19 21  1  0
 21 22  1  0
 21 23  1  0
 21 24  1  0
 24 25  2  0
 25 26  1  0
 25 27  1  0
 27 28  1  0
 28 29  1  0
 29 30  1  0
 29 31  1  0
 29 32  1  0
 27 33  2  0
 33 34  1  0
 33 35  1  0
 35 36  1  0
 35 37  2  0
 37 38  1  0
 38 39  1  0
 39 40  1  0
 39 41  1  0
 39 42  1  0
 16 43  2  0
 43 44  1  0
 43 45  1  0
 45 46  1  0
 46 47  1  0
 46 48  1  0
 45 49  2  0
 49 50  1  0
 50 51  3  0
 13 52  2  0
 52 53  1  0
 52  2  1  0
 49 14  1  0
 37 24  1  0
M  END
>  <score>  (298) 
7.64966

$$$$

     RDKit          3D

 49 51  0  0  0  0  0  0  0  0999 V2000
   22.2347   14.2299   29.4015 H   0  0  0  0  0  0  0  0  0  0  0  0
   22.6218   13.3990   29.9846 C   0  0  0  0  0  0  0  0  0  0  0  0
   21.7560   12.4417   30.5235 C   0  0  0  0  0  0  0  0  0  0  0  0
   20.6896   12.5404   30.3471 H   0  0  0  0  0  0  0  0  0  0  0  0
   22.2670   11.3333   31.2211 C   0  0  0  0  0  0  0  0  0  0  0  0
   21.3836   10.2415   31.6613 C   0  0  0  0  0  0  0  0  0  0  0  0
   21.6929    9.0165   31.2397 N   0  0  0  0  0  0  0  0  0  0  0  0
   20.9379    8.0081   31.5884 C   0  0  0  0  0  0  0  0  0  0  0  0
   21.4368    6.8985   31.0187 N   0  0  0  0  0  0  0  0  0  0  0  0
   22.2982    7.0427   30.5116 H   0  0  0  0  0  0  0  0  0  0  0  0
   20.8928    5.6574   31.0647 C   0  0  0  0  0  0  0  0  0  0  0  0
   19.8392    5.4670   31.6550 O   0  0  0  0  0  0  0  0  0  0  0  0
   21.5914    4.5368   30.3087 C   0  0  0  0  0  0  0  0  0  0  0  0
   20.9654    3.6419   30.3441 H   0  0  0  0  0  0  0  0  0  0  0  0
   21.6955    4.8388   29.2605 H   0  0  0  0  0  0  0  0  0  0  0  0
   22.9683    4.2576   30.8830 C   0  0  0  0  0  0  0  0  0  0  0  0
   23.1639    3.1498   31.7278 C   0  0  0  0  0  0  0  0  0  0  0  0
   22.3388    2.4898   31.9765 H   0  0  0  0  0  0  0  0  0  0  0  0
   24.4296    2.8566   32.2669 C   0  0  0  0  0  0  0  0  0  0  0  0
   24.6645    1.7927   33.1076 O   0  0  0  0  0  0  0  0  0  0  0  0
   23.6808    0.7475   33.1299 C   0  0  0  0  0  0  0  0  0  0  0  0
   22.7423    1.0992   33.5699 H   0  0  0  0  0  0  0  0  0  0  0  0
   23.4855    0.3775   32.1180 H   0  0  0  0  0  0  0  0  0  0  0  0
   24.0478   -0.0890   33.7328 H   0  0  0  0  0  0  0  0  0  0  0  0
   25.5098    3.6913   31.9397 C   0  0  0  0  0  0  0  0  0  0  0  0
   27.2624    3.3413   32.6317 Br  0  0  0  0  0  0  0  0  0  0  0  0
   25.3191    4.7947   31.0999 C   0  0  0  0  0  0  0  0  0  0  0  0
   26.1596    5.4294   30.8403 H   0  0  0  0  0  0  0  0  0  0  0  0
   24.0561    5.0986   30.5676 C   0  0  0  0  0  0  0  0  0  0  0  0
   23.8390    6.1820   29.7432 O   0  0  0  0  0  0  0  0  0  0  0  0
   24.9289    7.1066   29.5912 C   0  0  0  0  0  0  0  0  0  0  0  0
   25.7792    6.6374   29.0833 H   0  0  0  0  0  0  0  0  0  0  0  0
   25.2596    7.4820   30.5663 H   0  0  0  0  0  0  0  0  0  0  0  0
   24.6046    7.9603   28.9907 H   0  0  0  0  0  0  0  0  0  0  0  0
   19.8478    8.1132   32.4090 C   0  0  0  0  0  0  0  0  0  0  0  0
   19.2620    7.2644   32.7133 H   0  0  0  0  0  0  0  0  0  0  0  0
   19.5291    9.3626   32.8410 C   0  0  0  0  0  0  0  0  0  0  0  0
   18.4815    9.4781   33.6926 N   0  0  0  0  0  0  0  0  0  0  0  0
   18.1561   10.4114   33.9251 H   0  0  0  0  0  0  0  0  0  0  0  0
   17.9161    8.6561   33.9058 H   0  0  0  0  0  0  0  0  0  0  0  0
   20.2707   10.4581   32.4585 C   0  0  0  0  0  0  0  0  0  0  0  0
   19.9395   11.7758   32.8843 C   0  0  0  0  0  0  0  0  0  0  0  0
   19.6866   12.8649   33.2013 N   0  0  0  0  0  0  0  0  0  0  0  0
   23.6520   11.2592   31.4459 C   0  0  0  0  0  0  0  0  0  0  0  0
   24.0647   10.4304   32.0143 H   0  0  0  0  0  0  0  0  0  0  0  0
   24.5077   12.2499   30.9633 C   0  0  0  0  0  0  0  0  0  0  0  0
   25.5696   12.2056   31.1782 H   0  0  0  0  0  0  0  0  0  0  0  0
   24.0027   13.2788   30.1660 C   0  0  0  0  0  0  0  0  0  0  0  0
   25.2046   14.4574   29.2671 Br  0  0  0  0  0  0  0  0  0  0  0  0
  1  2  1  0
  2  3  2  0
  3  4  1  0
  3  5  1  0
  5  6  1  0
  6  7  2  0
  7  8  1  0
  8  9  1  0
  9 10  1  0
  9 11  1  0
 11 12  2  0
 11 13  1  0
 13 14  1  0
 13 15  1  0
 13 16  1  0
 16 17  2  0
 17 18  1  0
 17 19  1  0
 19 20  1  0
 20 21  1  0
 21 22  1  0
 21 23  1  0
 21 24  1  0
 19 25  2  0
 25 26  1  0
 25 27  1  0
 27 28  1  0
 27 29  2  0
 29 30  1  0
 30 31  1  0
 31 32  1  0
 31 33  1  0
 31 34  1  0
  8 35  2  0
 35 36  1  0
 35 37  1  0
 37 38  1  0
 38 39  1  0
 38 40  1  0
 37 41  2  0
 41 42  1  0
 42 43  3  0
  5 44  2  0
 44 45  1  0
 44 46  1  0
 46 47  1  0
 46 48  2  0
 48 49  1  0
 48  2  1  0
 41  6  1  0
 29 16  1  0
M  END
>  <score>  (299) 
7.65087

$$$$

     RDKit          3D

 55 57  0  0  0  0  0  0  0  0999 V2000
   23.3424   13.5335   31.4990 H   0  0  0  0  0  0  0  0  0  0  0  0
   22.9131   14.2740   31.9492 O   0  0  0  0  0  0  0  0  0  0  0  0
   21.7547   14.4693   31.2786 C   0  0  0  0  0  0  0  0  0  0  0  0
   21.0001   15.4133   31.4718 O   0  0  0  0  0  0  0  0  0  0  0  0
   21.5146   13.5246   30.1805 C   0  0  0  0  0  0  0  0  0  0  0  0
   21.8227   12.1908   30.1369 C   0  0  0  0  0  0  0  0  0  0  0  0
   22.3335   11.3701   31.3010 C   0  0  0  0  0  0  0  0  0  0  0  0
   22.4186   12.0209   32.1691 H   0  0  0  0  0  0  0  0  0  0  0  0
   23.3263   10.9767   31.0698 H   0  0  0  0  0  0  0  0  0  0  0  0
   21.4334   10.2181   31.6964 C   0  0  0  0  0  0  0  0  0  0  0  0
   21.8327    8.9855   31.3695 N   0  0  0  0  0  0  0  0  0  0  0  0
   21.0897    7.9576   31.7339 C   0  0  0  0  0  0  0  0  0  0  0  0
   21.6359    6.7983   31.3134 N   0  0  0  0  0  0  0  0  0  0  0  0
   22.4907    6.9149   30.7862 H   0  0  0  0  0  0  0  0  0  0  0  0
   20.9216    5.6513   31.1314 C   0  0  0  0  0  0  0  0  0  0  0  0
   19.7450    5.5955   31.4556 O   0  0  0  0  0  0  0  0  0  0  0  0
   21.5808    4.5207   30.3546 C   0  0  0  0  0  0  0  0  0  0  0  0
   20.9577    3.6275   30.4180 H   0  0  0  0  0  0  0  0  0  0  0  0
   21.6439    4.8208   29.3067 H   0  0  0  0  0  0  0  0  0  0  0  0
   22.9706    4.2418   30.8841 C   0  0  0  0  0  0  0  0  0  0  0  0
   23.1767    3.1398   31.7256 C   0  0  0  0  0  0  0  0  0  0  0  0
   22.3474    2.4869   31.9775 H   0  0  0  0  0  0  0  0  0  0  0  0
   24.4449    2.8566   32.2629 C   0  0  0  0  0  0  0  0  0  0  0  0
   24.6742    1.7826   33.0917 O   0  0  0  0  0  0  0  0  0  0  0  0
   23.6619    0.7664   33.1103 C   0  0  0  0  0  0  0  0  0  0  0  0
   23.4602    0.4063   32.0958 H   0  0  0  0  0  0  0  0  0  0  0  0
   23.9995   -0.0803   33.7158 H   0  0  0  0  0  0  0  0  0  0  0  0
   22.7331    1.1528   33.5417 H   0  0  0  0  0  0  0  0  0  0  0  0
   25.5165    3.7071   31.9480 C   0  0  0  0  0  0  0  0  0  0  0  0
   27.2723    3.3934   32.6483 Br  0  0  0  0  0  0  0  0  0  0  0  0
   25.3138    4.8054   31.1070 C   0  0  0  0  0  0  0  0  0  0  0  0
   26.1482    5.4538   30.8614 H   0  0  0  0  0  0  0  0  0  0  0  0
   24.0486    5.0954   30.5734 C   0  0  0  0  0  0  0  0  0  0  0  0
   23.8258    6.1972   29.7753 O   0  0  0  0  0  0  0  0  0  0  0  0
   24.9330    7.0944   29.6067 C   0  0  0  0  0  0  0  0  0  0  0  0
   25.2795    7.4619   30.5784 H   0  0  0  0  0  0  0  0  0  0  0  0
   25.7641    6.5895   29.1032 H   0  0  0  0  0  0  0  0  0  0  0  0
   24.6284    7.9519   29.0001 H   0  0  0  0  0  0  0  0  0  0  0  0
   19.9189    8.0604   32.4440 C   0  0  0  0  0  0  0  0  0  0  0  0
   19.3315    7.1980   32.7259 H   0  0  0  0  0  0  0  0  0  0  0  0
   19.5361    9.3137   32.8073 C   0  0  0  0  0  0  0  0  0  0  0  0
   18.4269    9.4128   33.5785 N   0  0  0  0  0  0  0  0  0  0  0  0
   17.5870    9.0875   33.1096 H   0  0  0  0  0  0  0  0  0  0  0  0
   18.5570    8.9956   34.4955 H   0  0  0  0  0  0  0  0  0  0  0  0
   20.2782   10.4137   32.4461 C   0  0  0  0  0  0  0  0  0  0  0  0
   19.8965   11.7147   32.8850 C   0  0  0  0  0  0  0  0  0  0  0  0
   19.6317   12.7852   33.2531 N   0  0  0  0  0  0  0  0  0  0  0  0
   21.5623   11.7640   28.7748 C   0  0  0  0  0  0  0  0  0  0  0  0
   21.7845   10.3752   28.2788 C   0  0  0  0  0  0  0  0  0  0  0  0
   22.8535   10.1513   28.3042 H   0  0  0  0  0  0  0  0  0  0  0  0
   21.4158   10.2583   27.2558 H   0  0  0  0  0  0  0  0  0  0  0  0
   21.2437    9.6801   28.9289 H   0  0  0  0  0  0  0  0  0  0  0  0
   21.0446   12.7444   28.0788 N   0  0  0  0  0  0  0  0  0  0  0  0
   20.9705   13.8045   28.9344 N   0  0  0  0  0  0  0  0  0  0  0  0
   20.4688   14.6667   28.7083 H   0  0  0  0  0  0  0  0  0  0  0  0
  1  2  1  0
  2  3  1  0
  3  4  2  0
  3  5  1  0
  5  6  2  0
  6  7  1  0
  7  8  1  0
  7  9  1  0
  7 10  1  0
 10 11  2  0
 11 12  1  0
 12 13  1  0
 13 14  1  0
 13 15  1  0
 15 16  2  0
 15 17  1  0
 17 18  1  0
 17 19  1  0
 17 20  1  0
 20 21  2  0
 21 22  1  0
 21 23  1  0
 23 24  1  0
 24 25  1  0
 25 26  1  0
 25 27  1  0
 25 28  1  0
 23 29  2  0
 29 30  1  0
 29 31  1  0
 31 32  1  0
 31 33  2  0
 33 34  1  0
 34 35  1  0
 35 36  1  0
 35 37  1  0
 35 38  1  0
 12 39  2  0
 39 40  1  0
 39 41  1  0
 41 42  1  0
 42 43  1  0
 42 44  1  0
 41 45  2  0
 45 46  1  0
 46 47  3  0
  6 48  1  0
 48 49  1  0
 49 50  1  0
 49 51  1  0
 49 52  1  0
 48 53  2  0
 53 54  1  0
 54 55  1  0
 54  5  1  0
 45 10  1  0
 33 20  1  0
M  END
>  <score>  (300) 
7.65244

$$$$

     RDKit          3D

 60 62  0  0  0  0  0  0  0  0999 V2000
   21.3556   17.3053   32.9971 H   0  0  0  0  0  0  0  0  0  0  0  0
   21.5304   16.4227   32.3943 C   0  0  0  0  0  0  0  0  0  0  0  0
   21.0940   16.4206   31.0699 C   0  0  0  0  0  0  0  0  0  0  0  0
   20.5335   17.2673   30.6905 H   0  0  0  0  0  0  0  0  0  0  0  0
   21.4099   15.3467   30.2303 C   0  0  0  0  0  0  0  0  0  0  0  0
   21.0778   15.3435   29.1973 H   0  0  0  0  0  0  0  0  0  0  0  0
   22.1736   14.2672   30.7042 C   0  0  0  0  0  0  0  0  0  0  0  0
   22.6170   13.1673   29.7581 C   0  0  0  0  0  0  0  0  0  0  0  0
   22.3775   13.4845   28.7374 H   0  0  0  0  0  0  0  0  0  0  0  0
   23.7080   13.0722   29.8213 H   0  0  0  0  0  0  0  0  0  0  0  0
   21.9958   11.8379   29.9926 N   0  0  0  0  0  0  0  0  0  0  0  0
   22.1949   10.9263   28.8450 C   0  0  0  0  0  0  0  0  0  0  0  0
   23.2590   10.7199   28.6968 H   0  0  0  0  0  0  0  0  0  0  0  0
   21.8017   11.3722   27.9291 H   0  0  0  0  0  0  0  0  0  0  0  0
   21.6819    9.9751   29.0027 H   0  0  0  0  0  0  0  0  0  0  0  0
   22.2445   11.1999   31.3237 C   0  0  0  0  0  0  0  0  0  0  0  0
   22.1280   11.9534   32.1049 H   0  0  0  0  0  0  0  0  0  0  0  0
   23.2783   10.8450   31.3667 H   0  0  0  0  0  0  0  0  0  0  0  0
   21.3541   10.0181   31.7137 C   0  0  0  0  0  0  0  0  0  0  0  0
   21.7925    8.7838   31.4117 N   0  0  0  0  0  0  0  0  0  0  0  0
   21.1019    7.7463   31.8279 C   0  0  0  0  0  0  0  0  0  0  0  0
   21.6229    6.5891   31.3808 N   0  0  0  0  0  0  0  0  0  0  0  0
   22.4586    6.6985   30.8201 H   0  0  0  0  0  0  0  0  0  0  0  0
   20.8862    5.4505   31.2088 C   0  0  0  0  0  0  0  0  0  0  0  0
   19.7370    5.3662   31.6178 O   0  0  0  0  0  0  0  0  0  0  0  0
   21.4938    4.3410   30.3717 C   0  0  0  0  0  0  0  0  0  0  0  0
   21.4963    4.6418   29.3213 H   0  0  0  0  0  0  0  0  0  0  0  0
   20.9007    3.4288   30.4761 H   0  0  0  0  0  0  0  0  0  0  0  0
   22.8996    4.1124   30.8575 C   0  0  0  0  0  0  0  0  0  0  0  0
   23.1469    2.9860   31.6412 C   0  0  0  0  0  0  0  0  0  0  0  0
   22.3543    2.2650   31.8124 H   0  0  0  0  0  0  0  0  0  0  0  0
   24.3996    2.7635   32.2289 C   0  0  0  0  0  0  0  0  0  0  0  0
   24.6485    1.6558   33.0061 O   0  0  0  0  0  0  0  0  0  0  0  0
   23.5722    0.7104   33.1072 C   0  0  0  0  0  0  0  0  0  0  0  0
   23.8701   -0.1271   33.7449 H   0  0  0  0  0  0  0  0  0  0  0  0
   22.6887    1.1890   33.5445 H   0  0  0  0  0  0  0  0  0  0  0  0
   23.3077    0.3178   32.1183 H   0  0  0  0  0  0  0  0  0  0  0  0
   25.4175    3.7072   32.0193 C   0  0  0  0  0  0  0  0  0  0  0  0
   27.1354    3.4880   32.8352 Br  0  0  0  0  0  0  0  0  0  0  0  0
   25.1795    4.8294   31.2156 C   0  0  0  0  0  0  0  0  0  0  0  0
   25.9720    5.5523   31.0534 H   0  0  0  0  0  0  0  0  0  0  0  0
   23.9259    5.0532   30.6263 C   0  0  0  0  0  0  0  0  0  0  0  0
   23.6646    6.1767   29.8687 O   0  0  0  0  0  0  0  0  0  0  0  0
   24.7692    7.0559   29.5982 C   0  0  0  0  0  0  0  0  0  0  0  0
   25.5666    6.5159   29.0767 H   0  0  0  0  0  0  0  0  0  0  0  0
   24.4357    7.8842   28.9639 H   0  0  0  0  0  0  0  0  0  0  0  0
   25.1760    7.4752   30.5250 H   0  0  0  0  0  0  0  0  0  0  0  0
   19.9679    7.8426   32.5785 C   0  0  0  0  0  0  0  0  0  0  0  0
   19.4520    6.9549   32.9001 H   0  0  0  0  0  0  0  0  0  0  0  0
   19.5215    9.0832   32.9001 C   0  0  0  0  0  0  0  0  0  0  0  0
   18.3955    9.1169   33.6493 N   0  0  0  0  0  0  0  0  0  0  0  0
   17.7961    9.9203   33.5287 H   0  0  0  0  0  0  0  0  0  0  0  0
   17.9604    8.2108   33.8023 H   0  0  0  0  0  0  0  0  0  0  0  0
   20.1892   10.2054   32.4647 C   0  0  0  0  0  0  0  0  0  0  0  0
   19.7406   11.5148   32.8035 C   0  0  0  0  0  0  0  0  0  0  0  0
   19.4178   12.6014   33.0690 N   0  0  0  0  0  0  0  0  0  0  0  0
   22.6001   14.2786   32.0391 C   0  0  0  0  0  0  0  0  0  0  0  0
   23.2159   13.4637   32.4034 H   0  0  0  0  0  0  0  0  0  0  0  0
   22.2653   15.3362   32.8908 C   0  0  0  0  0  0  0  0  0  0  0  0
   22.6067   15.3024   33.9199 H   0  0  0  0  0  0  0  0  0  0  0  0
  1  2  1  0
  2  3  2  0
  3  4  1  0
  3  5  1  0
  5  6  1  0
  5  7  2  0
  7  8  1  0
  8  9  1  0
  8 10  1  0
  8 11  1  0
 11 12  1  0
 12 13  1  0
 12 14  1  0
 12 15  1  0
 11 16  1  0
 16 17  1  0
 16 18  1  0
 16 19  1  0
 19 20  2  0
 20 21  1  0
 21 22  1  0
 22 23  1  0
 22 24  1  0
 24 25  2  0
 24 26  1  0
 26 27  1  0
 26 28  1  0
 26 29  1  0
 29 30  2  0
 30 31  1  0
 30 32  1  0
 32 33  1  0
 33 34  1  0
 34 35  1  0
 34 36  1  0
 34 37  1  0
 32 38  2  0
 38 39  1  0
 38 40  1  0
 40 41  1  0
 40 42  2  0
 42 43  1  0
 43 44  1  0
 44 45  1  0
 44 46  1  0
 44 47  1  0
 21 48  2  0
 48 49  1  0
 48 50  1  0
 50 51  1  0
 51 52  1  0
 51 53  1  0
 50 54  2  0
 54 55  1  0
 55 56  3  0
  7 57  1  0
 57 58  1  0
 57 59  2  0
 59 60  1  0
 59  2  1  0
 54 19  1  0
 42 29  1  0
M  END
>  <score>  (301) 
7.65338

$$$$

     RDKit          3D

 53 55  0  0  0  0  0  0  0  0999 V2000
   26.1932    5.4093   30.8463 H   0  0  0  0  0  0  0  0  0  0  0  0
   25.3464    4.7792   31.1004 C   0  0  0  0  0  0  0  0  0  0  0  0
   25.5244    3.6727   31.9460 C   0  0  0  0  0  0  0  0  0  0  0  0
   27.2726    3.2976   32.6355 Br  0  0  0  0  0  0  0  0  0  0  0  0
   24.4387    2.8431   32.2729 C   0  0  0  0  0  0  0  0  0  0  0  0
   24.6624    1.7823   33.1243 O   0  0  0  0  0  0  0  0  0  0  0  0
   23.6911    0.7302   33.1436 C   0  0  0  0  0  0  0  0  0  0  0  0
   23.4993    0.3580   32.1336 H   0  0  0  0  0  0  0  0  0  0  0  0
   22.7520    1.0697   33.5872 H   0  0  0  0  0  0  0  0  0  0  0  0
   24.0744   -0.0973   33.7454 H   0  0  0  0  0  0  0  0  0  0  0  0
   23.1774    3.1447   31.7309 C   0  0  0  0  0  0  0  0  0  0  0  0
   22.3411    2.5005   31.9800 H   0  0  0  0  0  0  0  0  0  0  0  0
   22.9931    4.2506   30.8823 C   0  0  0  0  0  0  0  0  0  0  0  0
   21.6150    4.5436   30.3294 C   0  0  0  0  0  0  0  0  0  0  0  0
   21.0124    3.6311   30.3144 H   0  0  0  0  0  0  0  0  0  0  0  0
   21.7209    4.8821   29.2969 H   0  0  0  0  0  0  0  0  0  0  0  0
   20.9047    5.6413   31.1238 C   0  0  0  0  0  0  0  0  0  0  0  0
   19.7181    5.5453   31.3920 O   0  0  0  0  0  0  0  0  0  0  0  0
   21.5603    6.8086   31.3709 N   0  0  0  0  0  0  0  0  0  0  0  0
   22.4714    6.9315   30.9499 H   0  0  0  0  0  0  0  0  0  0  0  0
   20.9879    7.9720   31.7271 C   0  0  0  0  0  0  0  0  0  0  0  0
   21.7393    8.9813   31.3374 N   0  0  0  0  0  0  0  0  0  0  0  0
   21.4012   10.2322   31.6841 C   0  0  0  0  0  0  0  0  0  0  0  0
   22.2792   11.3988   31.2076 C   0  0  0  0  0  0  0  0  0  0  0  0
   22.2483   12.1693   31.9869 H   0  0  0  0  0  0  0  0  0  0  0  0
   21.7216   12.0221   29.9017 C   0  0  0  0  0  0  0  0  0  0  0  0
   20.8814   12.6801   30.1491 H   0  0  0  0  0  0  0  0  0  0  0  0
   21.3482   11.2333   29.2431 H   0  0  0  0  0  0  0  0  0  0  0  0
   22.7722   12.8178   29.1115 C   0  0  0  0  0  0  0  0  0  0  0  0
   23.2044   12.1832   28.3329 H   0  0  0  0  0  0  0  0  0  0  0  0
   22.2987   13.6687   28.6133 H   0  0  0  0  0  0  0  0  0  0  0  0
   23.8175   13.2696   29.9780 O   0  0  0  0  0  0  0  0  0  0  0  0
   24.6151   12.1894   30.4861 C   0  0  0  0  0  0  0  0  0  0  0  0
   25.2919   11.8366   29.7033 H   0  0  0  0  0  0  0  0  0  0  0  0
   25.2329   12.5653   31.3058 H   0  0  0  0  0  0  0  0  0  0  0  0
   23.7619   11.0097   30.9876 C   0  0  0  0  0  0  0  0  0  0  0  0
   23.8019   10.2105   30.2417 H   0  0  0  0  0  0  0  0  0  0  0  0
   24.1960   10.6173   31.9114 H   0  0  0  0  0  0  0  0  0  0  0  0
   20.2779   10.4671   32.4734 C   0  0  0  0  0  0  0  0  0  0  0  0
   19.9475   11.7954   32.8855 C   0  0  0  0  0  0  0  0  0  0  0  0
   19.7064   12.8936   33.1896 N   0  0  0  0  0  0  0  0  0  0  0  0
   19.5215    9.3764   32.8478 C   0  0  0  0  0  0  0  0  0  0  0  0
   18.4533    9.4969   33.6606 N   0  0  0  0  0  0  0  0  0  0  0  0
   17.9177    8.6689   33.8988 H   0  0  0  0  0  0  0  0  0  0  0  0
   18.1432   10.4169   33.9526 H   0  0  0  0  0  0  0  0  0  0  0  0
   19.8450    8.1110   32.4604 C   0  0  0  0  0  0  0  0  0  0  0  0
   19.2414    7.2708   32.7678 H   0  0  0  0  0  0  0  0  0  0  0  0
   24.0852    5.0875   30.5681 C   0  0  0  0  0  0  0  0  0  0  0  0
   23.8652    6.1784   29.7530 O   0  0  0  0  0  0  0  0  0  0  0  0
   24.9314    7.1216   29.5853 C   0  0  0  0  0  0  0  0  0  0  0  0
   24.5800    7.9602   28.9785 H   0  0  0  0  0  0  0  0  0  0  0  0
   25.2586    7.5127   30.5517 H   0  0  0  0  0  0  0  0  0  0  0  0
   25.7831    6.6645   29.0756 H   0  0  0  0  0  0  0  0  0  0  0  0
  1  2  1  0
  2  3  2  0
  3  4  1  0
  3  5  1  0
  5  6  1  0
  6  7  1  0
  7  8  1  0
  7  9  1  0
  7 10  1  0
  5 11  2  0
 11 12  1  0
 11 13  1  0
 13 14  1  0
 14 15  1  0
 14 16  1  0
 14 17  1  0
 17 18  2  0
 17 19  1  0
 19 20  1  0
 19 21  1  0
 21 22  2  0
 22 23  1  0
 23 24  1  0
 24 25  1  0
 24 26  1  0
 26 27  1  0
 26 28  1  0
 26 29  1  0
 29 30  1  0
 29 31  1  0
 29 32  1  0
 32 33  1  0
 33 34  1  0
 33 35  1  0
 33 36  1  0
 36 37  1  0
 36 38  1  0
 23 39  2  0
 39 40  1  0
 40 41  3  0
 39 42  1  0
 42 43  1  0
 43 44  1  0
 43 45  1  0
 42 46  2  0
 46 47  1  0
 13 48  2  0
 48 49  1  0
 49 50  1  0
 50 51  1  0
 50 52  1  0
 50 53  1  0
 48  2  1  0
 46 21  1  0
 36 24  1  0
M  END
>  <score>  (302) 
7.65374

$$$$

     RDKit          3D

 49 51  0  0  0  0  0  0  0  0999 V2000
   26.1285    5.4680   30.8773 H   0  0  0  0  0  0  0  0  0  0  0  0
   25.2947    4.8137   31.1128 C   0  0  0  0  0  0  0  0  0  0  0  0
   25.5083    3.7173   31.9505 C   0  0  0  0  0  0  0  0  0  0  0  0
   27.2684    3.4338   32.6544 Br  0  0  0  0  0  0  0  0  0  0  0  0
   24.4441    2.8555   32.2590 C   0  0  0  0  0  0  0  0  0  0  0  0
   24.6777    1.7761   33.0782 O   0  0  0  0  0  0  0  0  0  0  0  0
   23.6534    0.7739   33.1005 C   0  0  0  0  0  0  0  0  0  0  0  0
   22.7324    1.1793   33.5306 H   0  0  0  0  0  0  0  0  0  0  0  0
   23.4476    0.4160   32.0858 H   0  0  0  0  0  0  0  0  0  0  0  0
   23.9782   -0.0748   33.7087 H   0  0  0  0  0  0  0  0  0  0  0  0
   23.1742    3.1304   31.7208 C   0  0  0  0  0  0  0  0  0  0  0  0
   22.3494    2.4717   31.9699 H   0  0  0  0  0  0  0  0  0  0  0  0
   22.9502    4.2236   30.8768 C   0  0  0  0  0  0  0  0  0  0  0  0
   21.5415    4.4489   30.3442 C   0  0  0  0  0  0  0  0  0  0  0  0
   21.5949    4.7847   29.3079 H   0  0  0  0  0  0  0  0  0  0  0  0
   20.9643    3.5200   30.3698 H   0  0  0  0  0  0  0  0  0  0  0  0
   20.8161    5.5158   31.1478 C   0  0  0  0  0  0  0  0  0  0  0  0
   19.6440    5.4121   31.4739 O   0  0  0  0  0  0  0  0  0  0  0  0
   21.5230    6.6368   31.4397 N   0  0  0  0  0  0  0  0  0  0  0  0
   22.3834    6.7883   30.9342 H   0  0  0  0  0  0  0  0  0  0  0  0
   20.9744    7.7651   31.8836 C   0  0  0  0  0  0  0  0  0  0  0  0
   21.7437    8.7450   31.4838 N   0  0  0  0  0  0  0  0  0  0  0  0
   21.3930   10.0036   31.7679 C   0  0  0  0  0  0  0  0  0  0  0  0
   22.2417   11.0866   31.1935 C   0  0  0  0  0  0  0  0  0  0  0  0
   21.8718   12.3441   31.1105 N   0  0  0  0  0  0  0  0  0  0  0  0
   22.8881   13.0004   30.5080 N   0  0  0  0  0  0  0  0  0  0  0  0
   22.8697   14.4444   30.4756 C   0  0  0  0  0  0  0  0  0  0  0  0
   23.4979   14.7925   29.6521 H   0  0  0  0  0  0  0  0  0  0  0  0
   23.2223   14.7806   31.4525 H   0  0  0  0  0  0  0  0  0  0  0  0
   21.8497   14.8165   30.3378 H   0  0  0  0  0  0  0  0  0  0  0  0
   23.9629   12.1710   30.2047 C   0  0  0  0  0  0  0  0  0  0  0  0
   24.9149   12.4280   29.7430 H   0  0  0  0  0  0  0  0  0  0  0  0
   23.5785   10.9343   30.6168 C   0  0  0  0  0  0  0  0  0  0  0  0
   24.1477   10.0113   30.5456 H   0  0  0  0  0  0  0  0  0  0  0  0
   20.2396   10.2603   32.5241 C   0  0  0  0  0  0  0  0  0  0  0  0
   19.8863   11.5956   32.8897 C   0  0  0  0  0  0  0  0  0  0  0  0
   19.6316   12.6873   33.2030 N   0  0  0  0  0  0  0  0  0  0  0  0
   19.4553    9.1876   32.9071 C   0  0  0  0  0  0  0  0  0  0  0  0
   18.2940    9.3882   33.5827 N   0  0  0  0  0  0  0  0  0  0  0  0
   18.0847   10.3261   33.9138 H   0  0  0  0  0  0  0  0  0  0  0  0
   17.8030    8.5925   33.9787 H   0  0  0  0  0  0  0  0  0  0  0  0
   19.8138    7.9062   32.5930 C   0  0  0  0  0  0  0  0  0  0  0  0
   19.2162    7.0540   32.8866 H   0  0  0  0  0  0  0  0  0  0  0  0
   24.0248    5.0931   30.5753 C   0  0  0  0  0  0  0  0  0  0  0  0
   23.8042    6.2008   29.7869 O   0  0  0  0  0  0  0  0  0  0  0  0
   24.9257    7.0810   29.6160 C   0  0  0  0  0  0  0  0  0  0  0  0
   25.2764    7.4469   30.5874 H   0  0  0  0  0  0  0  0  0  0  0  0
   24.6378    7.9401   29.0041 H   0  0  0  0  0  0  0  0  0  0  0  0
   25.7491    6.5573   29.1186 H   0  0  0  0  0  0  0  0  0  0  0  0
  1  2  1  0
  2  3  2  0
  3  4  1  0
  3  5  1  0
  5  6  1  0
  6  7  1  0
  7  8  1  0
  7  9  1  0
  7 10  1  0
  5 11  2  0
 11 12  1  0
 11 13  1  0
 13 14  1  0
 14 15  1  0
 14 16  1  0
 14 17  1  0
 17 18  2  0
 17 19  1  0
 19 20  1  0
 19 21  1  0
 21 22  2  0
 22 23  1  0
 23 24  1  0
 24 25  2  0
 25 26  1  0
 26 27  1  0
 27 28  1  0
 27 29  1  0
 27 30  1  0
 26 31  1  0
 31 32  1  0
 31 33  2  0
 33 34  1  0
 23 35  2  0
 35 36  1  0
 36 37  3  0
 35 38  1  0
 38 39  1  0
 39 40  1  0
 39 41  1  0
 38 42  2  0
 42 43  1  0
 13 44  2  0
 44 45  1  0
 45 46  1  0
 46 47  1  0
 46 48  1  0
 46 49  1  0
 44  2  1  0
 42 21  1  0
 33 24  1  0
M  END
>  <score>  (303) 
7.65374

$$$$

     RDKit          3D

 58 61  0  0  0  0  0  0  0  0999 V2000
   23.1272   14.7985   26.6238 H   0  0  0  0  0  0  0  0  0  0  0  0
   23.3671   14.0174   27.3382 C   0  0  0  0  0  0  0  0  0  0  0  0
   24.6107   13.3853   27.2867 C   0  0  0  0  0  0  0  0  0  0  0  0
   25.3353   13.6848   26.5360 H   0  0  0  0  0  0  0  0  0  0  0  0
   24.9182   12.3750   28.2028 C   0  0  0  0  0  0  0  0  0  0  0  0
   25.8832   11.8793   28.1449 H   0  0  0  0  0  0  0  0  0  0  0  0
   23.9881   11.9848   29.1770 C   0  0  0  0  0  0  0  0  0  0  0  0
   22.7331   12.6342   29.2435 C   0  0  0  0  0  0  0  0  0  0  0  0
   22.4351   13.6428   28.3096 C   0  0  0  0  0  0  0  0  0  0  0  0
   21.4855   14.1659   28.3522 H   0  0  0  0  0  0  0  0  0  0  0  0
   21.7206   12.3107   30.3249 C   0  0  0  0  0  0  0  0  0  0  0  0
   21.5177   13.2341   30.8721 H   0  0  0  0  0  0  0  0  0  0  0  0
   20.7797   11.9764   29.8647 H   0  0  0  0  0  0  0  0  0  0  0  0
   22.2151   11.3036   31.2801 N   0  0  0  0  0  0  0  0  0  0  0  0
   21.3901   10.2575   31.6241 C   0  0  0  0  0  0  0  0  0  0  0  0
   21.7739    9.0678   31.1930 N   0  0  0  0  0  0  0  0  0  0  0  0
   21.0311    8.0514   31.5412 C   0  0  0  0  0  0  0  0  0  0  0  0
   21.5518    6.9100   31.0583 N   0  0  0  0  0  0  0  0  0  0  0  0
   22.3891    7.0196   30.5081 H   0  0  0  0  0  0  0  0  0  0  0  0
   20.9464    5.6902   31.1219 C   0  0  0  0  0  0  0  0  0  0  0  0
   19.8848    5.5511   31.7053 O   0  0  0  0  0  0  0  0  0  0  0  0
   21.5637    4.5312   30.3578 C   0  0  0  0  0  0  0  0  0  0  0  0
   20.9274    3.6467   30.4549 H   0  0  0  0  0  0  0  0  0  0  0  0
   21.6100    4.7960   29.3005 H   0  0  0  0  0  0  0  0  0  0  0  0
   22.9554    4.2564   30.8730 C   0  0  0  0  0  0  0  0  0  0  0  0
   23.1555    3.1561   31.7154 C   0  0  0  0  0  0  0  0  0  0  0  0
   22.3175    2.5122   31.9633 H   0  0  0  0  0  0  0  0  0  0  0  0
   24.4222    2.8738   32.2554 C   0  0  0  0  0  0  0  0  0  0  0  0
   24.6574    1.7952   33.0750 O   0  0  0  0  0  0  0  0  0  0  0  0
   23.6451    0.7817   33.0947 C   0  0  0  0  0  0  0  0  0  0  0  0
   23.9860   -0.0606   33.7030 H   0  0  0  0  0  0  0  0  0  0  0  0
   23.4418    0.4181   32.0816 H   0  0  0  0  0  0  0  0  0  0  0  0
   22.7191    1.1726   33.5269 H   0  0  0  0  0  0  0  0  0  0  0  0
   25.4916    3.7295   31.9467 C   0  0  0  0  0  0  0  0  0  0  0  0
   27.2497    3.4302   32.6407 Br  0  0  0  0  0  0  0  0  0  0  0  0
   25.2934    4.8259   31.1044 C   0  0  0  0  0  0  0  0  0  0  0  0
   26.1293    5.4733   30.8619 H   0  0  0  0  0  0  0  0  0  0  0  0
   24.0316    5.1114   30.5629 C   0  0  0  0  0  0  0  0  0  0  0  0
   23.8107    6.2150   29.7675 O   0  0  0  0  0  0  0  0  0  0  0  0
   24.9289    7.0984   29.6058 C   0  0  0  0  0  0  0  0  0  0  0  0
   25.2551    7.4806   30.5792 H   0  0  0  0  0  0  0  0  0  0  0  0
   25.7648    6.5698   29.1361 H   0  0  0  0  0  0  0  0  0  0  0  0
   24.6506    7.9452   28.9725 H   0  0  0  0  0  0  0  0  0  0  0  0
   19.9111    8.1410   32.3268 C   0  0  0  0  0  0  0  0  0  0  0  0
   19.3382    7.2712   32.6006 H   0  0  0  0  0  0  0  0  0  0  0  0
   19.5721    9.3744   32.7976 C   0  0  0  0  0  0  0  0  0  0  0  0
   18.5567    9.4663   33.6901 N   0  0  0  0  0  0  0  0  0  0  0  0
   17.9720    8.6458   33.8167 H   0  0  0  0  0  0  0  0  0  0  0  0
   18.1525   10.3835   33.8600 H   0  0  0  0  0  0  0  0  0  0  0  0
   20.2841   10.4763   32.4169 C   0  0  0  0  0  0  0  0  0  0  0  0
   19.9583   11.7882   32.8704 C   0  0  0  0  0  0  0  0  0  0  0  0
   19.7240   12.8689   33.2300 N   0  0  0  0  0  0  0  0  0  0  0  0
   23.6649   11.1703   31.4957 C   0  0  0  0  0  0  0  0  0  0  0  0
   23.8786   10.3436   32.1853 H   0  0  0  0  0  0  0  0  0  0  0  0
   24.0441   12.0992   31.9395 H   0  0  0  0  0  0  0  0  0  0  0  0
   24.3893   10.9336   30.1853 C   0  0  0  0  0  0  0  0  0  0  0  0
   24.1692    9.9252   29.8214 H   0  0  0  0  0  0  0  0  0  0  0  0
   25.4664   11.0043   30.3650 H   0  0  0  0  0  0  0  0  0  0  0  0
  1  2  1  0
  2  3  2  0
  3  4  1  0
  3  5  1  0
  5  6  1  0
  5  7  2  0
  7  8  1  0
  8  9  2  0
  9 10  1  0
  8 11  1  0
 11 12  1  0
 11 13  1  0
 11 14  1  0
 14 15  1  0
 15 16  2  0
 16 17  1  0
 17 18  1  0
 18 19  1  0
 18 20  1  0
 20 21  2  0
 20 22  1  0
 22 23  1  0
 22 24  1  0
 22 25  1  0
 25 26  2  0
 26 27  1  0
 26 28  1  0
 28 29  1  0
 29 30  1  0
 30 31  1  0
 30 32  1  0
 30 33  1  0
 28 34  2  0
 34 35  1  0
 34 36  1  0
 36 37  1  0
 36 38  2  0
 38 39  1  0
 39 40  1  0
 40 41  1  0
 40 42  1  0
 40 43  1  0
 17 44  2  0
 44 45  1  0
 44 46  1  0
 46 47  1  0
 47 48  1  0
 47 49  1  0
 46 50  2  0
 50 51  1  0
 51 52  3  0
 14 53  1  0
 53 54  1  0
 53 55  1  0
 53 56  1  0
 56 57  1  0
 56 58  1  0
  9  2  1  0
 50 15  1  0
 56  7  1  0
 38 25  1  0
M  END
>  <score>  (304) 
7.65801

$$$$

     RDKit          3D

 58 60  0  0  0  0  0  0  0  0999 V2000
   26.1376    5.4810   30.8886 H   0  0  0  0  0  0  0  0  0  0  0  0
   25.3073    4.8234   31.1210 C   0  0  0  0  0  0  0  0  0  0  0  0
   25.5136    3.7190   31.9537 C   0  0  0  0  0  0  0  0  0  0  0  0
   27.2698    3.4205   32.6627 Br  0  0  0  0  0  0  0  0  0  0  0  0
   24.4450    2.8600   32.2552 C   0  0  0  0  0  0  0  0  0  0  0  0
   24.6744    1.7784   33.0736 O   0  0  0  0  0  0  0  0  0  0  0  0
   23.6456    0.7796   33.0958 C   0  0  0  0  0  0  0  0  0  0  0  0
   23.9648   -0.0713   33.7036 H   0  0  0  0  0  0  0  0  0  0  0  0
   22.7243    1.1856   33.5229 H   0  0  0  0  0  0  0  0  0  0  0  0
   23.4369    0.4214   32.0830 H   0  0  0  0  0  0  0  0  0  0  0  0
   23.1786    3.1402   31.7154 C   0  0  0  0  0  0  0  0  0  0  0  0
   22.3516    2.4840   31.9655 H   0  0  0  0  0  0  0  0  0  0  0  0
   22.9732    4.2421   30.8741 C   0  0  0  0  0  0  0  0  0  0  0  0
   21.5882    4.5016   30.3313 C   0  0  0  0  0  0  0  0  0  0  0  0
   21.6381    4.7013   29.2608 H   0  0  0  0  0  0  0  0  0  0  0  0
   20.9469    3.6281   30.4707 H   0  0  0  0  0  0  0  0  0  0  0  0
   20.9664    5.6982   31.0354 C   0  0  0  0  0  0  0  0  0  0  0  0
   19.8289    5.6278   31.4678 O   0  0  0  0  0  0  0  0  0  0  0  0
   21.6667    6.8626   31.1673 N   0  0  0  0  0  0  0  0  0  0  0  0
   22.5120    6.9845   30.6331 H   0  0  0  0  0  0  0  0  0  0  0  0
   21.1691    7.9918   31.6961 C   0  0  0  0  0  0  0  0  0  0  0  0
   21.8284    9.0486   31.2910 N   0  0  0  0  0  0  0  0  0  0  0  0
   21.3912   10.2471   31.6792 C   0  0  0  0  0  0  0  0  0  0  0  0
   22.0643   11.3691   31.2847 O   0  0  0  0  0  0  0  0  0  0  0  0
   23.2681   11.1775   30.5183 C   0  0  0  0  0  0  0  0  0  0  0  0
   23.9362   10.4697   31.0254 H   0  0  0  0  0  0  0  0  0  0  0  0
   23.0485   10.7800   29.5180 H   0  0  0  0  0  0  0  0  0  0  0  0
   23.9673   12.5388   30.3973 C   0  0  0  0  0  0  0  0  0  0  0  0
   24.1448   12.9113   31.4110 H   0  0  0  0  0  0  0  0  0  0  0  0
   25.3183   12.4032   29.6710 C   0  0  0  0  0  0  0  0  0  0  0  0
   25.8678   13.3456   29.7674 H   0  0  0  0  0  0  0  0  0  0  0  0
   25.9094   11.6136   30.1365 H   0  0  0  0  0  0  0  0  0  0  0  0
   25.1526   12.0797   28.1849 C   0  0  0  0  0  0  0  0  0  0  0  0
   26.1305   12.0987   27.6946 H   0  0  0  0  0  0  0  0  0  0  0  0
   24.7367   11.0749   28.0661 H   0  0  0  0  0  0  0  0  0  0  0  0
   24.2565   13.0590   27.5572 N   0  0  0  0  0  0  0  0  0  0  0  0
   24.1614   12.8692   26.5592 H   0  0  0  0  0  0  0  0  0  0  0  0
   22.9287   13.1598   28.1795 C   0  0  0  0  0  0  0  0  0  0  0  0
   22.4115   12.1974   28.1140 H   0  0  0  0  0  0  0  0  0  0  0  0
   22.3233   13.9035   27.6535 H   0  0  0  0  0  0  0  0  0  0  0  0
   23.0896   13.5542   29.6412 C   0  0  0  0  0  0  0  0  0  0  0  0
   22.1034   13.6228   30.1095 H   0  0  0  0  0  0  0  0  0  0  0  0
   23.5557   14.5415   29.6857 H   0  0  0  0  0  0  0  0  0  0  0  0
   20.2925   10.3929   32.4940 C   0  0  0  0  0  0  0  0  0  0  0  0
   19.8667   11.6782   32.9359 C   0  0  0  0  0  0  0  0  0  0  0  0
   19.5363   12.7184   33.3346 N   0  0  0  0  0  0  0  0  0  0  0  0
   19.6579    9.2624   32.9099 C   0  0  0  0  0  0  0  0  0  0  0  0
   18.5478    9.3187   33.6680 N   0  0  0  0  0  0  0  0  0  0  0  0
   18.1280    8.4355   33.9441 H   0  0  0  0  0  0  0  0  0  0  0  0
   17.9388   10.1166   33.5103 H   0  0  0  0  0  0  0  0  0  0  0  0
   20.0925    8.0426   32.5254 C   0  0  0  0  0  0  0  0  0  0  0  0
   19.5846    7.1510   32.8464 H   0  0  0  0  0  0  0  0  0  0  0  0
   24.0443    5.1077   30.5796 C   0  0  0  0  0  0  0  0  0  0  0  0
   23.8178    6.2178   29.7946 O   0  0  0  0  0  0  0  0  0  0  0  0
   24.9396    7.0947   29.6165 C   0  0  0  0  0  0  0  0  0  0  0  0
   25.7586    6.5698   29.1146 H   0  0  0  0  0  0  0  0  0  0  0  0
   25.2993    7.4624   30.5832 H   0  0  0  0  0  0  0  0  0  0  0  0
   24.6490    7.9527   29.0056 H   0  0  0  0  0  0  0  0  0  0  0  0
  1  2  1  0
  2  3  2  0
  3  4  1  0
  3  5  1  0
  5  6  1  0
  6  7  1  0
  7  8  1  0
  7  9  1  0
  7 10  1  0
  5 11  2  0
 11 12  1  0
 11 13  1  0
 13 14  1  0
 14 15  1  0
 14 16  1  0
 14 17  1  0
 17 18  2  0
 17 19  1  0
 19 20  1  0
 19 21  1  0
 21 22  2  0
 22 23  1  0
 23 24  1  0
 24 25  1  0
 25 26  1  0
 25 27  1  0
 25 28  1  0
 28 29  1  0
 28 30  1  0
 30 31  1  0
 30 32  1  0
 30 33  1  0
 33 34  1  0
 33 35  1  0
 33 36  1  0
 36 37  1  0
 36 38  1  0
 38 39  1  0
 38 40  1  0
 38 41  1  0
 41 42  1  0
 41 43  1  0
 23 44  2  0
 44 45  1  0
 45 46  3  0
 44 47  1  0
 47 48  1  0
 48 49  1  0
 48 50  1  0
 47 51  2  0
 51 52  1  0
 13 53  2  0
 53 54  1  0
 54 55  1  0
 55 56  1  0
 55 57  1  0
 55 58  1  0
 53  2  1  0
 51 21  1  0
 41 28  1  0
M  END
>  <score>  (305) 
7.65883

$$$$

     RDKit          3D

 55 57  0  0  0  0  0  0  0  0999 V2000
   24.3951   15.9604   27.7525 H   0  0  0  0  0  0  0  0  0  0  0  0
   23.8336   15.1341   28.1759 C   0  0  0  0  0  0  0  0  0  0  0  0
   22.6542   15.3903   28.8809 C   0  0  0  0  0  0  0  0  0  0  0  0
   22.3083   16.4133   28.9963 H   0  0  0  0  0  0  0  0  0  0  0  0
   21.9414   14.3323   29.4593 C   0  0  0  0  0  0  0  0  0  0  0  0
   21.0326   14.5347   30.0186 H   0  0  0  0  0  0  0  0  0  0  0  0
   22.3946   13.0096   29.3258 C   0  0  0  0  0  0  0  0  0  0  0  0
   21.5876   11.8544   29.8762 C   0  0  0  0  0  0  0  0  0  0  0  0
   21.5833   11.0387   29.1408 H   0  0  0  0  0  0  0  0  0  0  0  0
   20.5482   12.1793   30.0111 H   0  0  0  0  0  0  0  0  0  0  0  0
   22.1614   11.3431   31.2114 C   0  0  0  0  0  0  0  0  0  0  0  0
   22.1347   12.1409   31.9587 H   0  0  0  0  0  0  0  0  0  0  0  0
   23.2053   11.0450   31.0816 H   0  0  0  0  0  0  0  0  0  0  0  0
   21.3820   10.1599   31.7213 C   0  0  0  0  0  0  0  0  0  0  0  0
   21.7901    8.9470   31.3377 N   0  0  0  0  0  0  0  0  0  0  0  0
   21.1116    7.8988   31.7637 C   0  0  0  0  0  0  0  0  0  0  0  0
   21.6135    6.7631   31.2420 N   0  0  0  0  0  0  0  0  0  0  0  0
   22.4355    6.9018   30.6787 H   0  0  0  0  0  0  0  0  0  0  0  0
   20.9236    5.5997   31.0719 C   0  0  0  0  0  0  0  0  0  0  0  0
   19.7798    5.5082   31.4856 O   0  0  0  0  0  0  0  0  0  0  0  0
   21.5770    4.4450   30.3235 C   0  0  0  0  0  0  0  0  0  0  0  0
   21.6222    4.6846   29.2576 H   0  0  0  0  0  0  0  0  0  0  0  0
   20.9641    3.5469   30.4444 H   0  0  0  0  0  0  0  0  0  0  0  0
   22.9678    4.2110   30.8649 C   0  0  0  0  0  0  0  0  0  0  0  0
   23.1793    3.1173   31.7119 C   0  0  0  0  0  0  0  0  0  0  0  0
   22.3567    2.4505   31.9555 H   0  0  0  0  0  0  0  0  0  0  0  0
   24.4437    2.8524   32.2567 C   0  0  0  0  0  0  0  0  0  0  0  0
   24.6699    1.7710   33.0748 O   0  0  0  0  0  0  0  0  0  0  0  0
   23.6386    0.7739   33.0989 C   0  0  0  0  0  0  0  0  0  0  0  0
   23.4298    0.4169   32.0849 H   0  0  0  0  0  0  0  0  0  0  0  0
   22.7182    1.1853   33.5250 H   0  0  0  0  0  0  0  0  0  0  0  0
   23.9563   -0.0775   33.7083 H   0  0  0  0  0  0  0  0  0  0  0  0
   25.5041    3.7215   31.9557 C   0  0  0  0  0  0  0  0  0  0  0  0
   27.2555    3.4255   32.6712 Br  0  0  0  0  0  0  0  0  0  0  0  0
   25.2874    4.8269   31.1281 C   0  0  0  0  0  0  0  0  0  0  0  0
   26.1077    5.4968   30.9010 H   0  0  0  0  0  0  0  0  0  0  0  0
   24.0264    5.0996   30.5811 C   0  0  0  0  0  0  0  0  0  0  0  0
   23.8006    6.2132   29.7988 O   0  0  0  0  0  0  0  0  0  0  0  0
   24.9241    7.0900   29.6132 C   0  0  0  0  0  0  0  0  0  0  0  0
   25.7407    6.5613   29.1116 H   0  0  0  0  0  0  0  0  0  0  0  0
   25.2889    7.4610   30.5768 H   0  0  0  0  0  0  0  0  0  0  0  0
   24.6361    7.9476   28.9993 H   0  0  0  0  0  0  0  0  0  0  0  0
   20.0248    7.9710   32.5927 C   0  0  0  0  0  0  0  0  0  0  0  0
   19.4964    7.0900   32.9230 H   0  0  0  0  0  0  0  0  0  0  0  0
   19.6148    9.2118   32.9667 C   0  0  0  0  0  0  0  0  0  0  0  0
   18.5162    9.3021   33.7446 N   0  0  0  0  0  0  0  0  0  0  0  0
   17.9127   10.0951   33.5403 H   0  0  0  0  0  0  0  0  0  0  0  0
   18.0776    8.4161   33.9817 H   0  0  0  0  0  0  0  0  0  0  0  0
   20.2759   10.3354   32.5395 C   0  0  0  0  0  0  0  0  0  0  0  0
   19.8475   11.6307   32.9577 C   0  0  0  0  0  0  0  0  0  0  0  0
   19.5273   12.6906   33.3135 N   0  0  0  0  0  0  0  0  0  0  0  0
   23.5822   12.7675   28.6206 C   0  0  0  0  0  0  0  0  0  0  0  0
   23.9497   11.7510   28.5311 H   0  0  0  0  0  0  0  0  0  0  0  0
   24.2990   13.8229   28.0448 C   0  0  0  0  0  0  0  0  0  0  0  0
   25.2074   13.6194   27.4870 H   0  0  0  0  0  0  0  0  0  0  0  0
  1  2  1  0
  2  3  2  0
  3  4  1  0
  3  5  1  0
  5  6  1  0
  5  7  2  0
  7  8  1  0
  8  9  1  0
  8 10  1  0
  8 11  1  0
 11 12  1  0
 11 13  1  0
 11 14  1  0
 14 15  2  0
 15 16  1  0
 16 17  1  0
 17 18  1  0
 17 19  1  0
 19 20  2  0
 19 21  1  0
 21 22  1  0
 21 23  1  0
 21 24  1  0
 24 25  2  0
 25 26  1  0
 25 27  1  0
 27 28  1  0
 28 29  1  0
 29 30  1  0
 29 31  1  0
 29 32  1  0
 27 33  2  0
 33 34  1  0
 33 35  1  0
 35 36  1  0
 35 37  2  0
 37 38  1  0
 38 39  1  0
 39 40  1  0
 39 41  1  0
 39 42  1  0
 16 43  2  0
 43 44  1  0
 43 45  1  0
 45 46  1  0
 46 47  1  0
 46 48  1  0
 45 49  2  0
 49 50  1  0
 50 51  3  0
  7 52  1  0
 52 53  1  0
 52 54  2  0
 54 55  1  0
 54  2  1  0
 49 14  1  0
 37 24  1  0
M  END
>  <score>  (306) 
7.66249

$$$$

     RDKit          3D

 50 52  0  0  0  0  0  0  0  0999 V2000
   25.2487   12.6819   28.7640 H   0  0  0  0  0  0  0  0  0  0  0  0
   24.9189   11.9382   29.4866 C   0  0  0  0  0  0  0  0  0  0  0  0
   23.7133   12.0940   30.0501 N   0  0  0  0  0  0  0  0  0  0  0  0
   23.3438   11.1656   30.9038 C   0  0  0  0  0  0  0  0  0  0  0  0
   22.1094   11.3797   31.3809 N   0  0  0  0  0  0  0  0  0  0  0  0
   21.6365   12.1468   30.9359 H   0  0  0  0  0  0  0  0  0  0  0  0
   21.3461   10.3171   31.6808 C   0  0  0  0  0  0  0  0  0  0  0  0
   21.7423    9.1489   31.2111 N   0  0  0  0  0  0  0  0  0  0  0  0
   21.0318    8.1073   31.5410 C   0  0  0  0  0  0  0  0  0  0  0  0
   21.5399    6.9852   30.9993 N   0  0  0  0  0  0  0  0  0  0  0  0
   22.3931    7.1027   30.4768 H   0  0  0  0  0  0  0  0  0  0  0  0
   20.9599    5.7507   31.0802 C   0  0  0  0  0  0  0  0  0  0  0  0
   19.9075    5.6158   31.6790 O   0  0  0  0  0  0  0  0  0  0  0  0
   21.5868    4.5792   30.3400 C   0  0  0  0  0  0  0  0  0  0  0  0
   20.9302    3.7113   30.4219 H   0  0  0  0  0  0  0  0  0  0  0  0
   21.6674    4.8376   29.2818 H   0  0  0  0  0  0  0  0  0  0  0  0
   22.9619    4.2705   30.8850 C   0  0  0  0  0  0  0  0  0  0  0  0
   23.1555    3.1599   31.7236 C   0  0  0  0  0  0  0  0  0  0  0  0
   22.3209    2.5106   31.9721 H   0  0  0  0  0  0  0  0  0  0  0  0
   24.4243    2.8683   32.2593 C   0  0  0  0  0  0  0  0  0  0  0  0
   24.6590    1.7959   33.0902 O   0  0  0  0  0  0  0  0  0  0  0  0
   23.6670    0.7605   33.1157 C   0  0  0  0  0  0  0  0  0  0  0  0
   23.4662    0.3928   32.1048 H   0  0  0  0  0  0  0  0  0  0  0  0
   22.7330    1.1276   33.5507 H   0  0  0  0  0  0  0  0  0  0  0  0
   24.0274   -0.0778   33.7213 H   0  0  0  0  0  0  0  0  0  0  0  0
   25.5021    3.7128   31.9427 C   0  0  0  0  0  0  0  0  0  0  0  0
   27.2593    3.3716   32.6316 Br  0  0  0  0  0  0  0  0  0  0  0  0
   25.3103    4.8104   31.0979 C   0  0  0  0  0  0  0  0  0  0  0  0
   26.1547    5.4426   30.8455 H   0  0  0  0  0  0  0  0  0  0  0  0
   24.0474    5.1093   30.5668 C   0  0  0  0  0  0  0  0  0  0  0  0
   23.8308    6.2018   29.7547 O   0  0  0  0  0  0  0  0  0  0  0  0
   24.9304    7.1075   29.5977 C   0  0  0  0  0  0  0  0  0  0  0  0
   25.2804    7.4425   30.5772 H   0  0  0  0  0  0  0  0  0  0  0  0
   24.6141    7.9800   29.0174 H   0  0  0  0  0  0  0  0  0  0  0  0
   25.7627    6.6230   29.0781 H   0  0  0  0  0  0  0  0  0  0  0  0
   19.9288    8.1751   32.3456 C   0  0  0  0  0  0  0  0  0  0  0  0
   19.3630    7.3017   32.6111 H   0  0  0  0  0  0  0  0  0  0  0  0
   19.5768    9.3985   32.8248 C   0  0  0  0  0  0  0  0  0  0  0  0
   18.5471    9.4914   33.6840 N   0  0  0  0  0  0  0  0  0  0  0  0
   17.9760    8.6658   33.8338 H   0  0  0  0  0  0  0  0  0  0  0  0
   18.1762   10.4162   33.8848 H   0  0  0  0  0  0  0  0  0  0  0  0
   20.2597   10.5141   32.4733 C   0  0  0  0  0  0  0  0  0  0  0  0
   19.9132   11.8219   32.9255 C   0  0  0  0  0  0  0  0  0  0  0  0
   19.6940   12.9204   33.2321 N   0  0  0  0  0  0  0  0  0  0  0  0
   24.1206   10.0810   31.2907 C   0  0  0  0  0  0  0  0  0  0  0  0
   23.7087    9.3942   32.0144 H   0  0  0  0  0  0  0  0  0  0  0  0
   25.3571    9.8869   30.6985 C   0  0  0  0  0  0  0  0  0  0  0  0
   25.9787    9.0364   30.9565 H   0  0  0  0  0  0  0  0  0  0  0  0
   25.7589   10.8478   29.7746 C   0  0  0  0  0  0  0  0  0  0  0  0
   26.7283   10.7563   29.2959 H   0  0  0  0  0  0  0  0  0  0  0  0
  1  2  1  0
  2  3  2  0
  3  4  1  0
  4  5  1  0
  5  6  1  0
  5  7  1  0
  7  8  2  0
  8  9  1  0
  9 10  1  0
 10 11  1  0
 10 12  1  0
 12 13  2  0
 12 14  1  0
 14 15  1  0
 14 16  1  0
 14 17  1  0
 17 18  2  0
 18 19  1  0
 18 20  1  0
 20 21  1  0
 21 22  1  0
 22 23  1  0
 22 24  1  0
 22 25  1  0
 20 26  2  0
 26 27  1  0
 26 28  1  0
 28 29  1  0
 28 30  2  0
 30 31  1  0
 31 32  1  0
 32 33  1  0
 32 34  1  0
 32 35  1  0
  9 36  2  0
 36 37  1  0
 36 38  1  0
 38 39  1  0
 39 40  1  0
 39 41  1  0
 38 42  2  0
 42 43  1  0
 43 44  3  0
  4 45  2  0
 45 46  1  0
 45 47  1  0
 47 48  1  0
 47 49  2  0
 49 50  1  0
 49  2  1  0
 42  7  1  0
 30 17  1  0
M  END
>  <score>  (307) 
7.66312

$$$$

     RDKit          3D

 50 52  0  0  0  0  0  0  0  0999 V2000
   26.1796    5.4193   30.8468 H   0  0  0  0  0  0  0  0  0  0  0  0
   25.3381    4.7860   31.1027 C   0  0  0  0  0  0  0  0  0  0  0  0
   25.5226    3.6808   31.9449 C   0  0  0  0  0  0  0  0  0  0  0  0
   27.2722    3.3230   32.6363 Br  0  0  0  0  0  0  0  0  0  0  0  0
   24.4408    2.8487   32.2711 C   0  0  0  0  0  0  0  0  0  0  0  0
   24.6680    1.7854   33.1165 O   0  0  0  0  0  0  0  0  0  0  0  0
   23.6858    0.7396   33.1359 C   0  0  0  0  0  0  0  0  0  0  0  0
   24.0566   -0.0957   33.7388 H   0  0  0  0  0  0  0  0  0  0  0  0
   23.4917    0.3696   32.1229 H   0  0  0  0  0  0  0  0  0  0  0  0
   22.7464    1.0889   33.5775 H   0  0  0  0  0  0  0  0  0  0  0  0
   23.1781    3.1431   31.7318 C   0  0  0  0  0  0  0  0  0  0  0  0
   22.3446    2.4951   31.9814 H   0  0  0  0  0  0  0  0  0  0  0  0
   22.9903    4.2526   30.8900 C   0  0  0  0  0  0  0  0  0  0  0  0
   21.6096    4.5521   30.3458 C   0  0  0  0  0  0  0  0  0  0  0  0
   20.9882    3.6534   30.3539 H   0  0  0  0  0  0  0  0  0  0  0  0
   21.6970    4.8931   29.3120 H   0  0  0  0  0  0  0  0  0  0  0  0
   20.9200    5.6609   31.1342 C   0  0  0  0  0  0  0  0  0  0  0  0
   19.7281    5.5862   31.3872 O   0  0  0  0  0  0  0  0  0  0  0  0
   21.5931    6.8214   31.3617 N   0  0  0  0  0  0  0  0  0  0  0  0
   22.4680    6.9470   30.8789 H   0  0  0  0  0  0  0  0  0  0  0  0
   21.0115    7.9853   31.7202 C   0  0  0  0  0  0  0  0  0  0  0  0
   21.7477    8.9965   31.3137 N   0  0  0  0  0  0  0  0  0  0  0  0
   21.3881   10.2377   31.6498 C   0  0  0  0  0  0  0  0  0  0  0  0
   22.2475   11.4090   31.2181 C   0  0  2  0  0  0  0  0  0  0  0  0
   22.3394   12.0834   32.0696 H   0  0  0  0  0  0  0  0  0  0  0  0
   21.6152   12.1490   30.0456 C   0  0  0  0  0  0  0  0  0  0  0  0
   20.5554   11.9152   29.9327 H   0  0  0  0  0  0  0  0  0  0  0  0
   21.6956   13.2304   30.1963 H   0  0  0  0  0  0  0  0  0  0  0  0
   22.3391   11.7756   28.8705 O   0  0  0  0  0  0  0  0  0  0  0  0
   23.4059   10.8805   29.1960 C   0  0  0  0  0  0  0  0  0  0  0  0
   23.1099    9.8544   28.9528 H   0  0  0  0  0  0  0  0  0  0  0  0
   24.3159   11.1220   28.6362 H   0  0  0  0  0  0  0  0  0  0  0  0
   23.6308   11.0368   30.6892 C   0  0  0  0  0  0  0  0  0  0  0  0
   24.3419   11.8495   30.8714 H   0  0  0  0  0  0  0  0  0  0  0  0
   24.0264   10.1201   31.1375 H   0  0  0  0  0  0  0  0  0  0  0  0
   20.2699   10.4673   32.4372 C   0  0  0  0  0  0  0  0  0  0  0  0
   19.9407   11.7889   32.8628 C   0  0  0  0  0  0  0  0  0  0  0  0
   19.7005   12.8734   33.2073 N   0  0  0  0  0  0  0  0  0  0  0  0
   19.5255    9.3789   32.8339 C   0  0  0  0  0  0  0  0  0  0  0  0
   18.4630    9.4912   33.6618 N   0  0  0  0  0  0  0  0  0  0  0  0
   18.1467   10.4181   33.9315 H   0  0  0  0  0  0  0  0  0  0  0  0
   17.9166    8.6618   33.8937 H   0  0  0  0  0  0  0  0  0  0  0  0
   19.8635    8.1189   32.4507 C   0  0  0  0  0  0  0  0  0  0  0  0
   19.2722    7.2734   32.7616 H   0  0  0  0  0  0  0  0  0  0  0  0
   24.0767    5.0909   30.5720 C   0  0  0  0  0  0  0  0  0  0  0  0
   23.8513    6.1811   29.7564 O   0  0  0  0  0  0  0  0  0  0  0  0
   24.9318    7.1123   29.5907 C   0  0  0  0  0  0  0  0  0  0  0  0
   24.6007    7.9484   28.9674 H   0  0  0  0  0  0  0  0  0  0  0  0
   25.7894    6.6402   29.0974 H   0  0  0  0  0  0  0  0  0  0  0  0
   25.2504    7.5135   30.5598 H   0  0  0  0  0  0  0  0  0  0  0  0
  1  2  1  0
  2  3  2  0
  3  4  1  0
  3  5  1  0
  5  6  1  0
  6  7  1  0
  7  8  1  0
  7  9  1  0
  7 10  1  0
  5 11  2  0
 11 12  1  0
 11 13  1  0
 13 14  1  0
 14 15  1  0
 14 16  1  0
 14 17  1  0
 17 18  2  0
 17 19  1  0
 19 20  1  0
 19 21  1  0
 21 22  2  0
 22 23  1  0
 23 24  1  0
 24 25  1  1
 24 26  1  0
 26 27  1  0
 26 28  1  0
 26 29  1  0
 29 30  1  0
 30 31  1  0
 30 32  1  0
 30 33  1  0
 33 34  1  0
 33 35  1  0
 23 36  2  0
 36 37  1  0
 37 38  3  0
 36 39  1  0
 39 40  1  0
 40 41  1  0
 40 42  1  0
 39 43  2  0
 43 44  1  0
 13 45  2  0
 45 46  1  0
 46 47  1  0
 47 48  1  0
 47 49  1  0
 47 50  1  0
 45  2  1  0
 43 21  1  0
 33 24  1  0
M  END
>  <score>  (308) 
7.66468

$$$$

     RDKit          3D

 52 55  0  0  0  0  0  0  0  0999 V2000
   26.1107    5.4803   30.8703 H   0  0  0  0  0  0  0  0  0  0  0  0
   25.2744    4.8361   31.1183 C   0  0  0  0  0  0  0  0  0  0  0  0
   25.4929    3.7370   31.9480 C   0  0  0  0  0  0  0  0  0  0  0  0
   27.2554    3.4436   32.6441 Br  0  0  0  0  0  0  0  0  0  0  0  0
   24.4280    2.8780   32.2575 C   0  0  0  0  0  0  0  0  0  0  0  0
   24.6700    1.7843   33.0551 O   0  0  0  0  0  0  0  0  0  0  0  0
   23.6393    0.7876   33.0844 C   0  0  0  0  0  0  0  0  0  0  0  0
   23.9580   -0.0624   33.6953 H   0  0  0  0  0  0  0  0  0  0  0  0
   22.7216    1.2004   33.5148 H   0  0  0  0  0  0  0  0  0  0  0  0
   23.4274    0.4261   32.0722 H   0  0  0  0  0  0  0  0  0  0  0  0
   23.1497    3.1678   31.7460 C   0  0  0  0  0  0  0  0  0  0  0  0
   22.3266    2.5066   31.9940 H   0  0  0  0  0  0  0  0  0  0  0  0
   22.9218    4.2805   30.9265 C   0  0  0  0  0  0  0  0  0  0  0  0
   21.5173    4.5515   30.4176 C   0  0  0  0  0  0  0  0  0  0  0  0
   21.5593    4.8497   29.3691 H   0  0  0  0  0  0  0  0  0  0  0  0
   20.8955    3.6576   30.4871 H   0  0  0  0  0  0  0  0  0  0  0  0
   20.8575    5.6765   31.1954 C   0  0  0  0  0  0  0  0  0  0  0  0
   19.6915    5.6118   31.5514 O   0  0  0  0  0  0  0  0  0  0  0  0
   21.5655    6.8178   31.3824 N   0  0  0  0  0  0  0  0  0  0  0  0
   22.4450    6.9084   30.8952 H   0  0  0  0  0  0  0  0  0  0  0  0
   21.0485    7.9782   31.8156 C   0  0  0  0  0  0  0  0  0  0  0  0
   21.8133    8.9720   31.4485 N   0  0  0  0  0  0  0  0  0  0  0  0
   21.4408   10.2172   31.7346 C   0  0  0  0  0  0  0  0  0  0  0  0
   22.3339   11.2645   31.1947 C   0  0  0  0  0  0  0  0  0  0  0  0
   23.6835   11.0541   30.9717 O   0  0  0  0  0  0  0  0  0  0  0  0
   24.1546   12.1711   30.3442 C   0  0  0  0  0  0  0  0  0  0  0  0
   25.4504   12.4332   29.8990 C   0  0  0  0  0  0  0  0  0  0  0  0
   26.2246   11.6893   30.0437 H   0  0  0  0  0  0  0  0  0  0  0  0
   25.7251   13.6540   29.2681 C   0  0  0  0  0  0  0  0  0  0  0  0
   26.7316   13.8914   28.9342 H   0  0  0  0  0  0  0  0  0  0  0  0
   24.6896   14.5719   29.0444 C   0  0  0  0  0  0  0  0  0  0  0  0
   24.9221   15.5082   28.5425 H   0  0  0  0  0  0  0  0  0  0  0  0
   23.3786   14.2804   29.4651 C   0  0  0  0  0  0  0  0  0  0  0  0
   22.5527   14.9564   29.2653 H   0  0  0  0  0  0  0  0  0  0  0  0
   23.1366   13.0923   30.1550 C   0  0  0  0  0  0  0  0  0  0  0  0
   21.9615   12.5138   30.7510 C   0  0  0  0  0  0  0  0  0  0  0  0
   20.9698   12.9559   30.7823 H   0  0  0  0  0  0  0  0  0  0  0  0
   20.2699   10.4702   32.4516 C   0  0  0  0  0  0  0  0  0  0  0  0
   19.9150   11.8019   32.8088 C   0  0  0  0  0  0  0  0  0  0  0  0
   19.6587   12.8942   33.1162 N   0  0  0  0  0  0  0  0  0  0  0  0
   19.4995    9.3887   32.8416 C   0  0  0  0  0  0  0  0  0  0  0  0
   18.3835    9.5280   33.6004 N   0  0  0  0  0  0  0  0  0  0  0  0
   18.5711    9.8802   34.5340 H   0  0  0  0  0  0  0  0  0  0  0  0
   17.6173   10.0017   33.1293 H   0  0  0  0  0  0  0  0  0  0  0  0
   19.8822    8.1238   32.5060 C   0  0  0  0  0  0  0  0  0  0  0  0
   19.3073    7.2573   32.7902 H   0  0  0  0  0  0  0  0  0  0  0  0
   24.0007    5.1315   30.6049 C   0  0  0  0  0  0  0  0  0  0  0  0
   23.7894    6.2360   29.8095 O   0  0  0  0  0  0  0  0  0  0  0  0
   24.9288    7.0910   29.6240 C   0  0  0  0  0  0  0  0  0  0  0  0
   24.6584    7.9527   29.0093 H   0  0  0  0  0  0  0  0  0  0  0  0
   25.7388    6.5479   29.1246 H   0  0  0  0  0  0  0  0  0  0  0  0
   25.2931    7.4548   30.5912 H   0  0  0  0  0  0  0  0  0  0  0  0
  1  2  1  0
  2  3  2  0
  3  4  1  0
  3  5  1  0
  5  6  1  0
  6  7  1  0
  7  8  1  0
  7  9  1  0
  7 10  1  0
  5 11  2  0
 11 12  1  0
 11 13  1  0
 13 14  1  0
 14 15  1  0
 14 16  1  0
 14 17  1  0
 17 18  2  0
 17 19  1  0
 19 20  1  0
 19 21  1  0
 21 22  2  0
 22 23  1  0
 23 24  1  0
 24 25  1  0
 25 26  1  0
 26 27  2  0
 27 28  1  0
 27 29  1  0
 29 30  1  0
 29 31  2  0
 31 32  1  0
 31 33  1  0
 33 34  1  0
 33 35  2  0
 35 36  1  0
 36 37  1  0
 23 38  2  0
 38 39  1  0
 39 40  3  0
 38 41  1  0
 41 42  1  0
 42 43  1  0
 42 44  1  0
 41 45  2  0
 45 46  1  0
 13 47  2  0
 47 48  1  0
 48 49  1  0
 49 50  1  0
 49 51  1  0
 49 52  1  0
 47  2  1  0
 45 21  1  0
 36 24  2  0
 35 26  1  0
M  END
>  <score>  (309) 
7.66543

$$$$

     RDKit          3D

 52 54  0  0  0  0  0  0  0  0999 V2000
   21.0377   14.3246   29.4519 H   0  0  0  0  0  0  0  0  0  0  0  0
   21.6498   13.5485   29.9022 C   0  0  0  0  0  0  0  0  0  0  0  0
   21.0348   12.4371   30.4826 C   0  0  0  0  0  0  0  0  0  0  0  0
   19.9491   12.3753   30.4775 H   0  0  0  0  0  0  0  0  0  0  0  0
   21.8072   11.3935   31.0318 C   0  0  0  0  0  0  0  0  0  0  0  0
   21.1445   10.2030   31.6089 C   0  0  0  0  0  0  0  0  0  0  0  0
   21.6232    8.9895   31.2902 N   0  0  0  0  0  0  0  0  0  0  0  0
   20.9578    7.9223   31.6821 C   0  0  0  0  0  0  0  0  0  0  0  0
   21.5333    6.7775   31.2645 N   0  0  0  0  0  0  0  0  0  0  0  0
   22.4207    6.8914   30.8028 H   0  0  0  0  0  0  0  0  0  0  0  0
   20.8823    5.5842   31.1325 C   0  0  0  0  0  0  0  0  0  0  0  0
   19.7291    5.4744   31.5117 O   0  0  0  0  0  0  0  0  0  0  0  0
   21.5647    4.4534   30.3760 C   0  0  0  0  0  0  0  0  0  0  0  0
   21.5895    4.7105   29.3169 H   0  0  0  0  0  0  0  0  0  0  0  0
   20.9734    3.5394   30.4848 H   0  0  0  0  0  0  0  0  0  0  0  0
   22.9685    4.2288   30.8837 C   0  0  0  0  0  0  0  0  0  0  0  0
   23.1916    3.1133   31.6932 C   0  0  0  0  0  0  0  0  0  0  0  0
   22.3739    2.4333   31.9117 H   0  0  0  0  0  0  0  0  0  0  0  0
   24.4510    2.8484   32.2443 C   0  0  0  0  0  0  0  0  0  0  0  0
   24.6720    1.7522   33.0444 O   0  0  0  0  0  0  0  0  0  0  0  0
   23.6148    0.7814   33.0822 C   0  0  0  0  0  0  0  0  0  0  0  0
   23.3904    0.4205   32.0730 H   0  0  0  0  0  0  0  0  0  0  0  0
   23.9100   -0.0722   33.6989 H   0  0  0  0  0  0  0  0  0  0  0  0
   22.7065    1.2204   33.5065 H   0  0  0  0  0  0  0  0  0  0  0  0
   25.5046    3.7364   31.9748 C   0  0  0  0  0  0  0  0  0  0  0  0
   27.2506    3.4504   32.7093 Br  0  0  0  0  0  0  0  0  0  0  0  0
   25.2888    4.8465   31.1500 C   0  0  0  0  0  0  0  0  0  0  0  0
   26.1089    5.5214   30.9327 H   0  0  0  0  0  0  0  0  0  0  0  0
   24.0266    5.1182   30.5991 C   0  0  0  0  0  0  0  0  0  0  0  0
   23.7970    6.2332   29.8203 O   0  0  0  0  0  0  0  0  0  0  0  0
   24.9286    7.0949   29.6132 C   0  0  0  0  0  0  0  0  0  0  0  0
   25.7362    6.5545   29.1078 H   0  0  0  0  0  0  0  0  0  0  0  0
   24.6449    7.9495   28.9932 H   0  0  0  0  0  0  0  0  0  0  0  0
   25.3052    7.4707   30.5709 H   0  0  0  0  0  0  0  0  0  0  0  0
   19.8095    7.9772   32.4156 C   0  0  0  0  0  0  0  0  0  0  0  0
   19.2853    7.0887   32.7145 H   0  0  0  0  0  0  0  0  0  0  0  0
   19.3512    9.1990   32.7734 C   0  0  0  0  0  0  0  0  0  0  0  0
   18.2401    9.2226   33.5242 N   0  0  0  0  0  0  0  0  0  0  0  0
   18.0785   10.0873   34.0309 H   0  0  0  0  0  0  0  0  0  0  0  0
   18.0032    8.3362   33.9615 H   0  0  0  0  0  0  0  0  0  0  0  0
   20.0026   10.3420   32.3957 C   0  0  0  0  0  0  0  0  0  0  0  0
   19.5226   11.6267   32.7878 C   0  0  0  0  0  0  0  0  0  0  0  0
   19.1701   12.6916   33.0948 N   0  0  0  0  0  0  0  0  0  0  0  0
   23.2089   11.5057   30.9924 C   0  0  0  0  0  0  0  0  0  0  0  0
   23.8278   10.7104   31.3971 H   0  0  0  0  0  0  0  0  0  0  0  0
   23.8270   12.6450   30.4660 C   0  0  0  0  0  0  0  0  0  0  0  0
   25.3102   12.8018   30.5777 C   0  0  0  0  0  0  0  0  0  0  0  0
   25.6198   13.8118   30.2926 H   0  0  0  0  0  0  0  0  0  0  0  0
   25.8320   12.0797   29.9434 H   0  0  0  0  0  0  0  0  0  0  0  0
   25.5840   12.6288   31.6201 H   0  0  0  0  0  0  0  0  0  0  0  0
   23.0428   13.6559   29.9013 C   0  0  0  0  0  0  0  0  0  0  0  0
   23.5090   14.5360   29.4727 H   0  0  0  0  0  0  0  0  0  0  0  0
  1  2  1  0
  2  3  2  0
  3  4  1  0
  3  5  1  0
  5  6  1  0
  6  7  2  0
  7  8  1  0
  8  9  1  0
  9 10  1  0
  9 11  1  0
 11 12  2  0
 11 13  1  0
 13 14  1  0
 13 15  1  0
 13 16  1  0
 16 17  2  0
 17 18  1  0
 17 19  1  0
 19 20  1  0
 20 21  1  0
 21 22  1  0
 21 23  1  0
 21 24  1  0
 19 25  2  0
 25 26  1  0
 25 27  1  0
 27 28  1  0
 27 29  2  0
 29 30  1  0
 30 31  1  0
 31 32  1  0
 31 33  1  0
 31 34  1  0
  8 35  2  0
 35 36  1  0
 35 37  1  0
 37 38  1  0
 38 39  1  0
 38 40  1  0
 37 41  2  0
 41 42  1  0
 42 43  3  0
  5 44  2  0
 44 45  1  0
 44 46  1  0
 46 47  1  0
 47 48  1  0
 47 49  1  0
 47 50  1  0
 46 51  2  0
 51 52  1  0
 51  2  1  0
 41  6  1  0
 29 16  1  0
M  END
>  <score>  (310) 
7.66634

$$$$

     RDKit          3D

 51 53  0  0  0  0  0  0  0  0999 V2000
   25.8131    8.7697   31.7890 H   0  0  0  0  0  0  0  0  0  0  0  0
   25.3381    9.4921   31.1400 C   0  0  0  0  0  0  0  0  0  0  0  0
   25.8498    9.6903   29.9172 N   0  0  0  0  0  0  0  0  0  0  0  0
   25.2244   10.5485   29.1027 C   0  0  0  0  0  0  0  0  0  0  0  0
   25.6729   10.7531   28.1399 H   0  0  0  0  0  0  0  0  0  0  0  0
   24.0386   11.1921   29.4520 C   0  0  0  0  0  0  0  0  0  0  0  0
   23.5472   11.8195   28.7202 H   0  0  0  0  0  0  0  0  0  0  0  0
   23.5086   10.9876   30.7197 C   0  0  0  0  0  0  0  0  0  0  0  0
   22.1488   11.4775   31.1103 C   0  0  0  0  0  0  0  0  0  0  0  0
   22.2569   12.2290   31.8912 H   0  0  0  0  0  0  0  0  0  0  0  0
   21.6404   11.9422   30.2647 H   0  0  0  0  0  0  0  0  0  0  0  0
   21.3219   10.3087   31.6010 C   0  0  0  0  0  0  0  0  0  0  0  0
   21.6466    9.0935   31.1536 N   0  0  0  0  0  0  0  0  0  0  0  0
   20.9536    8.0530   31.5410 C   0  0  0  0  0  0  0  0  0  0  0  0
   21.4667    6.9294   31.0009 N   0  0  0  0  0  0  0  0  0  0  0  0
   22.3146    7.0544   30.4686 H   0  0  0  0  0  0  0  0  0  0  0  0
   20.9136    5.6837   31.0802 C   0  0  0  0  0  0  0  0  0  0  0  0
   19.8557    5.5140   31.6593 O   0  0  0  0  0  0  0  0  0  0  0  0
   21.5874    4.5469   30.3258 C   0  0  0  0  0  0  0  0  0  0  0  0
   20.9548    3.6586   30.3836 H   0  0  0  0  0  0  0  0  0  0  0  0
   21.6768    4.8301   29.2738 H   0  0  0  0  0  0  0  0  0  0  0  0
   22.9650    4.2561   30.8791 C   0  0  0  0  0  0  0  0  0  0  0  0
   23.1601    3.1523   31.7254 C   0  0  0  0  0  0  0  0  0  0  0  0
   22.3268    2.5022   31.9738 H   0  0  0  0  0  0  0  0  0  0  0  0
   24.4284    2.8629   32.2642 C   0  0  0  0  0  0  0  0  0  0  0  0
   24.6626    1.7934   33.0998 O   0  0  0  0  0  0  0  0  0  0  0  0
   23.6732    0.7544   33.1225 C   0  0  0  0  0  0  0  0  0  0  0  0
   24.0366   -0.0833   33.7270 H   0  0  0  0  0  0  0  0  0  0  0  0
   23.4751    0.3869   32.1105 H   0  0  0  0  0  0  0  0  0  0  0  0
   22.7375    1.1163   33.5591 H   0  0  0  0  0  0  0  0  0  0  0  0
   25.5064    3.7047   31.9435 C   0  0  0  0  0  0  0  0  0  0  0  0
   27.2608    3.3617   32.6338 Br  0  0  0  0  0  0  0  0  0  0  0  0
   25.3143    4.8009   31.0968 C   0  0  0  0  0  0  0  0  0  0  0  0
   26.1590    5.4336   30.8449 H   0  0  0  0  0  0  0  0  0  0  0  0
   24.0516    5.0922   30.5573 C   0  0  0  0  0  0  0  0  0  0  0  0
   23.8367    6.1687   29.7251 O   0  0  0  0  0  0  0  0  0  0  0  0
   24.9342    7.0772   29.5691 C   0  0  0  0  0  0  0  0  0  0  0  0
   25.2880    7.4045   30.5504 H   0  0  0  0  0  0  0  0  0  0  0  0
   24.6145    7.9527   28.9964 H   0  0  0  0  0  0  0  0  0  0  0  0
   25.7647    6.6006   29.0398 H   0  0  0  0  0  0  0  0  0  0  0  0
   19.8859    8.1425   32.3902 C   0  0  0  0  0  0  0  0  0  0  0  0
   19.3321    7.2732   32.6847 H   0  0  0  0  0  0  0  0  0  0  0  0
   19.5614    9.3768   32.8719 C   0  0  0  0  0  0  0  0  0  0  0  0
   18.5348    9.4711   33.7515 N   0  0  0  0  0  0  0  0  0  0  0  0
   18.1418   10.3943   33.9174 H   0  0  0  0  0  0  0  0  0  0  0  0
   17.9463    8.6499   33.8586 H   0  0  0  0  0  0  0  0  0  0  0  0
   20.2643   10.4897   32.4792 C   0  0  0  0  0  0  0  0  0  0  0  0
   19.9232   11.7979   32.9351 C   0  0  0  0  0  0  0  0  0  0  0  0
   19.6646   12.8823   33.2619 N   0  0  0  0  0  0  0  0  0  0  0  0
   24.1926   10.1425   31.5820 C   0  0  0  0  0  0  0  0  0  0  0  0
   23.7954    9.9441   32.5691 H   0  0  0  0  0  0  0  0  0  0  0  0
  1  2  1  0
  2  3  2  0
  3  4  1  0
  4  5  1  0
  4  6  2  0
  6  7  1  0
  6  8  1  0
  8  9  1  0
  9 10  1  0
  9 11  1  0
  9 12  1  0
 12 13  2  0
 13 14  1  0
 14 15  1  0
 15 16  1  0
 15 17  1  0
 17 18  2  0
 17 19  1  0
 19 20  1  0
 19 21  1  0
 19 22  1  0
 22 23  2  0
 23 24  1  0
 23 25  1  0
 25 26  1  0
 26 27  1  0
 27 28  1  0
 27 29  1  0
 27 30  1  0
 25 31  2  0
 31 32  1  0
 31 33  1  0
 33 34  1  0
 33 35  2  0
 35 36  1  0
 36 37  1  0
 37 38  1  0
 37 39  1  0
 37 40  1  0
 14 41  2  0
 41 42  1  0
 41 43  1  0
 43 44  1  0
 44 45  1  0
 44 46  1  0
 43 47  2  0
 47 48  1  0
 48 49  3  0
  8 50  2  0
 50 51  1  0
 50  2  1  0
 47 12  1  0
 35 22  1  0
M  END
>  <score>  (311) 
7.66836

$$$$

     RDKit          3D

 51 53  0  0  0  0  0  0  0  0999 V2000
   24.0157   14.0306   31.6024 H   0  0  0  0  0  0  0  0  0  0  0  0
   23.6182   13.2020   31.0282 C   0  0  0  0  0  0  0  0  0  0  0  0
   22.6834   12.4348   31.6135 N   0  0  0  0  0  0  0  0  0  0  0  0
   22.2210   11.3326   30.9643 C   0  0  0  0  0  0  0  0  0  0  0  0
   21.3600   10.2758   31.6193 C   0  0  0  0  0  0  0  0  0  0  0  0
   21.6456    9.0191   31.2340 N   0  0  0  0  0  0  0  0  0  0  0  0
   20.9300    8.0037   31.6478 C   0  0  0  0  0  0  0  0  0  0  0  0
   21.4356    6.8772   31.1172 N   0  0  0  0  0  0  0  0  0  0  0  0
   22.2597    7.0115   30.5503 H   0  0  0  0  0  0  0  0  0  0  0  0
   20.8665    5.6415   31.1609 C   0  0  0  0  0  0  0  0  0  0  0  0
   19.7988    5.4778   31.7247 O   0  0  0  0  0  0  0  0  0  0  0  0
   21.5326    4.5189   30.3748 C   0  0  0  0  0  0  0  0  0  0  0  0
   21.5746    4.8091   29.3209 H   0  0  0  0  0  0  0  0  0  0  0  0
   20.9291    3.6091   30.4568 H   0  0  0  0  0  0  0  0  0  0  0  0
   22.9330    4.2611   30.8868 C   0  0  0  0  0  0  0  0  0  0  0  0
   23.1500    3.1539   31.7175 C   0  0  0  0  0  0  0  0  0  0  0  0
   22.3218    2.4959   31.9603 H   0  0  0  0  0  0  0  0  0  0  0  0
   24.4199    2.8729   32.2500 C   0  0  0  0  0  0  0  0  0  0  0  0
   24.6537    1.7927   33.0687 O   0  0  0  0  0  0  0  0  0  0  0  0
   23.6361    0.7824   33.0927 C   0  0  0  0  0  0  0  0  0  0  0  0
   23.9711   -0.0624   33.7019 H   0  0  0  0  0  0  0  0  0  0  0  0
   22.7098    1.1768   33.5220 H   0  0  0  0  0  0  0  0  0  0  0  0
   23.4309    0.4194   32.0801 H   0  0  0  0  0  0  0  0  0  0  0  0
   25.4856    3.7327   31.9428 C   0  0  0  0  0  0  0  0  0  0  0  0
   27.2394    3.4346   32.6538 Br  0  0  0  0  0  0  0  0  0  0  0  0
   25.2753    4.8344   31.1102 C   0  0  0  0  0  0  0  0  0  0  0  0
   26.1088    5.4873   30.8739 H   0  0  0  0  0  0  0  0  0  0  0  0
   24.0080    5.1218   30.5774 C   0  0  0  0  0  0  0  0  0  0  0  0
   23.7922    6.2272   29.7826 O   0  0  0  0  0  0  0  0  0  0  0  0
   24.9207    7.0981   29.6061 C   0  0  0  0  0  0  0  0  0  0  0  0
   24.6409    7.9603   28.9941 H   0  0  0  0  0  0  0  0  0  0  0  0
   25.7388    6.5671   29.1080 H   0  0  0  0  0  0  0  0  0  0  0  0
   25.2774    7.4606   30.5761 H   0  0  0  0  0  0  0  0  0  0  0  0
   19.8519    8.1272   32.4711 C   0  0  0  0  0  0  0  0  0  0  0  0
   19.2446    7.2793   32.7561 H   0  0  0  0  0  0  0  0  0  0  0  0
   19.5852    9.3795   32.9387 C   0  0  0  0  0  0  0  0  0  0  0  0
   18.5433    9.4570   33.7956 N   0  0  0  0  0  0  0  0  0  0  0  0
   18.1102   10.3665   33.9205 H   0  0  0  0  0  0  0  0  0  0  0  0
   17.9498    8.6322   33.8333 H   0  0  0  0  0  0  0  0  0  0  0  0
   20.3173   10.4885   32.5370 C   0  0  0  0  0  0  0  0  0  0  0  0
   19.9635   11.7848   33.0144 C   0  0  0  0  0  0  0  0  0  0  0  0
   19.6481   12.8286   33.4273 N   0  0  0  0  0  0  0  0  0  0  0  0
   22.6709   11.0553   29.6547 C   0  0  0  0  0  0  0  0  0  0  0  0
   22.3167   10.1775   29.1137 H   0  0  0  0  0  0  0  0  0  0  0  0
   23.6315   11.8378   29.0475 C   0  0  0  0  0  0  0  0  0  0  0  0
   23.9950   11.5451   28.0608 H   0  0  0  0  0  0  0  0  0  0  0  0
   24.1447   12.9187   29.7662 C   0  0  0  0  0  0  0  0  0  0  0  0
   25.3000   13.7144   29.2480 C   0  0  0  0  0  0  0  0  0  0  0  0
   25.8074   13.1534   28.1148 F   0  0  0  0  0  0  0  0  0  0  0  0
   24.9043   14.9850   28.9928 F   0  0  0  0  0  0  0  0  0  0  0  0
   26.2851   13.7198   30.1770 F   0  0  0  0  0  0  0  0  0  0  0  0
  1  2  1  0
  2  3  2  0
  3  4  1  0
  4  5  1  0
  5  6  2  0
  6  7  1  0
  7  8  1  0
  8  9  1  0
  8 10  1  0
 10 11  2  0
 10 12  1  0
 12 13  1  0
 12 14  1  0
 12 15  1  0
 15 16  2  0
 16 17  1  0
 16 18  1  0
 18 19  1  0
 19 20  1  0
 20 21  1  0
 20 22  1  0
 20 23  1  0
 18 24  2  0
 24 25  1  0
 24 26  1  0
 26 27  1  0
 26 28  2  0
 28 29  1  0
 29 30  1  0
 30 31  1  0
 30 32  1  0
 30 33  1  0
  7 34  2  0
 34 35  1  0
 34 36  1  0
 36 37  1  0
 37 38  1  0
 37 39  1  0
 36 40  2  0
 40 41  1  0
 41 42  3  0
  4 43  2  0
 43 44  1  0
 43 45  1  0
 45 46  1  0
 45 47  2  0
 47 48  1  0
 48 49  1  0
 48 50  1  0
 48 51  1  0
 47  2  1  0
 40  5  1  0
 28 15  1  0
M  END
>  <score>  (312) 
7.66897

$$$$

     RDKit          3D

 52 54  0  0  0  0  0  0  0  0999 V2000
   20.6975   12.5082   30.4621 H   0  0  0  0  0  0  0  0  0  0  0  0
   21.7700   12.4106   30.5970 C   0  0  0  0  0  0  0  0  0  0  0  0
   22.2901   11.2662   31.2001 C   0  0  0  0  0  0  0  0  0  0  0  0
   21.4233   10.1618   31.6907 C   0  0  0  0  0  0  0  0  0  0  0  0
   21.8161    8.9180   31.4152 N   0  0  0  0  0  0  0  0  0  0  0  0
   21.0522    7.9162   31.7808 C   0  0  0  0  0  0  0  0  0  0  0  0
   21.6139    6.7671   31.3887 N   0  0  0  0  0  0  0  0  0  0  0  0
   22.4590    6.9088   30.8560 H   0  0  0  0  0  0  0  0  0  0  0  0
   20.9134    5.6263   31.1325 C   0  0  0  0  0  0  0  0  0  0  0  0
   19.7210    5.5655   31.3835 O   0  0  0  0  0  0  0  0  0  0  0  0
   21.6043    4.5310   30.3393 C   0  0  0  0  0  0  0  0  0  0  0  0
   20.9878    3.6310   30.3559 H   0  0  0  0  0  0  0  0  0  0  0  0
   21.6834    4.8751   29.3057 H   0  0  0  0  0  0  0  0  0  0  0  0
   22.9885    4.2353   30.8811 C   0  0  0  0  0  0  0  0  0  0  0  0
   23.1838    3.1325   31.7285 C   0  0  0  0  0  0  0  0  0  0  0  0
   22.3498    2.4836   31.9830 H   0  0  0  0  0  0  0  0  0  0  0  0
   24.4494    2.8478   32.2710 C   0  0  0  0  0  0  0  0  0  0  0  0
   24.6745    1.7845   33.1166 O   0  0  0  0  0  0  0  0  0  0  0  0
   23.6839    0.7447   33.1337 C   0  0  0  0  0  0  0  0  0  0  0  0
   23.4857    0.3806   32.1210 H   0  0  0  0  0  0  0  0  0  0  0  0
   24.0444   -0.0963   33.7348 H   0  0  0  0  0  0  0  0  0  0  0  0
   22.7451    1.1020   33.5674 H   0  0  0  0  0  0  0  0  0  0  0  0
   25.5282    3.6885   31.9458 C   0  0  0  0  0  0  0  0  0  0  0  0
   27.2801    3.3396   32.6413 Br  0  0  0  0  0  0  0  0  0  0  0  0
   25.3349    4.7884   31.1011 C   0  0  0  0  0  0  0  0  0  0  0  0
   26.1764    5.4254   30.8501 H   0  0  0  0  0  0  0  0  0  0  0  0
   24.0716    5.0828   30.5670 C   0  0  0  0  0  0  0  0  0  0  0  0
   23.8464    6.1752   29.7564 O   0  0  0  0  0  0  0  0  0  0  0  0
   24.9307    7.1051   29.5953 C   0  0  0  0  0  0  0  0  0  0  0  0
   25.2691    7.4828   30.5653 H   0  0  0  0  0  0  0  0  0  0  0  0
   24.5992    7.9564   28.9932 H   0  0  0  0  0  0  0  0  0  0  0  0
   25.7803    6.6369   29.0883 H   0  0  0  0  0  0  0  0  0  0  0  0
   19.8708    8.0601   32.4506 C   0  0  0  0  0  0  0  0  0  0  0  0
   19.2703    7.2144   32.7322 H   0  0  0  0  0  0  0  0  0  0  0  0
   19.5095    9.3162   32.8041 C   0  0  0  0  0  0  0  0  0  0  0  0
   18.4214    9.4149   33.5958 N   0  0  0  0  0  0  0  0  0  0  0  0
   18.5822    8.9525   34.4860 H   0  0  0  0  0  0  0  0  0  0  0  0
   17.5801    9.0817   33.1345 H   0  0  0  0  0  0  0  0  0  0  0  0
   20.2700   10.3932   32.4285 C   0  0  0  0  0  0  0  0  0  0  0  0
   19.9187   11.7072   32.8470 C   0  0  0  0  0  0  0  0  0  0  0  0
   19.6566   12.7783   33.2062 N   0  0  0  0  0  0  0  0  0  0  0  0
   23.8030   11.1327   31.2719 C   0  0  0  0  0  0  0  0  0  0  0  0
   24.1011   10.5990   32.1738 H   0  0  0  0  0  0  0  0  0  0  0  0
   24.1420   10.5389   30.4194 H   0  0  0  0  0  0  0  0  0  0  0  0
   24.5175   12.4908   31.2402 C   0  0  0  0  0  0  0  0  0  0  0  0
   25.6002   12.3468   31.2019 H   0  0  0  0  0  0  0  0  0  0  0  0
   24.2808   13.0771   32.1376 H   0  0  0  0  0  0  0  0  0  0  0  0
   24.0607   13.1892   30.0347 N   0  0  0  0  0  0  0  0  0  0  0  0
   24.6523   13.9875   29.8011 H   0  0  0  0  0  0  0  0  0  0  0  0
   22.6303   13.5380   30.0418 C   0  0  0  0  0  0  0  0  0  0  0  0
   22.4808   14.4351   30.6548 H   0  0  0  0  0  0  0  0  0  0  0  0
   22.3134   13.7674   29.0170 H   0  0  0  0  0  0  0  0  0  0  0  0
  1  2  1  0
  2  3  2  0
  3  4  1  0
  4  5  2  0
  5  6  1  0
  6  7  1  0
  7  8  1  0
  7  9  1  0
  9 10  2  0
  9 11  1  0
 11 12  1  0
 11 13  1  0
 11 14  1  0
 14 15  2  0
 15 16  1  0
 15 17  1  0
 17 18  1  0
 18 19  1  0
 19 20  1  0
 19 21  1  0
 19 22  1  0
 17 23  2  0
 23 24  1  0
 23 25  1  0
 25 26  1  0
 25 27  2  0
 27 28  1  0
 28 29  1  0
 29 30  1  0
 29 31  1  0
 29 32  1  0
  6 33  2  0
 33 34  1  0
 33 35  1  0
 35 36  1  0
 36 37  1  0
 36 38  1  0
 35 39  2  0
 39 40  1  0
 40 41  3  0
  3 42  1  0
 42 43  1  0
 42 44  1  0
 42 45  1  0
 45 46  1  0
 45 47  1  0
 45 48  1  0
 48 49  1  0
 48 50  1  0
 50 51  1  0
 50 52  1  0
 50  2  1  0
 39  4  1  0
 27 14  1  0
M  END
>  <score>  (313) 
7.66923

$$$$

     RDKit          3D

 51 53  0  0  0  0  0  0  0  0999 V2000
   27.4251   11.8865   28.9247 H   0  0  0  0  0  0  0  0  0  0  0  0
   27.1898   11.0146   29.2742 O   0  0  0  0  0  0  0  0  0  0  0  0
   25.9109   11.0543   29.7338 C   0  0  0  0  0  0  0  0  0  0  0  0
   25.1050   12.1283   29.3717 C   0  0  0  0  0  0  0  0  0  0  0  0
   25.4913   12.8755   28.6870 H   0  0  0  0  0  0  0  0  0  0  0  0
   23.8012   12.2209   29.8734 C   0  0  0  0  0  0  0  0  0  0  0  0
   23.1411   13.0170   29.5492 H   0  0  0  0  0  0  0  0  0  0  0  0
   23.3163   11.2611   30.7693 C   0  0  0  0  0  0  0  0  0  0  0  0
   22.0308   11.3784   31.2238 O   0  0  0  0  0  0  0  0  0  0  0  0
   21.3940   10.2598   31.6997 C   0  0  0  0  0  0  0  0  0  0  0  0
   21.8158    9.0353   31.3723 N   0  0  0  0  0  0  0  0  0  0  0  0
   21.0928    8.0131   31.7496 C   0  0  0  0  0  0  0  0  0  0  0  0
   21.6489    6.8645   31.3318 N   0  0  0  0  0  0  0  0  0  0  0  0
   22.5080    6.9836   30.8175 H   0  0  0  0  0  0  0  0  0  0  0  0
   20.9443    5.7138   31.1385 C   0  0  0  0  0  0  0  0  0  0  0  0
   19.7554    5.6675   31.4151 O   0  0  0  0  0  0  0  0  0  0  0  0
   21.5967    4.5775   30.3641 C   0  0  0  0  0  0  0  0  0  0  0  0
   21.6740    4.8910   29.3191 H   0  0  0  0  0  0  0  0  0  0  0  0
   20.9569    3.6949   30.4143 H   0  0  0  0  0  0  0  0  0  0  0  0
   22.9789    4.2577   30.8952 C   0  0  0  0  0  0  0  0  0  0  0  0
   23.1762    3.1456   31.7320 C   0  0  0  0  0  0  0  0  0  0  0  0
   22.3422    2.4964   31.9823 H   0  0  0  0  0  0  0  0  0  0  0  0
   24.4447    2.8544   32.2666 C   0  0  0  0  0  0  0  0  0  0  0  0
   24.6709    1.7851   33.1046 O   0  0  0  0  0  0  0  0  0  0  0  0
   23.6767    0.7501   33.1256 C   0  0  0  0  0  0  0  0  0  0  0  0
   23.4788    0.3863   32.1123 H   0  0  0  0  0  0  0  0  0  0  0  0
   22.7413    1.1156   33.5607 H   0  0  0  0  0  0  0  0  0  0  0  0
   24.0345   -0.0911   33.7292 H   0  0  0  0  0  0  0  0  0  0  0  0
   25.5225    3.6964   31.9441 C   0  0  0  0  0  0  0  0  0  0  0  0
   27.2750    3.3534   32.6380 Br  0  0  0  0  0  0  0  0  0  0  0  0
   25.3287    4.7965   31.1018 C   0  0  0  0  0  0  0  0  0  0  0  0
   26.1709    5.4310   30.8499 H   0  0  0  0  0  0  0  0  0  0  0  0
   24.0642    5.0977   30.5767 C   0  0  0  0  0  0  0  0  0  0  0  0
   23.8428    6.1930   29.7694 O   0  0  0  0  0  0  0  0  0  0  0  0
   24.9340    7.1098   29.6019 C   0  0  0  0  0  0  0  0  0  0  0  0
   24.6035    7.9752   29.0189 H   0  0  0  0  0  0  0  0  0  0  0  0
   25.2893    7.4621   30.5750 H   0  0  0  0  0  0  0  0  0  0  0  0
   25.7660    6.6333   29.0734 H   0  0  0  0  0  0  0  0  0  0  0  0
   19.9286    8.1250   32.4553 C   0  0  0  0  0  0  0  0  0  0  0  0
   19.3334    7.2692   32.7150 H   0  0  0  0  0  0  0  0  0  0  0  0
   19.5593    9.3676   32.8469 C   0  0  0  0  0  0  0  0  0  0  0  0
   18.4624    9.4888   33.6144 N   0  0  0  0  0  0  0  0  0  0  0  0
   17.9454    8.6518   33.8698 H   0  0  0  0  0  0  0  0  0  0  0  0
   18.1635   10.4146   33.9098 H   0  0  0  0  0  0  0  0  0  0  0  0
   20.2786   10.4622   32.4775 C   0  0  0  0  0  0  0  0  0  0  0  0
   19.9175   11.7780   32.8805 C   0  0  0  0  0  0  0  0  0  0  0  0
   19.6713   12.8611   33.2250 N   0  0  0  0  0  0  0  0  0  0  0  0
   24.1449   10.1963   31.1521 C   0  0  0  0  0  0  0  0  0  0  0  0
   23.7756    9.4740   31.8753 H   0  0  0  0  0  0  0  0  0  0  0  0
   25.4307   10.0812   30.6117 C   0  0  0  0  0  0  0  0  0  0  0  0
   26.0792    9.2653   30.8952 H   0  0  0  0  0  0  0  0  0  0  0  0
  1  2  1  0
  2  3  1  0
  3  4  2  0
  4  5  1  0
  4  6  1  0
  6  7  1  0
  6  8  2  0
  8  9  1  0
  9 10  1  0
 10 11  2  0
 11 12  1  0
 12 13  1  0
 13 14  1  0
 13 15  1  0
 15 16  2  0
 15 17  1  0
 17 18  1  0
 17 19  1  0
 17 20  1  0
 20 21  2  0
 21 22  1  0
 21 23  1  0
 23 24  1  0
 24 25  1  0
 25 26  1  0
 25 27  1  0
 25 28  1  0
 23 29  2  0
 29 30  1  0
 29 31  1  0
 31 32  1  0
 31 33  2  0
 33 34  1  0
 34 35  1  0
 35 36  1  0
 35 37  1  0
 35 38  1  0
 12 39  2  0
 39 40  1  0
 39 41  1  0
 41 42  1  0
 42 43  1  0
 42 44  1  0
 41 45  2  0
 45 46  1  0
 46 47  3  0
  8 48  1  0
 48 49  1  0
 48 50  2  0
 50 51  1  0
 50  3  1  0
 45 10  1  0
 33 20  1  0
M  END
>  <score>  (314) 
7.6703

$$$$

     RDKit          3D

 51 53  0  0  0  0  0  0  0  0999 V2000
   20.9082   14.3750   29.1382 H   0  0  0  0  0  0  0  0  0  0  0  0
   21.8489   14.5417   29.2993 O   0  0  0  0  0  0  0  0  0  0  0  0
   22.3829   13.5066   30.0098 C   0  0  0  0  0  0  0  0  0  0  0  0
   23.7486   13.5044   30.2588 C   0  0  0  0  0  0  0  0  0  0  0  0
   24.3693   14.3342   29.9426 H   0  0  0  0  0  0  0  0  0  0  0  0
   24.3223   12.4404   30.9263 C   0  0  0  0  0  0  0  0  0  0  0  0
   25.6466   12.5054   31.1601 O   0  0  0  0  0  0  0  0  0  0  0  0
   25.9653   13.3373   30.7809 H   0  0  0  0  0  0  0  0  0  0  0  0
   23.5482   11.3708   31.3600 C   0  0  0  0  0  0  0  0  0  0  0  0
   24.0185   10.5648   31.9125 H   0  0  0  0  0  0  0  0  0  0  0  0
   22.1590   11.3516   31.1457 C   0  0  0  0  0  0  0  0  0  0  0  0
   21.3395   10.2143   31.6229 C   0  0  0  0  0  0  0  0  0  0  0  0
   21.7729    8.9851   31.3269 N   0  0  0  0  0  0  0  0  0  0  0  0
   21.0710    7.9521   31.7236 C   0  0  0  0  0  0  0  0  0  0  0  0
   21.6227    6.7991   31.3161 N   0  0  0  0  0  0  0  0  0  0  0  0
   22.4933    6.8952   30.8180 H   0  0  0  0  0  0  0  0  0  0  0  0
   20.9109    5.6517   31.1413 C   0  0  0  0  0  0  0  0  0  0  0  0
   19.7339    5.6020   31.4655 O   0  0  0  0  0  0  0  0  0  0  0  0
   21.5735    4.5237   30.3595 C   0  0  0  0  0  0  0  0  0  0  0  0
   21.6367    4.8179   29.3085 H   0  0  0  0  0  0  0  0  0  0  0  0
   20.9542    3.6265   30.4231 H   0  0  0  0  0  0  0  0  0  0  0  0
   22.9704    4.2384   30.8787 C   0  0  0  0  0  0  0  0  0  0  0  0
   23.1798    3.1359   31.7209 C   0  0  0  0  0  0  0  0  0  0  0  0
   22.3515    2.4825   31.9760 H   0  0  0  0  0  0  0  0  0  0  0  0
   24.4489    2.8534   32.2626 C   0  0  0  0  0  0  0  0  0  0  0  0
   24.6789    1.7782   33.0910 O   0  0  0  0  0  0  0  0  0  0  0  0
   23.6618    0.7677   33.1087 C   0  0  0  0  0  0  0  0  0  0  0  0
   23.4589    0.4107   32.0937 H   0  0  0  0  0  0  0  0  0  0  0  0
   23.9936   -0.0810   33.7138 H   0  0  0  0  0  0  0  0  0  0  0  0
   22.7351    1.1608   33.5380 H   0  0  0  0  0  0  0  0  0  0  0  0
   25.5201    3.7072   31.9497 C   0  0  0  0  0  0  0  0  0  0  0  0
   27.2776    3.4083   32.6519 Br  0  0  0  0  0  0  0  0  0  0  0  0
   25.3175    4.8051   31.1080 C   0  0  0  0  0  0  0  0  0  0  0  0
   26.1523    5.4559   30.8661 H   0  0  0  0  0  0  0  0  0  0  0  0
   24.0517    5.0895   30.5690 C   0  0  0  0  0  0  0  0  0  0  0  0
   23.8257    6.1916   29.7745 O   0  0  0  0  0  0  0  0  0  0  0  0
   24.9323    7.0887   29.6107 C   0  0  0  0  0  0  0  0  0  0  0  0
   24.6295    7.9471   29.0041 H   0  0  0  0  0  0  0  0  0  0  0  0
   25.2759    7.4532   30.5843 H   0  0  0  0  0  0  0  0  0  0  0  0
   25.7642    6.5818   29.1115 H   0  0  0  0  0  0  0  0  0  0  0  0
   19.9262    8.0513   32.4617 C   0  0  0  0  0  0  0  0  0  0  0  0
   19.3860    7.1876   32.8091 H   0  0  0  0  0  0  0  0  0  0  0  0
   19.4989    9.2976   32.7914 C   0  0  0  0  0  0  0  0  0  0  0  0
   18.4226    9.3936   33.6078 N   0  0  0  0  0  0  0  0  0  0  0  0
   18.5120    8.8371   34.4509 H   0  0  0  0  0  0  0  0  0  0  0  0
   17.5347    9.2704   33.1329 H   0  0  0  0  0  0  0  0  0  0  0  0
   20.1861   10.4068   32.3723 C   0  0  0  0  0  0  0  0  0  0  0  0
   19.8087   11.7082   32.8171 C   0  0  0  0  0  0  0  0  0  0  0  0
   19.5631   12.7726   33.2118 N   0  0  0  0  0  0  0  0  0  0  0  0
   21.5850   12.4433   30.4572 C   0  0  0  0  0  0  0  0  0  0  0  0
   20.5226   12.4529   30.2343 H   0  0  0  0  0  0  0  0  0  0  0  0
  1  2  1  0
  2  3  1  0
  3  4  2  0
  4  5  1  0
  4  6  1  0
  6  7  1  0
  7  8  1  0
  6  9  2  0
  9 10  1  0
  9 11  1  0
 11 12  1  0
 12 13  2  0
 13 14  1  0
 14 15  1  0
 15 16  1  0
 15 17  1  0
 17 18  2  0
 17 19  1  0
 19 20  1  0
 19 21  1  0
 19 22  1  0
 22 23  2  0
 23 24  1  0
 23 25  1  0
 25 26  1  0
 26 27  1  0
 27 28  1  0
 27 29  1  0
 27 30  1  0
 25 31  2  0
 31 32  1  0
 31 33  1  0
 33 34  1  0
 33 35  2  0
 35 36  1  0
 36 37  1  0
 37 38  1  0
 37 39  1  0
 37 40  1  0
 14 41  2  0
 41 42  1  0
 41 43  1  0
 43 44  1  0
 44 45  1  0
 44 46  1  0
 43 47  2  0
 47 48  1  0
 48 49  3  0
 11 50  2  0
 50 51  1  0
 50  3  1  0
 47 12  1  0
 35 22  1  0
M  END
>  <score>  (315) 
7.67125

$$$$

     RDKit          3D

 51 53  0  0  0  0  0  0  0  0999 V2000
   23.7577   14.1989   31.9440 H   0  0  0  0  0  0  0  0  0  0  0  0
   23.4560   13.3567   31.3344 C   0  0  0  0  0  0  0  0  0  0  0  0
   22.5359   12.5051   31.8351 N   0  0  0  0  0  0  0  0  0  0  0  0
   22.2275   11.3863   31.1284 C   0  0  0  0  0  0  0  0  0  0  0  0
   21.3353   10.2881   31.6530 C   0  0  0  0  0  0  0  0  0  0  0  0
   21.6214    9.0496   31.2085 N   0  0  0  0  0  0  0  0  0  0  0  0
   20.9071    8.0193   31.5839 C   0  0  0  0  0  0  0  0  0  0  0  0
   21.4282    6.8933   31.0466 N   0  0  0  0  0  0  0  0  0  0  0  0
   22.2811    7.0253   30.5190 H   0  0  0  0  0  0  0  0  0  0  0  0
   20.8825    5.6480   31.1093 C   0  0  0  0  0  0  0  0  0  0  0  0
   19.8252    5.4639   31.6889 O   0  0  0  0  0  0  0  0  0  0  0  0
   21.5637    4.5194   30.3405 C   0  0  0  0  0  0  0  0  0  0  0  0
   21.6363    4.8089   29.2897 H   0  0  0  0  0  0  0  0  0  0  0  0
   20.9518    3.6148   30.3956 H   0  0  0  0  0  0  0  0  0  0  0  0
   22.9517    4.2518   30.8789 C   0  0  0  0  0  0  0  0  0  0  0  0
   23.1576    3.1483   31.7196 C   0  0  0  0  0  0  0  0  0  0  0  0
   22.3261    2.4950   31.9656 H   0  0  0  0  0  0  0  0  0  0  0  0
   24.4250    2.8661   32.2595 C   0  0  0  0  0  0  0  0  0  0  0  0
   24.6598    1.7928   33.0873 O   0  0  0  0  0  0  0  0  0  0  0  0
   23.6580    0.7675   33.1087 C   0  0  0  0  0  0  0  0  0  0  0  0
   24.0085   -0.0729   33.7154 H   0  0  0  0  0  0  0  0  0  0  0  0
   22.7274    1.1456   33.5431 H   0  0  0  0  0  0  0  0  0  0  0  0
   23.4578    0.4025   32.0956 H   0  0  0  0  0  0  0  0  0  0  0  0
   25.4956    3.7182   31.9445 C   0  0  0  0  0  0  0  0  0  0  0  0
   27.2523    3.4021   32.6377 Br  0  0  0  0  0  0  0  0  0  0  0  0
   25.2951    4.8152   31.1028 C   0  0  0  0  0  0  0  0  0  0  0  0
   26.1326    5.4598   30.8567 H   0  0  0  0  0  0  0  0  0  0  0  0
   24.0312    5.1045   30.5660 C   0  0  0  0  0  0  0  0  0  0  0  0
   23.8142    6.2016   29.7610 O   0  0  0  0  0  0  0  0  0  0  0  0
   24.9248    7.0973   29.6018 C   0  0  0  0  0  0  0  0  0  0  0  0
   24.6268    7.9583   28.9969 H   0  0  0  0  0  0  0  0  0  0  0  0
   25.7576    6.5916   29.1020 H   0  0  0  0  0  0  0  0  0  0  0  0
   25.2657    7.4591   30.5777 H   0  0  0  0  0  0  0  0  0  0  0  0
   19.8297    8.1177   32.4227 C   0  0  0  0  0  0  0  0  0  0  0  0
   19.2623    7.2437   32.6996 H   0  0  0  0  0  0  0  0  0  0  0  0
   19.5312    9.3609   32.9184 C   0  0  0  0  0  0  0  0  0  0  0  0
   18.5034    9.4409   33.8036 N   0  0  0  0  0  0  0  0  0  0  0  0
   18.0831   10.3548   33.9521 H   0  0  0  0  0  0  0  0  0  0  0  0
   17.9065    8.6209   33.8678 H   0  0  0  0  0  0  0  0  0  0  0  0
   20.2590   10.4765   32.5355 C   0  0  0  0  0  0  0  0  0  0  0  0
   19.8945   11.7743   33.0083 C   0  0  0  0  0  0  0  0  0  0  0  0
   19.5942   12.8344   33.3829 N   0  0  0  0  0  0  0  0  0  0  0  0
   22.7955   11.1894   29.8487 C   0  0  0  0  0  0  0  0  0  0  0  0
   22.5169   10.3148   29.2673 H   0  0  0  0  0  0  0  0  0  0  0  0
   23.7383   12.0639   29.3310 C   0  0  0  0  0  0  0  0  0  0  0  0
   24.2228   11.8667   28.3759 H   0  0  0  0  0  0  0  0  0  0  0  0
   24.1085   13.1528   30.1062 C   0  0  0  0  0  0  0  0  0  0  0  0
   25.2798   13.9843   29.6666 C   0  0  0  0  0  0  0  0  0  0  0  0
   25.7502   13.5662   28.7697 H   0  0  0  0  0  0  0  0  0  0  0  0
   24.9780   15.0057   29.4481 H   0  0  0  0  0  0  0  0  0  0  0  0
   26.0245   13.9921   30.4633 H   0  0  0  0  0  0  0  0  0  0  0  0
  1  2  1  0
  2  3  2  0
  3  4  1  0
  4  5  1  0
  5  6  2  0
  6  7  1  0
  7  8  1  0
  8  9  1  0
  8 10  1  0
 10 11  2  0
 10 12  1  0
 12 13  1  0
 12 14  1  0
 12 15  1  0
 15 16  2  0
 16 17  1  0
 16 18  1  0
 18 19  1  0
 19 20  1  0
 20 21  1  0
 20 22  1  0
 20 23  1  0
 18 24  2  0
 24 25  1  0
 24 26  1  0
 26 27  1  0
 26 28  2  0
 28 29  1  0
 29 30  1  0
 30 31  1  0
 30 32  1  0
 30 33  1  0
  7 34  2  0
 34 35  1  0
 34 36  1  0
 36 37  1  0
 37 38  1  0
 37 39  1  0
 36 40  2  0
 40 41  1  0
 41 42  3  0
  4 43  2  0
 43 44  1  0
 43 45  1  0
 45 46  1  0
 45 47  2  0
 47 48  1  0
 48 49  1  0
 48 50  1  0
 48 51  1  0
 47  2  1  0
 40  5  1  0
 28 15  1  0
M  END
>  <score>  (316) 
7.67239

$$$$

     RDKit          3D

 55 57  0  0  0  0  0  0  0  0999 V2000
   26.1274    5.4736   30.8748 H   0  0  0  0  0  0  0  0  0  0  0  0
   25.2931    4.8237   31.1139 C   0  0  0  0  0  0  0  0  0  0  0  0
   25.5082    3.7264   31.9473 C   0  0  0  0  0  0  0  0  0  0  0  0
   27.2661    3.4412   32.6560 Br  0  0  0  0  0  0  0  0  0  0  0  0
   24.4432    2.8645   32.2539 C   0  0  0  0  0  0  0  0  0  0  0  0
   24.6767    1.7786   33.0647 O   0  0  0  0  0  0  0  0  0  0  0  0
   23.6462    0.7812   33.0918 C   0  0  0  0  0  0  0  0  0  0  0  0
   23.4367    0.4229   32.0781 H   0  0  0  0  0  0  0  0  0  0  0  0
   23.9649   -0.0698   33.7017 H   0  0  0  0  0  0  0  0  0  0  0  0
   22.7272    1.1932   33.5206 H   0  0  0  0  0  0  0  0  0  0  0  0
   23.1688    3.1471   31.7287 C   0  0  0  0  0  0  0  0  0  0  0  0
   22.3432    2.4866   31.9734 H   0  0  0  0  0  0  0  0  0  0  0  0
   22.9460    4.2572   30.9039 C   0  0  0  0  0  0  0  0  0  0  0  0
   21.5445    4.5372   30.3919 C   0  0  0  0  0  0  0  0  0  0  0  0
   21.5860    4.8066   29.3344 H   0  0  0  0  0  0  0  0  0  0  0  0
   20.9122    3.6505   30.4895 H   0  0  0  0  0  0  0  0  0  0  0  0
   20.9054    5.6931   31.1470 C   0  0  0  0  0  0  0  0  0  0  0  0
   19.7439    5.6382   31.5169 O   0  0  0  0  0  0  0  0  0  0  0  0
   21.6210    6.8383   31.3193 N   0  0  0  0  0  0  0  0  0  0  0  0
   22.4920    6.9356   30.8186 H   0  0  0  0  0  0  0  0  0  0  0  0
   21.0953    7.9902   31.7702 C   0  0  0  0  0  0  0  0  0  0  0  0
   21.8361    9.0035   31.4019 N   0  0  0  0  0  0  0  0  0  0  0  0
   21.4359   10.2397   31.7120 C   0  0  0  0  0  0  0  0  0  0  0  0
   22.2875   11.3281   31.1995 C   0  0  0  0  0  0  0  0  0  0  0  0
   23.6821   11.2362   31.3407 C   0  0  0  0  0  0  0  0  0  0  0  0
   24.1305   10.4206   31.9032 H   0  0  0  0  0  0  0  0  0  0  0  0
   24.5226   12.1807   30.7585 C   0  0  0  0  0  0  0  0  0  0  0  0
   25.5960   12.1003   30.8893 H   0  0  0  0  0  0  0  0  0  0  0  0
   24.0029   13.2281   29.9811 C   0  0  0  0  0  0  0  0  0  0  0  0
   24.9012   14.1929   29.3105 C   0  0  0  0  0  0  0  0  0  0  0  0
   26.1109   14.0581   29.4829 O   0  0  0  0  0  0  0  0  0  0  0  0
   24.3306   15.1588   28.5365 O   0  0  0  0  0  0  0  0  0  0  0  0
   25.1899   16.2676   28.2363 C   0  0  0  0  0  0  0  0  0  0  0  0
   25.4992   16.7555   29.1667 H   0  0  0  0  0  0  0  0  0  0  0  0
   26.0851   15.9329   27.6998 H   0  0  0  0  0  0  0  0  0  0  0  0
   24.6570   17.0019   27.6181 H   0  0  0  0  0  0  0  0  0  0  0  0
   22.6076   13.3476   29.8743 C   0  0  0  0  0  0  0  0  0  0  0  0
   22.1849   14.1589   29.2863 H   0  0  0  0  0  0  0  0  0  0  0  0
   21.7561   12.4299   30.4997 C   0  0  0  0  0  0  0  0  0  0  0  0
   20.6848   12.5624   30.3800 H   0  0  0  0  0  0  0  0  0  0  0  0
   20.2654   10.4602   32.4344 C   0  0  0  0  0  0  0  0  0  0  0  0
   19.8708   11.7756   32.8227 C   0  0  0  0  0  0  0  0  0  0  0  0
   19.5970   12.8529   33.1594 N   0  0  0  0  0  0  0  0  0  0  0  0
   19.5178    9.3628   32.7957 C   0  0  0  0  0  0  0  0  0  0  0  0
   18.3450    9.4815   33.4653 N   0  0  0  0  0  0  0  0  0  0  0  0
   17.9691    8.6419   33.8978 H   0  0  0  0  0  0  0  0  0  0  0  0
   18.1394   10.3863   33.8807 H   0  0  0  0  0  0  0  0  0  0  0  0
   19.9352    8.1053   32.4835 C   0  0  0  0  0  0  0  0  0  0  0  0
   19.3811    7.2294   32.7756 H   0  0  0  0  0  0  0  0  0  0  0  0
   24.0227    5.1122   30.5906 C   0  0  0  0  0  0  0  0  0  0  0  0
   23.8033    6.2172   29.7993 O   0  0  0  0  0  0  0  0  0  0  0  0
   24.9324    7.0844   29.6198 C   0  0  0  0  0  0  0  0  0  0  0  0
   25.2905    7.4464   30.5897 H   0  0  0  0  0  0  0  0  0  0  0  0
   25.7482    6.5496   29.1216 H   0  0  0  0  0  0  0  0  0  0  0  0
   24.6519    7.9452   29.0071 H   0  0  0  0  0  0  0  0  0  0  0  0
  1  2  1  0
  2  3  2  0
  3  4  1  0
  3  5  1  0
  5  6  1  0
  6  7  1  0
  7  8  1  0
  7  9  1  0
  7 10  1  0
  5 11  2  0
 11 12  1  0
 11 13  1  0
 13 14  1  0
 14 15  1  0
 14 16  1  0
 14 17  1  0
 17 18  2  0
 17 19  1  0
 19 20  1  0
 19 21  1  0
 21 22  2  0
 22 23  1  0
 23 24  1  0
 24 25  2  0
 25 26  1  0
 25 27  1  0
 27 28  1  0
 27 29  2  0
 29 30  1  0
 30 31  2  0
 30 32  1  0
 32 33  1  0
 33 34  1  0
 33 35  1  0
 33 36  1  0
 29 37  1  0
 37 38  1  0
 37 39  2  0
 39 40  1  0
 23 41  2  0
 41 42  1  0
 42 43  3  0
 41 44  1  0
 44 45  1  0
 45 46  1  0
 45 47  1  0
 44 48  2  0
 48 49  1  0
 13 50  2  0
 50 51  1  0
 51 52  1  0
 52 53  1  0
 52 54  1  0
 52 55  1  0
 50  2  1  0
 48 21  1  0
 39 24  1  0
M  END
>  <score>  (317) 
7.67351

$$$$

     RDKit          3D

 46 48  0  0  0  0  0  0  0  0999 V2000
   22.8309   14.3138   30.3562 H   0  0  0  0  0  0  0  0  0  0  0  0
   22.8103   13.2648   30.6303 C   0  0  0  0  0  0  0  0  0  0  0  0
   21.7728   12.6062   31.0962 N   0  0  0  0  0  0  0  0  0  0  0  0
   22.1847   11.2961   31.2747 N   0  0  0  0  0  0  0  0  0  0  0  0
   21.3931   10.1978   31.7171 C   0  0  0  0  0  0  0  0  0  0  0  0
   21.7828    8.9622   31.3503 N   0  0  0  0  0  0  0  0  0  0  0  0
   21.0873    7.9198   31.7372 C   0  0  0  0  0  0  0  0  0  0  0  0
   21.6413    6.7861   31.2776 N   0  0  0  0  0  0  0  0  0  0  0  0
   22.4809    6.9261   30.7353 H   0  0  0  0  0  0  0  0  0  0  0  0
   20.9395    5.6270   31.1046 C   0  0  0  0  0  0  0  0  0  0  0  0
   19.7784    5.5493   31.4717 O   0  0  0  0  0  0  0  0  0  0  0  0
   21.5836    4.4831   30.3348 C   0  0  0  0  0  0  0  0  0  0  0  0
   20.9590    3.5897   30.4231 H   0  0  0  0  0  0  0  0  0  0  0  0
   21.6439    4.7419   29.2744 H   0  0  0  0  0  0  0  0  0  0  0  0
   22.9702    4.2285   30.8761 C   0  0  0  0  0  0  0  0  0  0  0  0
   23.1745    3.1315   31.7217 C   0  0  0  0  0  0  0  0  0  0  0  0
   22.3460    2.4781   31.9792 H   0  0  0  0  0  0  0  0  0  0  0  0
   24.4407    2.8583   32.2637 C   0  0  0  0  0  0  0  0  0  0  0  0
   24.6765    1.7773   33.0797 O   0  0  0  0  0  0  0  0  0  0  0  0
   23.6539    0.7692   33.1036 C   0  0  0  0  0  0  0  0  0  0  0  0
   23.4428    0.4048   32.0909 H   0  0  0  0  0  0  0  0  0  0  0  0
   23.9858   -0.0779   33.7130 H   0  0  0  0  0  0  0  0  0  0  0  0
   22.7274    1.1666   33.5337 H   0  0  0  0  0  0  0  0  0  0  0  0
   25.5084    3.7155   31.9563 C   0  0  0  0  0  0  0  0  0  0  0  0
   27.2633    3.3966   32.6538 Br  0  0  0  0  0  0  0  0  0  0  0  0
   25.3033    4.8183   31.1206 C   0  0  0  0  0  0  0  0  0  0  0  0
   26.1325    5.4727   30.8731 H   0  0  0  0  0  0  0  0  0  0  0  0
   24.0393    5.1001   30.5800 C   0  0  0  0  0  0  0  0  0  0  0  0
   23.8096    6.2137   29.7980 O   0  0  0  0  0  0  0  0  0  0  0  0
   24.9311    7.0971   29.6107 C   0  0  0  0  0  0  0  0  0  0  0  0
   25.7552    6.5777   29.1051 H   0  0  0  0  0  0  0  0  0  0  0  0
   24.6355    7.9549   28.9966 H   0  0  0  0  0  0  0  0  0  0  0  0
   25.2952    7.4722   30.5760 H   0  0  0  0  0  0  0  0  0  0  0  0
   19.9781    7.9978   32.5262 C   0  0  0  0  0  0  0  0  0  0  0  0
   19.4615    7.1099   32.8533 H   0  0  0  0  0  0  0  0  0  0  0  0
   19.5808    9.2404   32.9077 C   0  0  0  0  0  0  0  0  0  0  0  0
   18.4993    9.3271   33.7039 N   0  0  0  0  0  0  0  0  0  0  0  0
   17.8270   10.0522   33.4643 H   0  0  0  0  0  0  0  0  0  0  0  0
   18.1527    8.4402   34.0550 H   0  0  0  0  0  0  0  0  0  0  0  0
   20.2595   10.3646   32.5093 C   0  0  0  0  0  0  0  0  0  0  0  0
   19.8429   11.6561   32.9421 C   0  0  0  0  0  0  0  0  0  0  0  0
   19.4950   12.7129   33.2834 N   0  0  0  0  0  0  0  0  0  0  0  0
   23.5303   11.1674   30.9324 C   0  0  0  0  0  0  0  0  0  0  0  0
   24.1333   10.2636   30.9950 H   0  0  0  0  0  0  0  0  0  0  0  0
   23.9472   12.3888   30.5281 C   0  0  0  0  0  0  0  0  0  0  0  0
   24.9440   12.6513   30.2049 H   0  0  0  0  0  0  0  0  0  0  0  0
  1  2  1  0
  2  3  2  0
  3  4  1  0
  4  5  1  0
  5  6  2  0
  6  7  1  0
  7  8  1  0
  8  9  1  0
  8 10  1  0
 10 11  2  0
 10 12  1  0
 12 13  1  0
 12 14  1  0
 12 15  1  0
 15 16  2  0
 16 17  1  0
 16 18  1  0
 18 19  1  0
 19 20  1  0
 20 21  1  0
 20 22  1  0
 20 23  1  0
 18 24  2  0
 24 25  1  0
 24 26  1  0
 26 27  1  0
 26 28  2  0
 28 29  1  0
 29 30  1  0
 30 31  1  0
 30 32  1  0
 30 33  1  0
  7 34  2  0
 34 35  1  0
 34 36  1  0
 36 37  1  0
 37 38  1  0
 37 39  1  0
 36 40  2  0
 40 41  1  0
 41 42  3  0
  4 43  1  0
 43 44  1  0
 43 45  2  0
 45 46  1  0
 45  2  1  0
 40  5  1  0
 28 15  1  0
M  END
>  <score>  (318) 
7.67355

$$$$

     RDKit          3D

 52 54  0  0  0  0  0  0  0  0999 V2000
   21.4311   14.6045   29.4409 H   0  0  0  0  0  0  0  0  0  0  0  0
   21.9548   13.7218   29.8010 C   0  0  0  0  0  0  0  0  0  0  0  0
   23.3457   13.6505   29.7301 C   0  0  0  0  0  0  0  0  0  0  0  0
   23.8998   14.4861   29.3181 H   0  0  0  0  0  0  0  0  0  0  0  0
   24.0189   12.5132   30.1733 C   0  0  0  0  0  0  0  0  0  0  0  0
   25.1064   12.5020   30.1150 H   0  0  0  0  0  0  0  0  0  0  0  0
   23.3051   11.4210   30.7000 C   0  0  0  0  0  0  0  0  0  0  0  0
   24.0717   10.2538   31.2887 C   0  0  0  0  0  0  0  0  0  0  0  0
   25.1902   10.7160   31.8907 F   0  0  0  0  0  0  0  0  0  0  0  0
   24.3888    9.3654   30.3120 F   0  0  0  0  0  0  0  0  0  0  0  0
   23.3423    9.6440   32.2579 F   0  0  0  0  0  0  0  0  0  0  0  0
   21.8847   11.4582   30.7244 C   0  0  0  0  0  0  0  0  0  0  0  0
   21.1109   10.2879   31.2333 C   0  0  0  0  0  0  0  0  0  0  0  0
   21.5628    9.0682   30.9080 N   0  0  0  0  0  0  0  0  0  0  0  0
   20.9881    8.0118   31.4376 C   0  0  0  0  0  0  0  0  0  0  0  0
   21.5408    6.8594   31.0109 N   0  0  0  0  0  0  0  0  0  0  0  0
   22.3146    6.9673   30.3664 H   0  0  0  0  0  0  0  0  0  0  0  0
   20.9001    5.6577   31.0713 C   0  0  0  0  0  0  0  0  0  0  0  0
   19.7953    5.5612   31.5895 O   0  0  0  0  0  0  0  0  0  0  0  0
   21.5309    4.4589   30.3909 C   0  0  0  0  0  0  0  0  0  0  0  0
   20.8935    3.5896   30.5707 H   0  0  0  0  0  0  0  0  0  0  0  0
   21.5522    4.6449   29.3160 H   0  0  0  0  0  0  0  0  0  0  0  0
   22.9359    4.2127   30.9108 C   0  0  0  0  0  0  0  0  0  0  0  0
   23.1541    3.0851   31.7097 C   0  0  0  0  0  0  0  0  0  0  0  0
   22.3360    2.4003   31.9091 H   0  0  0  0  0  0  0  0  0  0  0  0
   24.4120    2.8094   32.2679 C   0  0  0  0  0  0  0  0  0  0  0  0
   24.6293    1.7029   33.0567 O   0  0  0  0  0  0  0  0  0  0  0  0
   23.5676    0.7365   33.1042 C   0  0  0  0  0  0  0  0  0  0  0  0
   22.6608    1.1744   33.5337 H   0  0  0  0  0  0  0  0  0  0  0  0
   23.3380    0.3681   32.0989 H   0  0  0  0  0  0  0  0  0  0  0  0
   23.8675   -0.1126   33.7245 H   0  0  0  0  0  0  0  0  0  0  0  0
   25.4693    3.7017   32.0202 C   0  0  0  0  0  0  0  0  0  0  0  0
   27.2085    3.4200   32.7742 Br  0  0  0  0  0  0  0  0  0  0  0  0
   25.2642    4.8206   31.2049 C   0  0  0  0  0  0  0  0  0  0  0  0
   26.0941    5.4901   31.0062 H   0  0  0  0  0  0  0  0  0  0  0  0
   24.0073    5.0917   30.6361 C   0  0  0  0  0  0  0  0  0  0  0  0
   23.7856    6.1874   29.8302 O   0  0  0  0  0  0  0  0  0  0  0  0
   24.9389    6.9615   29.4685 C   0  0  0  0  0  0  0  0  0  0  0  0
   24.6351    7.7975   28.8327 H   0  0  0  0  0  0  0  0  0  0  0  0
   25.4291    7.3596   30.3625 H   0  0  0  0  0  0  0  0  0  0  0  0
   25.6605    6.3550   28.9120 H   0  0  0  0  0  0  0  0  0  0  0  0
   19.9627    8.0822   32.3350 C   0  0  0  0  0  0  0  0  0  0  0  0
   19.5596    7.1875   32.7780 H   0  0  0  0  0  0  0  0  0  0  0  0
   19.4905    9.3136   32.6638 C   0  0  0  0  0  0  0  0  0  0  0  0
   18.5004    9.3462   33.5793 N   0  0  0  0  0  0  0  0  0  0  0  0
   17.8703   10.1479   33.5579 H   0  0  0  0  0  0  0  0  0  0  0  0
   18.1299    8.4373   33.8546 H   0  0  0  0  0  0  0  0  0  0  0  0
   20.0257   10.4459   32.0905 C   0  0  0  0  0  0  0  0  0  0  0  0
   19.5464   11.7493   32.4004 C   0  0  0  0  0  0  0  0  0  0  0  0
   19.2157   12.8472   32.5921 N   0  0  0  0  0  0  0  0  0  0  0  0
   21.2324   12.6303   30.2935 C   0  0  0  0  0  0  0  0  0  0  0  0
   20.1490   12.6855   30.3076 H   0  0  0  0  0  0  0  0  0  0  0  0
  1  2  1  0
  2  3  2  0
  3  4  1  0
  3  5  1  0
  5  6  1  0
  5  7  2  0
  7  8  1  0
  8  9  1  0
  8 10  1  0
  8 11  1  0
  7 12  1  0
 12 13  1  0
 13 14  2  0
 14 15  1  0
 15 16  1  0
 16 17  1  0
 16 18  1  0
 18 19  2  0
 18 20  1  0
 20 21  1  0
 20 22  1  0
 20 23  1  0
 23 24  2  0
 24 25  1  0
 24 26  1  0
 26 27  1  0
 27 28  1  0
 28 29  1  0
 28 30  1  0
 28 31  1  0
 26 32  2  0
 32 33  1  0
 32 34  1  0
 34 35  1  0
 34 36  2  0
 36 37  1  0
 37 38  1  0
 38 39  1  0
 38 40  1  0
 38 41  1  0
 15 42  2  0
 42 43  1  0
 42 44  1  0
 44 45  1  0
 45 46  1  0
 45 47  1  0
 44 48  2  0
 48 49  1  0
 49 50  3  0
 12 51  2  0
 51 52  1  0
 51  2  1  0
 48 13  1  0
 36 23  1  0
M  END
>  <score>  (319) 
7.67474

$$$$

     RDKit          3D

 49 50  0  0  0  0  0  0  0  0999 V2000
   26.1866    5.4143   30.8469 H   0  0  0  0  0  0  0  0  0  0  0  0
   25.3428    4.7809   31.1011 C   0  0  0  0  0  0  0  0  0  0  0  0
   25.5235    3.6757   31.9458 C   0  0  0  0  0  0  0  0  0  0  0  0
   27.2723    3.3092   32.6356 Br  0  0  0  0  0  0  0  0  0  0  0  0
   24.4403    2.8440   32.2726 C   0  0  0  0  0  0  0  0  0  0  0  0
   24.6649    1.7830   33.1222 O   0  0  0  0  0  0  0  0  0  0  0  0
   23.6884    0.7342   33.1401 C   0  0  0  0  0  0  0  0  0  0  0  0
   23.4969    0.3633   32.1279 H   0  0  0  0  0  0  0  0  0  0  0  0
   24.0663   -0.0965   33.7426 H   0  0  0  0  0  0  0  0  0  0  0  0
   22.7496    1.0786   33.5837 H   0  0  0  0  0  0  0  0  0  0  0  0
   23.1793    3.1415   31.7298 C   0  0  0  0  0  0  0  0  0  0  0  0
   22.3449    2.4962   31.9810 H   0  0  0  0  0  0  0  0  0  0  0  0
   22.9927    4.2463   30.8820 C   0  0  0  0  0  0  0  0  0  0  0  0
   21.6109    4.5324   30.3336 C   0  0  0  0  0  0  0  0  0  0  0  0
   21.0094    3.6195   30.3193 H   0  0  0  0  0  0  0  0  0  0  0  0
   21.7053    4.8810   29.3043 H   0  0  0  0  0  0  0  0  0  0  0  0
   20.8944    5.6167   31.1322 C   0  0  0  0  0  0  0  0  0  0  0  0
   19.7048    5.5176   31.3794 O   0  0  0  0  0  0  0  0  0  0  0  0
   21.5516    6.7834   31.3862 N   0  0  0  0  0  0  0  0  0  0  0  0
   22.4420    6.9135   30.9278 H   0  0  0  0  0  0  0  0  0  0  0  0
   20.9752    7.9474   31.7477 C   0  0  0  0  0  0  0  0  0  0  0  0
   21.7275    8.9578   31.3513 N   0  0  0  0  0  0  0  0  0  0  0  0
   21.4250   10.2386   31.6824 C   0  0  0  0  0  0  0  0  0  0  0  0
   22.3203   11.3789   31.1921 C   0  0  0  0  0  0  0  0  0  0  0  0
   22.3678   12.4548   31.7927 O   0  0  0  0  0  0  0  0  0  0  0  0
   23.1288   11.2488   30.0609 N   0  0  0  0  0  0  0  0  0  0  0  0
   22.9879   10.4202   29.4879 H   0  0  0  0  0  0  0  0  0  0  0  0
   24.0445   12.2662   29.5673 C   0  0  0  0  0  0  0  0  0  0  0  0
   24.6761   11.8327   28.7851 H   0  0  0  0  0  0  0  0  0  0  0  0
   24.7045   12.6041   30.3720 H   0  0  0  0  0  0  0  0  0  0  0  0
   23.2708   13.4477   29.0050 C   0  0  0  0  0  0  0  0  0  0  0  0
   23.9622   14.1975   28.6157 H   0  0  0  0  0  0  0  0  0  0  0  0
   22.6180   13.1231   28.1924 H   0  0  0  0  0  0  0  0  0  0  0  0
   22.6602   13.9107   29.7826 H   0  0  0  0  0  0  0  0  0  0  0  0
   20.2923   10.4597   32.4863 C   0  0  0  0  0  0  0  0  0  0  0  0
   19.9409   11.7797   32.9049 C   0  0  0  0  0  0  0  0  0  0  0  0
   19.6703   12.8685   33.2190 N   0  0  0  0  0  0  0  0  0  0  0  0
   19.5192    9.3659   32.8600 C   0  0  0  0  0  0  0  0  0  0  0  0
   18.4313    9.4902   33.6599 N   0  0  0  0  0  0  0  0  0  0  0  0
   18.1376   10.4142   33.9588 H   0  0  0  0  0  0  0  0  0  0  0  0
   17.8931    8.6647   33.9171 H   0  0  0  0  0  0  0  0  0  0  0  0
   19.8327    8.0958   32.4758 C   0  0  0  0  0  0  0  0  0  0  0  0
   19.2154    7.2628   32.7814 H   0  0  0  0  0  0  0  0  0  0  0  0
   24.0818    5.0858   30.5669 C   0  0  0  0  0  0  0  0  0  0  0  0
   23.8597    6.1774   29.7530 O   0  0  0  0  0  0  0  0  0  0  0  0
   24.9324    7.1160   29.5882 C   0  0  0  0  0  0  0  0  0  0  0  0
   25.7811    6.6562   29.0723 H   0  0  0  0  0  0  0  0  0  0  0  0
   24.5862    7.9613   28.9866 H   0  0  0  0  0  0  0  0  0  0  0  0
   25.2635    7.5008   30.5578 H   0  0  0  0  0  0  0  0  0  0  0  0
  1  2  1  0
  2  3  2  0
  3  4  1  0
  3  5  1  0
  5  6  1  0
  6  7  1  0
  7  8  1  0
  7  9  1  0
  7 10  1  0
  5 11  2  0
 11 12  1  0
 11 13  1  0
 13 14  1  0
 14 15  1  0
 14 16  1  0
 14 17  1  0
 17 18  2  0
 17 19  1  0
 19 20  1  0
 19 21  1  0
 21 22  2  0
 22 23  1  0
 23 24  1  0
 24 25  2  0
 24 26  1  0
 26 27  1  0
 26 28  1  0
 28 29  1  0
 28 30  1  0
 28 31  1  0
 31 32  1  0
 31 33  1  0
 31 34  1  0
 23 35  2  0
 35 36  1  0
 36 37  3  0
 35 38  1  0
 38 39  1  0
 39 40  1  0
 39 41  1  0
 38 42  2  0
 42 43  1  0
 13 44  2  0
 44 45  1  0
 45 46  1  0
 46 47  1  0
 46 48  1  0
 46 49  1  0
 44  2  1  0
 42 21  1  0
M  END
>  <score>  (320) 
7.67652

$$$$

     RDKit          3D

 56 58  0  0  0  0  0  0  0  0999 V2000
   27.1898   11.7908   26.8577 H   0  0  0  0  0  0  0  0  0  0  0  0
   26.2579   12.0080   27.3730 C   0  0  0  0  0  0  0  0  0  0  0  0
   25.9069   13.3326   27.6447 C   0  0  0  0  0  0  0  0  0  0  0  0
   26.5672   14.1405   27.3377 H   0  0  0  0  0  0  0  0  0  0  0  0
   24.7096   13.6060   28.3181 C   0  0  0  0  0  0  0  0  0  0  0  0
   24.4345   14.6327   28.5288 H   0  0  0  0  0  0  0  0  0  0  0  0
   23.8557   12.5787   28.7368 C   0  0  0  0  0  0  0  0  0  0  0  0
   22.7189   12.9592   29.4182 O   0  0  0  0  0  0  0  0  0  0  0  0
   21.7993   11.9581   29.8818 C   0  0  0  0  0  0  0  0  0  0  0  0
   20.8302   12.4427   30.0537 H   0  0  0  0  0  0  0  0  0  0  0  0
   21.6602   11.1840   29.1195 H   0  0  0  0  0  0  0  0  0  0  0  0
   22.2923   11.3502   31.1959 C   0  0  0  0  0  0  0  0  0  0  0  0
   23.2979   10.9489   31.0577 H   0  0  0  0  0  0  0  0  0  0  0  0
   22.3406   12.1293   31.9624 H   0  0  0  0  0  0  0  0  0  0  0  0
   21.3954   10.2364   31.6604 C   0  0  0  0  0  0  0  0  0  0  0  0
   21.7532    8.9984   31.3158 N   0  0  0  0  0  0  0  0  0  0  0  0
   21.0098    7.9851   31.7176 C   0  0  0  0  0  0  0  0  0  0  0  0
   21.5840    6.8197   31.3675 N   0  0  0  0  0  0  0  0  0  0  0  0
   22.4791    6.9382   30.9185 H   0  0  0  0  0  0  0  0  0  0  0  0
   20.9173    5.6527   31.1317 C   0  0  0  0  0  0  0  0  0  0  0  0
   19.7284    5.5729   31.3875 O   0  0  0  0  0  0  0  0  0  0  0  0
   21.6136    4.5505   30.3403 C   0  0  0  0  0  0  0  0  0  0  0  0
   21.7122    4.8890   29.3076 H   0  0  0  0  0  0  0  0  0  0  0  0
   21.0031    3.6432   30.3344 H   0  0  0  0  0  0  0  0  0  0  0  0
   22.9915    4.2544   30.8861 C   0  0  0  0  0  0  0  0  0  0  0  0
   23.1754    3.1477   31.7323 C   0  0  0  0  0  0  0  0  0  0  0  0
   22.3410    2.5015   31.9809 H   0  0  0  0  0  0  0  0  0  0  0  0
   24.4366    2.8449   32.2724 C   0  0  0  0  0  0  0  0  0  0  0  0
   24.6631    1.7835   33.1205 O   0  0  0  0  0  0  0  0  0  0  0  0
   23.6878    0.7348   33.1394 C   0  0  0  0  0  0  0  0  0  0  0  0
   23.4965    0.3633   32.1286 H   0  0  0  0  0  0  0  0  0  0  0  0
   24.0674   -0.0939   33.7418 H   0  0  0  0  0  0  0  0  0  0  0  0
   22.7502    1.0783   33.5834 H   0  0  0  0  0  0  0  0  0  0  0  0
   25.5212    3.6751   31.9460 C   0  0  0  0  0  0  0  0  0  0  0  0
   27.2697    3.3056   32.6352 Br  0  0  0  0  0  0  0  0  0  0  0  0
   25.3420    4.7807   31.1007 C   0  0  0  0  0  0  0  0  0  0  0  0
   26.1855    5.4139   30.8433 H   0  0  0  0  0  0  0  0  0  0  0  0
   24.0818    5.0905   30.5688 C   0  0  0  0  0  0  0  0  0  0  0  0
   23.8629    6.1803   29.7517 O   0  0  0  0  0  0  0  0  0  0  0  0
   24.9329    7.1202   29.5863 C   0  0  0  0  0  0  0  0  0  0  0  0
   24.5863    7.9625   28.9823 H   0  0  0  0  0  0  0  0  0  0  0  0
   25.7820    6.6601   29.0741 H   0  0  0  0  0  0  0  0  0  0  0  0
   25.2598    7.5063   30.5552 H   0  0  0  0  0  0  0  0  0  0  0  0
   19.8639    8.1220   32.4493 C   0  0  0  0  0  0  0  0  0  0  0  0
   19.2601    7.2809   32.7557 H   0  0  0  0  0  0  0  0  0  0  0  0
   19.5328    9.3861   32.8303 C   0  0  0  0  0  0  0  0  0  0  0  0
   18.4668    9.4997   33.6508 N   0  0  0  0  0  0  0  0  0  0  0  0
   17.9301    8.6707   33.8912 H   0  0  0  0  0  0  0  0  0  0  0  0
   18.1537   10.4181   33.9411 H   0  0  0  0  0  0  0  0  0  0  0  0
   20.2803   10.4814   32.4488 C   0  0  0  0  0  0  0  0  0  0  0  0
   19.9581   11.8095   32.8714 C   0  0  0  0  0  0  0  0  0  0  0  0
   19.7060   12.8979   33.1973 N   0  0  0  0  0  0  0  0  0  0  0  0
   24.2125   11.2517   28.4413 C   0  0  0  0  0  0  0  0  0  0  0  0
   23.5480   10.4535   28.7475 H   0  0  0  0  0  0  0  0  0  0  0  0
   25.4118   10.9645   27.7643 C   0  0  0  0  0  0  0  0  0  0  0  0
   25.6937    9.9373   27.5466 H   0  0  0  0  0  0  0  0  0  0  0  0
  1  2  1  0
  2  3  2  0
  3  4  1  0
  3  5  1  0
  5  6  1  0
  5  7  2  0
  7  8  1  0
  8  9  1  0
  9 10  1  0
  9 11  1  0
  9 12  1  0
 12 13  1  0
 12 14  1  0
 12 15  1  0
 15 16  2  0
 16 17  1  0
 17 18  1  0
 18 19  1  0
 18 20  1  0
 20 21  2  0
 20 22  1  0
 22 23  1  0
 22 24  1  0
 22 25  1  0
 25 26  2  0
 26 27  1  0
 26 28  1  0
 28 29  1  0
 29 30  1  0
 30 31  1  0
 30 32  1  0
 30 33  1  0
 28 34  2  0
 34 35  1  0
 34 36  1  0
 36 37  1  0
 36 38  2  0
 38 39  1  0
 39 40  1  0
 40 41  1  0
 40 42  1  0
 40 43  1  0
 17 44  2  0
 44 45  1  0
 44 46  1  0
 46 47  1  0
 47 48  1  0
 47 49  1  0
 46 50  2  0
 50 51  1  0
 51 52  3  0
  7 53  1  0
 53 54  1  0
 53 55  2  0
 55 56  1  0
 55  2  1  0
 50 15  1  0
 38 25  1  0
M  END
>  <score>  (321) 
7.6776

$$$$

     RDKit          3D

 49 51  0  0  0  0  0  0  0  0999 V2000
   24.6258   14.2108   30.0368 H   0  0  0  0  0  0  0  0  0  0  0  0
   23.9729   13.4002   30.3445 C   0  0  0  0  0  0  0  0  0  0  0  0
   24.4865   12.3573   31.1190 C   0  0  0  0  0  0  0  0  0  0  0  0
   25.5248   12.3779   31.4359 H   0  0  0  0  0  0  0  0  0  0  0  0
   23.6660   11.2844   31.4774 C   0  0  0  0  0  0  0  0  0  0  0  0
   24.0931   10.4619   32.0495 H   0  0  0  0  0  0  0  0  0  0  0  0
   22.2918   11.3095   31.1659 C   0  0  0  0  0  0  0  0  0  0  0  0
   21.3933   10.2453   31.6105 C   0  0  0  0  0  0  0  0  0  0  0  0
   21.6950    9.0253   31.1906 N   0  0  0  0  0  0  0  0  0  0  0  0
   20.9388    8.0237   31.5568 C   0  0  0  0  0  0  0  0  0  0  0  0
   21.4354    6.9137   30.9974 N   0  0  0  0  0  0  0  0  0  0  0  0
   22.3137    7.0464   30.5142 H   0  0  0  0  0  0  0  0  0  0  0  0
   20.9001    5.6700   31.0676 C   0  0  0  0  0  0  0  0  0  0  0  0
   19.8533    5.4858   31.6677 O   0  0  0  0  0  0  0  0  0  0  0  0
   21.5898    4.5432   30.3141 C   0  0  0  0  0  0  0  0  0  0  0  0
   21.6931    4.8402   29.2637 H   0  0  0  0  0  0  0  0  0  0  0  0
   20.9570    3.6514   30.3556 H   0  0  0  0  0  0  0  0  0  0  0  0
   22.9672    4.2606   30.8842 C   0  0  0  0  0  0  0  0  0  0  0  0
   23.1628    3.1511   31.7282 C   0  0  0  0  0  0  0  0  0  0  0  0
   22.3408    2.4882   31.9770 H   0  0  0  0  0  0  0  0  0  0  0  0
   24.4284    2.8568   32.2663 C   0  0  0  0  0  0  0  0  0  0  0  0
   24.6653    1.7920   33.1068 O   0  0  0  0  0  0  0  0  0  0  0  0
   23.6797    0.7503   33.1280 C   0  0  0  0  0  0  0  0  0  0  0  0
   24.0432   -0.0868   33.7303 H   0  0  0  0  0  0  0  0  0  0  0  0
   23.4839    0.3804   32.1166 H   0  0  0  0  0  0  0  0  0  0  0  0
   22.7418    1.1027   33.5675 H   0  0  0  0  0  0  0  0  0  0  0  0
   25.5078    3.6915   31.9398 C   0  0  0  0  0  0  0  0  0  0  0  0
   27.2619    3.3468   32.6318 Br  0  0  0  0  0  0  0  0  0  0  0  0
   25.3172    4.7966   31.1002 C   0  0  0  0  0  0  0  0  0  0  0  0
   26.1557    5.4332   30.8383 H   0  0  0  0  0  0  0  0  0  0  0  0
   24.0546    5.0999   30.5684 C   0  0  0  0  0  0  0  0  0  0  0  0
   23.8376    6.1828   29.7427 O   0  0  0  0  0  0  0  0  0  0  0  0
   24.9289    7.1043   29.5923 C   0  0  0  0  0  0  0  0  0  0  0  0
   25.2592    7.4787   30.5673 H   0  0  0  0  0  0  0  0  0  0  0  0
   24.6087    7.9590   28.9925 H   0  0  0  0  0  0  0  0  0  0  0  0
   25.7786    6.6346   29.0850 H   0  0  0  0  0  0  0  0  0  0  0  0
   19.8595    8.1332   32.3872 C   0  0  0  0  0  0  0  0  0  0  0  0
   19.2817    7.2850   32.7077 H   0  0  0  0  0  0  0  0  0  0  0  0
   19.5478    9.3822   32.8226 C   0  0  0  0  0  0  0  0  0  0  0  0
   18.5170    9.4879   33.6978 N   0  0  0  0  0  0  0  0  0  0  0  0
   18.1627   10.4172   33.9061 H   0  0  0  0  0  0  0  0  0  0  0  0
   17.9390    8.6677   33.8845 H   0  0  0  0  0  0  0  0  0  0  0  0
   20.2915   10.4746   32.4239 C   0  0  0  0  0  0  0  0  0  0  0  0
   19.9686   11.7911   32.8608 C   0  0  0  0  0  0  0  0  0  0  0  0
   19.6933   12.8646   33.2104 N   0  0  0  0  0  0  0  0  0  0  0  0
   21.7807   12.3671   30.4042 C   0  0  0  0  0  0  0  0  0  0  0  0
   20.4728   12.4093   30.0686 F   0  0  0  0  0  0  0  0  0  0  0  0
   22.6279   13.3864   29.9609 C   0  0  0  0  0  0  0  0  0  0  0  0
   22.2297   14.1773   29.3317 H   0  0  0  0  0  0  0  0  0  0  0  0
  1  2  1  0
  2  3  2  0
  3  4  1  0
  3  5  1  0
  5  6  1  0
  5  7  2  0
  7  8  1  0
  8  9  2  0
  9 10  1  0
 10 11  1  0
 11 12  1  0
 11 13  1  0
 13 14  2  0
 13 15  1  0
 15 16  1  0
 15 17  1  0
 15 18  1  0
 18 19  2  0
 19 20  1  0
 19 21  1  0
 21 22  1  0
 22 23  1  0
 23 24  1  0
 23 25  1  0
 23 26  1  0
 21 27  2  0
 27 28  1  0
 27 29  1  0
 29 30  1  0
 29 31  2  0
 31 32  1  0
 32 33  1  0
 33 34  1  0
 33 35  1  0
 33 36  1  0
 10 37  2  0
 37 38  1  0
 37 39  1  0
 39 40  1  0
 40 41  1  0
 40 42  1  0
 39 43  2  0
 43 44  1  0
 44 45  3  0
  7 46  1  0
 46 47  1  0
 46 48  2  0
 48 49  1  0
 48  2  1  0
 43  8  1  0
 31 18  1  0
M  END
>  <score>  (322) 
7.67905

$$$$

     RDKit          3D

 52 54  0  0  0  0  0  0  0  0999 V2000
   25.8392    9.2654   31.6348 H   0  0  0  0  0  0  0  0  0  0  0  0
   25.2513    9.8026   30.8978 C   0  0  0  0  0  0  0  0  0  0  0  0
   25.7295   10.0044   29.5952 C   0  0  0  0  0  0  0  0  0  0  0  0
   26.7109    9.6393   29.3059 H   0  0  0  0  0  0  0  0  0  0  0  0
   24.9396   10.6703   28.6524 C   0  0  0  0  0  0  0  0  0  0  0  0
   25.4146   10.8791   27.3983 F   0  0  0  0  0  0  0  0  0  0  0  0
   23.6615   11.1091   29.0176 C   0  0  0  0  0  0  0  0  0  0  0  0
   23.0521   11.5844   28.2579 H   0  0  0  0  0  0  0  0  0  0  0  0
   23.1823   10.9436   30.3254 C   0  0  0  0  0  0  0  0  0  0  0  0
   21.7757   11.3686   30.6885 C   0  0  0  0  0  0  0  0  0  0  0  0
   21.2315   11.6449   29.7822 H   0  0  0  0  0  0  0  0  0  0  0  0
   21.8155   12.2407   31.3413 H   0  0  0  0  0  0  0  0  0  0  0  0
   21.0193   10.2532   31.3686 C   0  0  0  0  0  0  0  0  0  0  0  0
   21.3969    9.0060   31.0852 N   0  0  0  0  0  0  0  0  0  0  0  0
   20.8083    7.9986   31.6798 C   0  0  0  0  0  0  0  0  0  0  0  0
   21.4519    6.8461   31.4172 N   0  0  0  0  0  0  0  0  0  0  0  0
   22.3088    6.9728   30.8986 H   0  0  0  0  0  0  0  0  0  0  0  0
   20.8144    5.6535   31.2798 C   0  0  0  0  0  0  0  0  0  0  0  0
   19.6531    5.5313   31.6417 O   0  0  0  0  0  0  0  0  0  0  0  0
   21.4942    4.5613   30.4624 C   0  0  0  0  0  0  0  0  0  0  0  0
   21.5149    4.8565   29.4103 H   0  0  0  0  0  0  0  0  0  0  0  0
   20.9056    3.6451   30.5364 H   0  0  0  0  0  0  0  0  0  0  0  0
   22.9043    4.3096   30.9469 C   0  0  0  0  0  0  0  0  0  0  0  0
   23.1303    3.1874   31.7530 C   0  0  0  0  0  0  0  0  0  0  0  0
   22.3065    2.5258   32.0003 H   0  0  0  0  0  0  0  0  0  0  0  0
   24.4059    2.8911   32.2587 C   0  0  0  0  0  0  0  0  0  0  0  0
   24.6500    1.7834   33.0365 O   0  0  0  0  0  0  0  0  0  0  0  0
   23.6102    0.7962   33.0709 C   0  0  0  0  0  0  0  0  0  0  0  0
   23.9275   -0.0513   33.6850 H   0  0  0  0  0  0  0  0  0  0  0  0
   22.6961    1.2169   33.5016 H   0  0  0  0  0  0  0  0  0  0  0  0
   23.3909    0.4318   32.0612 H   0  0  0  0  0  0  0  0  0  0  0  0
   25.4669    3.7572   31.9578 C   0  0  0  0  0  0  0  0  0  0  0  0
   27.2271    3.4336   32.6383 Br  0  0  0  0  0  0  0  0  0  0  0  0
   25.2502    4.8724   31.1443 C   0  0  0  0  0  0  0  0  0  0  0  0
   26.0826    5.5220   30.8952 H   0  0  0  0  0  0  0  0  0  0  0  0
   23.9774    5.1732   30.6337 C   0  0  0  0  0  0  0  0  0  0  0  0
   23.7644    6.2930   29.8581 O   0  0  0  0  0  0  0  0  0  0  0  0
   24.9147    7.1256   29.6285 C   0  0  0  0  0  0  0  0  0  0  0  0
   25.7067    6.5615   29.1238 H   0  0  0  0  0  0  0  0  0  0  0  0
   24.6459    7.9807   29.0013 H   0  0  0  0  0  0  0  0  0  0  0  0
   25.3079    7.4976   30.5803 H   0  0  0  0  0  0  0  0  0  0  0  0
   19.7504    8.1354   32.5278 C   0  0  0  0  0  0  0  0  0  0  0  0
   19.2815    7.2861   32.9975 H   0  0  0  0  0  0  0  0  0  0  0  0
   19.3411    9.4029   32.7947 C   0  0  0  0  0  0  0  0  0  0  0  0
   18.2766    9.5204   33.6154 N   0  0  0  0  0  0  0  0  0  0  0  0
   18.0684    8.7252   34.2105 H   0  0  0  0  0  0  0  0  0  0  0  0
   17.9954   10.4564   33.8944 H   0  0  0  0  0  0  0  0  0  0  0  0
   19.9871   10.4988   32.2682 C   0  0  0  0  0  0  0  0  0  0  0  0
   19.6429   11.8258   32.6651 C   0  0  0  0  0  0  0  0  0  0  0  0
   19.4269   12.9171   33.0004 N   0  0  0  0  0  0  0  0  0  0  0  0
   23.9949   10.2899   31.2636 C   0  0  0  0  0  0  0  0  0  0  0  0
   23.6468   10.1435   32.2807 H   0  0  0  0  0  0  0  0  0  0  0  0
  1  2  1  0
  2  3  2  0
  3  4  1  0
  3  5  1  0
  5  6  1  0
  5  7  2  0
  7  8  1  0
  7  9  1  0
  9 10  1  0
 10 11  1  0
 10 12  1  0
 10 13  1  0
 13 14  2  0
 14 15  1  0
 15 16  1  0
 16 17  1  0
 16 18  1  0
 18 19  2  0
 18 20  1  0
 20 21  1  0
 20 22  1  0
 20 23  1  0
 23 24  2  0
 24 25  1  0
 24 26  1  0
 26 27  1  0
 27 28  1  0
 28 29  1  0
 28 30  1  0
 28 31  1  0
 26 32  2  0
 32 33  1  0
 32 34  1  0
 34 35  1  0
 34 36  2  0
 36 37  1  0
 37 38  1  0
 38 39  1  0
 38 40  1  0
 38 41  1  0
 15 42  2  0
 42 43  1  0
 42 44  1  0
 44 45  1  0
 45 46  1  0
 45 47  1  0
 44 48  2  0
 48 49  1  0
 49 50  3  0
  9 51  2  0
 51 52  1  0
 51  2  1  0
 48 13  1  0
 36 23  1  0
M  END
>  <score>  (323) 
7.68074

$$$$

     RDKit          3D

 51 53  0  0  0  0  0  0  0  0999 V2000
   25.9811    9.0275   30.9898 H   0  0  0  0  0  0  0  0  0  0  0  0
   25.4105    9.8890   30.6770 C   0  0  0  0  0  0  0  0  0  0  0  0
   24.1415   10.0914   31.2145 C   0  0  0  0  0  0  0  0  0  0  0  0
   23.7346    9.3977   31.9463 H   0  0  0  0  0  0  0  0  0  0  0  0
   23.3823   11.1910   30.8168 C   0  0  0  0  0  0  0  0  0  0  0  0
   22.0968   11.3388   31.3201 N   0  0  0  0  0  0  0  0  0  0  0  0
   21.5660   12.1600   31.0737 H   0  0  0  0  0  0  0  0  0  0  0  0
   21.3456   10.2668   31.7301 C   0  0  0  0  0  0  0  0  0  0  0  0
   21.7660    9.0722   31.3603 N   0  0  0  0  0  0  0  0  0  0  0  0
   21.0681    8.0428   31.7420 C   0  0  0  0  0  0  0  0  0  0  0  0
   21.6329    6.9021   31.3083 N   0  0  0  0  0  0  0  0  0  0  0  0
   22.5101    7.0159   30.8242 H   0  0  0  0  0  0  0  0  0  0  0  0
   20.9323    5.7430   31.1333 C   0  0  0  0  0  0  0  0  0  0  0  0
   19.7678    5.6794   31.4877 O   0  0  0  0  0  0  0  0  0  0  0  0
   21.5748    4.5826   30.3792 C   0  0  0  0  0  0  0  0  0  0  0  0
   21.6395    4.8523   29.3221 H   0  0  0  0  0  0  0  0  0  0  0  0
   20.9349    3.6994   30.4643 H   0  0  0  0  0  0  0  0  0  0  0  0
   22.9639    4.2784   30.9027 C   0  0  0  0  0  0  0  0  0  0  0  0
   23.1652    3.1660   31.7346 C   0  0  0  0  0  0  0  0  0  0  0  0
   22.3304    2.5181   31.9831 H   0  0  0  0  0  0  0  0  0  0  0  0
   24.4362    2.8664   32.2614 C   0  0  0  0  0  0  0  0  0  0  0  0
   24.6688    1.7863   33.0812 O   0  0  0  0  0  0  0  0  0  0  0  0
   23.6587    0.7688   33.1058 C   0  0  0  0  0  0  0  0  0  0  0  0
   22.7308    1.1544   33.5390 H   0  0  0  0  0  0  0  0  0  0  0  0
   24.0015   -0.0750   33.7131 H   0  0  0  0  0  0  0  0  0  0  0  0
   23.4543    0.4042   32.0938 H   0  0  0  0  0  0  0  0  0  0  0  0
   25.5143    3.7089   31.9455 C   0  0  0  0  0  0  0  0  0  0  0  0
   27.2702    3.3867   32.6430 Br  0  0  0  0  0  0  0  0  0  0  0  0
   25.3183    4.8102   31.1075 C   0  0  0  0  0  0  0  0  0  0  0  0
   26.1607    5.4471   30.8582 H   0  0  0  0  0  0  0  0  0  0  0  0
   24.0513    5.1141   30.5813 C   0  0  0  0  0  0  0  0  0  0  0  0
   23.8284    6.2094   29.7757 O   0  0  0  0  0  0  0  0  0  0  0  0
   24.9354    7.1026   29.6074 C   0  0  0  0  0  0  0  0  0  0  0  0
   24.6244    7.9769   29.0276 H   0  0  0  0  0  0  0  0  0  0  0  0
   25.7562    6.6046   29.0814 H   0  0  0  0  0  0  0  0  0  0  0  0
   25.2975    7.4369   30.5835 H   0  0  0  0  0  0  0  0  0  0  0  0
   19.9232    8.1262   32.4793 C   0  0  0  0  0  0  0  0  0  0  0  0
   19.3717    7.2440   32.7524 H   0  0  0  0  0  0  0  0  0  0  0  0
   19.5112    9.3693   32.8418 C   0  0  0  0  0  0  0  0  0  0  0  0
   18.3737    9.4878   33.5504 N   0  0  0  0  0  0  0  0  0  0  0  0
   17.9319    8.6430   33.9018 H   0  0  0  0  0  0  0  0  0  0  0  0
   18.1238   10.4016   33.9206 H   0  0  0  0  0  0  0  0  0  0  0  0
   20.2188   10.4742   32.4775 C   0  0  0  0  0  0  0  0  0  0  0  0
   19.8580   11.7904   32.8803 C   0  0  0  0  0  0  0  0  0  0  0  0
   19.6490   12.8918   33.1869 N   0  0  0  0  0  0  0  0  0  0  0  0
   23.8953   12.0782   29.8719 C   0  0  0  0  0  0  0  0  0  0  0  0
   23.2812   12.9087   29.5551 H   0  0  0  0  0  0  0  0  0  0  0  0
   25.1633   11.8647   29.3131 C   0  0  0  0  0  0  0  0  0  0  0  0
   25.5552   12.5259   28.5477 H   0  0  0  0  0  0  0  0  0  0  0  0
   25.9224   10.7642   29.7136 C   0  0  0  0  0  0  0  0  0  0  0  0
   27.1333   10.5383   29.1598 F   0  0  0  0  0  0  0  0  0  0  0  0
  1  2  1  0
  2  3  2  0
  3  4  1  0
  3  5  1  0
  5  6  1  0
  6  7  1  0
  6  8  1  0
  8  9  2  0
  9 10  1  0
 10 11  1  0
 11 12  1  0
 11 13  1  0
 13 14  2  0
 13 15  1  0
 15 16  1  0
 15 17  1  0
 15 18  1  0
 18 19  2  0
 19 20  1  0
 19 21  1  0
 21 22  1  0
 22 23  1  0
 23 24  1  0
 23 25  1  0
 23 26  1  0
 21 27  2  0
 27 28  1  0
 27 29  1  0
 29 30  1  0
 29 31  2  0
 31 32  1  0
 32 33  1  0
 33 34  1  0
 33 35  1  0
 33 36  1  0
 10 37  2  0
 37 38  1  0
 37 39  1  0
 39 40  1  0
 40 41  1  0
 40 42  1  0
 39 43  2  0
 43 44  1  0
 44 45  3  0
  5 46  2  0
 46 47  1  0
 46 48  1  0
 48 49  1  0
 48 50  2  0
 50 51  1  0
 50  2  1  0
 43  8  1  0
 31 18  1  0
M  END
>  <score>  (324) 
7.68096

$$$$

     RDKit          3D

 50 52  0  0  0  0  0  0  0  0999 V2000
   22.1006   14.2125   29.4313 H   0  0  0  0  0  0  0  0  0  0  0  0
   22.5588   13.4037   29.9946 C   0  0  0  0  0  0  0  0  0  0  0  0
   21.7211   12.4273   30.5393 C   0  0  0  0  0  0  0  0  0  0  0  0
   20.6452   12.4932   30.3986 H   0  0  0  0  0  0  0  0  0  0  0  0
   22.2588   11.3228   31.2165 C   0  0  0  0  0  0  0  0  0  0  0  0
   21.3839   10.2253   31.6644 C   0  0  0  0  0  0  0  0  0  0  0  0
   21.7123    9.0065   31.2399 N   0  0  0  0  0  0  0  0  0  0  0  0
   20.9466    8.0012   31.5789 C   0  0  0  0  0  0  0  0  0  0  0  0
   21.4553    6.8870   31.0280 N   0  0  0  0  0  0  0  0  0  0  0  0
   22.3302    7.0181   30.5497 H   0  0  0  0  0  0  0  0  0  0  0  0
   20.9029    5.6478   31.0904 C   0  0  0  0  0  0  0  0  0  0  0  0
   19.8499    5.4742   31.6800 O   0  0  0  0  0  0  0  0  0  0  0  0
   21.5797    4.5263   30.3191 C   0  0  0  0  0  0  0  0  0  0  0  0
   21.6712    4.8237   29.2693 H   0  0  0  0  0  0  0  0  0  0  0  0
   20.9520    3.6357   30.3678 H   0  0  0  0  0  0  0  0  0  0  0  0
   22.9565    4.2477   30.8799 C   0  0  0  0  0  0  0  0  0  0  0  0
   23.1608    3.1451   31.7267 C   0  0  0  0  0  0  0  0  0  0  0  0
   22.3329    2.4867   31.9743 H   0  0  0  0  0  0  0  0  0  0  0  0
   24.4315    2.8657   32.2633 C   0  0  0  0  0  0  0  0  0  0  0  0
   24.6634    1.7945   33.0975 O   0  0  0  0  0  0  0  0  0  0  0  0
   23.6715    0.7569   33.1207 C   0  0  0  0  0  0  0  0  0  0  0  0
   22.7352    1.1226   33.5539 H   0  0  0  0  0  0  0  0  0  0  0  0
   23.4725    0.3929   32.1077 H   0  0  0  0  0  0  0  0  0  0  0  0
   24.0303   -0.0845   33.7248 H   0  0  0  0  0  0  0  0  0  0  0  0
   25.5056    3.7114   31.9405 C   0  0  0  0  0  0  0  0  0  0  0  0
   27.2606    3.3695   32.6330 Br  0  0  0  0  0  0  0  0  0  0  0  0
   25.3034    4.8076   31.0970 C   0  0  0  0  0  0  0  0  0  0  0  0
   26.1440    5.4432   30.8425 H   0  0  0  0  0  0  0  0  0  0  0  0
   24.0374    5.0987   30.5669 C   0  0  0  0  0  0  0  0  0  0  0  0
   23.8286    6.1892   29.7485 O   0  0  0  0  0  0  0  0  0  0  0  0
   24.9286    7.1007   29.5955 C   0  0  0  0  0  0  0  0  0  0  0  0
   25.2639    7.4634   30.5724 H   0  0  0  0  0  0  0  0  0  0  0  0
   25.7739    6.6139   29.0977 H   0  0  0  0  0  0  0  0  0  0  0  0
   24.6175    7.9603   28.9929 H   0  0  0  0  0  0  0  0  0  0  0  0
   19.8446    8.1034   32.3869 C   0  0  0  0  0  0  0  0  0  0  0  0
   19.2621    7.2492   32.6866 H   0  0  0  0  0  0  0  0  0  0  0  0
   19.5271    9.3470   32.8410 C   0  0  0  0  0  0  0  0  0  0  0  0
   18.4938    9.4747   33.7015 N   0  0  0  0  0  0  0  0  0  0  0  0
   17.9268    8.6540   33.8910 H   0  0  0  0  0  0  0  0  0  0  0  0
   18.1489   10.4079   33.9140 H   0  0  0  0  0  0  0  0  0  0  0  0
   20.2633   10.4381   32.4596 C   0  0  0  0  0  0  0  0  0  0  0  0
   19.9264   11.7505   32.8934 C   0  0  0  0  0  0  0  0  0  0  0  0
   19.6830   12.8423   33.2114 N   0  0  0  0  0  0  0  0  0  0  0  0
   23.6503   11.2655   31.4196 C   0  0  0  0  0  0  0  0  0  0  0  0
   24.0864   10.4402   31.9808 H   0  0  0  0  0  0  0  0  0  0  0  0
   24.4826   12.2727   30.9252 C   0  0  0  0  0  0  0  0  0  0  0  0
   25.5455   12.2365   31.1369 H   0  0  0  0  0  0  0  0  0  0  0  0
   23.9525   13.3095   30.1442 C   0  0  0  0  0  0  0  0  0  0  0  0
   24.8156   14.2103   29.4439 C   0  0  0  0  0  0  0  0  0  0  0  0
   25.4907   14.9297   28.8215 N   0  0  0  0  0  0  0  0  0  0  0  0
  1  2  1  0
  2  3  2  0
  3  4  1  0
  3  5  1  0
  5  6  1  0
  6  7  2  0
  7  8  1  0
  8  9  1  0
  9 10  1  0
  9 11  1  0
 11 12  2  0
 11 13  1  0
 13 14  1  0
 13 15  1  0
 13 16  1  0
 16 17  2  0
 17 18  1  0
 17 19  1  0
 19 20  1  0
 20 21  1  0
 21 22  1  0
 21 23  1  0
 21 24  1  0
 19 25  2  0
 25 26  1  0
 25 27  1  0
 27 28  1  0
 27 29  2  0
 29 30  1  0
 30 31  1  0
 31 32  1  0
 31 33  1  0
 31 34  1  0
  8 35  2  0
 35 36  1  0
 35 37  1  0
 37 38  1  0
 38 39  1  0
 38 40  1  0
 37 41  2  0
 41 42  1  0
 42 43  3  0
  5 44  2  0
 44 45  1  0
 44 46  1  0
 46 47  1  0
 46 48  2  0
 48 49  1  0
 49 50  3  0
 48  2  1  0
 41  6  1  0
 29 16  1  0
M  END
>  <score>  (325) 
7.68211

$$$$

     RDKit          3D

 49 51  0  0  0  0  0  0  0  0999 V2000
   21.3436   14.2365   29.3228 H   0  0  0  0  0  0  0  0  0  0  0  0
   21.9481   13.4998   29.8400 C   0  0  0  0  0  0  0  0  0  0  0  0
   23.3416   13.5668   29.8653 C   0  0  0  0  0  0  0  0  0  0  0  0
   23.8587   14.3868   29.3783 H   0  0  0  0  0  0  0  0  0  0  0  0
   24.0871   12.5460   30.4541 C   0  0  0  0  0  0  0  0  0  0  0  0
   25.9813   12.6286   30.1972 Br  0  0  0  0  0  0  0  0  0  0  0  0
   23.4281   11.4805   31.1023 C   0  0  0  0  0  0  0  0  0  0  0  0
   23.9914   10.6851   31.5917 H   0  0  0  0  0  0  0  0  0  0  0  0
   22.0198   11.4101   31.0794 C   0  0  0  0  0  0  0  0  0  0  0  0
   21.2819   10.2545   31.6276 C   0  0  0  0  0  0  0  0  0  0  0  0
   21.6469    9.0362   31.2153 N   0  0  0  0  0  0  0  0  0  0  0  0
   20.9349    7.9974   31.5921 C   0  0  0  0  0  0  0  0  0  0  0  0
   21.4656    6.8700   31.0746 N   0  0  0  0  0  0  0  0  0  0  0  0
   22.2966    7.0134   30.5168 H   0  0  0  0  0  0  0  0  0  0  0  0
   20.8994    5.6323   31.1017 C   0  0  0  0  0  0  0  0  0  0  0  0
   19.8309    5.4516   31.6670 O   0  0  0  0  0  0  0  0  0  0  0  0
   21.5813    4.5171   30.3231 C   0  0  0  0  0  0  0  0  0  0  0  0
   21.6626    4.8170   29.2751 H   0  0  0  0  0  0  0  0  0  0  0  0
   20.9638    3.6188   30.3674 H   0  0  0  0  0  0  0  0  0  0  0  0
   22.9643    4.2470   30.8744 C   0  0  0  0  0  0  0  0  0  0  0  0
   23.1620    3.1457   31.7220 C   0  0  0  0  0  0  0  0  0  0  0  0
   22.3288    2.4955   31.9701 H   0  0  0  0  0  0  0  0  0  0  0  0
   24.4281    2.8612   32.2634 C   0  0  0  0  0  0  0  0  0  0  0  0
   24.6620    1.7913   33.0972 O   0  0  0  0  0  0  0  0  0  0  0  0
   23.6694    0.7575   33.1189 C   0  0  0  0  0  0  0  0  0  0  0  0
   24.0286   -0.0811   33.7240 H   0  0  0  0  0  0  0  0  0  0  0  0
   23.4711    0.3915   32.1061 H   0  0  0  0  0  0  0  0  0  0  0  0
   22.7356    1.1254   33.5549 H   0  0  0  0  0  0  0  0  0  0  0  0
   25.5024    3.7072   31.9449 C   0  0  0  0  0  0  0  0  0  0  0  0
   27.2597    3.3755   32.6334 Br  0  0  0  0  0  0  0  0  0  0  0  0
   25.3081    4.8051   31.1007 C   0  0  0  0  0  0  0  0  0  0  0  0
   26.1497    5.4420   30.8511 H   0  0  0  0  0  0  0  0  0  0  0  0
   24.0456    5.0977   30.5637 C   0  0  0  0  0  0  0  0  0  0  0  0
   23.8281    6.1925   29.7543 O   0  0  0  0  0  0  0  0  0  0  0  0
   24.9265    7.1024   29.5966 C   0  0  0  0  0  0  0  0  0  0  0  0
   25.2626    7.4686   30.5724 H   0  0  0  0  0  0  0  0  0  0  0  0
   25.7679    6.6118   29.0957 H   0  0  0  0  0  0  0  0  0  0  0  0
   24.6132    7.9595   28.9924 H   0  0  0  0  0  0  0  0  0  0  0  0
   19.8380    8.0850   32.4157 C   0  0  0  0  0  0  0  0  0  0  0  0
   19.2833    7.2083   32.7047 H   0  0  0  0  0  0  0  0  0  0  0  0
   19.4979    9.3259   32.8835 C   0  0  0  0  0  0  0  0  0  0  0  0
   18.4735    9.4373   33.7713 N   0  0  0  0  0  0  0  0  0  0  0  0
   17.8698    8.6292   33.9104 H   0  0  0  0  0  0  0  0  0  0  0  0
   18.0963   10.3679   33.9356 H   0  0  0  0  0  0  0  0  0  0  0  0
   20.1968   10.4385   32.4773 C   0  0  0  0  0  0  0  0  0  0  0  0
   19.8472   11.7482   32.9187 C   0  0  0  0  0  0  0  0  0  0  0  0
   19.6359   12.8459   33.2445 N   0  0  0  0  0  0  0  0  0  0  0  0
   21.3014   12.4248   30.4347 C   0  0  0  0  0  0  0  0  0  0  0  0
   20.2256   12.3460   30.3533 H   0  0  0  0  0  0  0  0  0  0  0  0
  1  2  1  0
  2  3  2  0
  3  4  1  0
  3  5  1  0
  5  6  1  0
  5  7  2  0
  7  8  1  0
  7  9  1  0
  9 10  1  0
 10 11  2  0
 11 12  1  0
 12 13  1  0
 13 14  1  0
 13 15  1  0
 15 16  2  0
 15 17  1  0
 17 18  1  0
 17 19  1  0
 17 20  1  0
 20 21  2  0
 21 22  1  0
 21 23  1  0
 23 24  1  0
 24 25  1  0
 25 26  1  0
 25 27  1  0
 25 28  1  0
 23 29  2  0
 29 30  1  0
 29 31  1  0
 31 32  1  0
 31 33  2  0
 33 34  1  0
 34 35  1  0
 35 36  1  0
 35 37  1  0
 35 38  1  0
 12 39  2  0
 39 40  1  0
 39 41  1  0
 41 42  1  0
 42 43  1  0
 42 44  1  0
 41 45  2  0
 45 46  1  0
 46 47  3  0
  9 48  2  0
 48 49  1  0
 48  2  1  0
 45 10  1  0
 33 20  1  0
M  END
>  <score>  (326) 
7.68406

$$$$

     RDKit          3D

 50 52  0  0  0  0  0  0  0  0999 V2000
   26.1713    5.4301   30.8453 H   0  0  0  0  0  0  0  0  0  0  0  0
   25.3307    4.7945   31.1018 C   0  0  0  0  0  0  0  0  0  0  0  0
   25.5234    3.6930   31.9439 C   0  0  0  0  0  0  0  0  0  0  0  0
   27.2745    3.3450   32.6384 Br  0  0  0  0  0  0  0  0  0  0  0  0
   24.4442    2.8535   32.2683 C   0  0  0  0  0  0  0  0  0  0  0  0
   24.6712    1.7858   33.1082 O   0  0  0  0  0  0  0  0  0  0  0  0
   23.6792    0.7484   33.1282 C   0  0  0  0  0  0  0  0  0  0  0  0
   24.0387   -0.0919   33.7305 H   0  0  0  0  0  0  0  0  0  0  0  0
   22.7420    1.1078   33.5635 H   0  0  0  0  0  0  0  0  0  0  0  0
   23.4812    0.3830   32.1160 H   0  0  0  0  0  0  0  0  0  0  0  0
   23.1756    3.1462   31.7340 C   0  0  0  0  0  0  0  0  0  0  0  0
   22.3439    2.4938   31.9843 H   0  0  0  0  0  0  0  0  0  0  0  0
   22.9787    4.2613   30.9001 C   0  0  0  0  0  0  0  0  0  0  0  0
   21.5978    4.5865   30.3714 C   0  0  0  0  0  0  0  0  0  0  0  0
   20.9577    3.7028   30.4137 H   0  0  0  0  0  0  0  0  0  0  0  0
   21.6807    4.9034   29.3294 H   0  0  0  0  0  0  0  0  0  0  0  0
   20.9477    5.7297   31.1367 C   0  0  0  0  0  0  0  0  0  0  0  0
   19.7557    5.6883   31.3983 O   0  0  0  0  0  0  0  0  0  0  0  0
   21.6425    6.8838   31.3205 N   0  0  0  0  0  0  0  0  0  0  0  0
   22.5071    6.9951   30.8150 H   0  0  0  0  0  0  0  0  0  0  0  0
   21.0794    8.0463   31.6931 C   0  0  0  0  0  0  0  0  0  0  0  0
   21.8422    9.0493   31.3411 N   0  0  0  0  0  0  0  0  0  0  0  0
   21.4603   10.2646   31.6849 C   0  0  0  0  0  0  0  0  0  0  0  0
   22.3131   11.2840   31.3322 N   0  0  0  0  0  0  0  0  0  0  0  0
   21.7990   12.2375   30.5076 C   0  0  0  0  0  0  0  0  0  0  0  0
   20.6153   12.3518   30.2293 O   0  0  0  0  0  0  0  0  0  0  0  0
   22.9045   13.0813   29.9083 C   0  0  0  0  0  0  0  0  0  0  0  0
   22.7530   14.1402   30.1320 H   0  0  0  0  0  0  0  0  0  0  0  0
   22.9310   12.9419   28.8228 H   0  0  0  0  0  0  0  0  0  0  0  0
   24.1635   12.5295   30.5922 C   0  0  0  0  0  0  0  0  0  0  0  0
   25.0096   12.4791   29.8988 H   0  0  0  0  0  0  0  0  0  0  0  0
   24.4461   13.1801   31.4301 H   0  0  0  0  0  0  0  0  0  0  0  0
   23.7471   11.1437   31.1073 C   0  0  0  0  0  0  0  0  0  0  0  0
   24.2832   10.8791   32.0240 H   0  0  0  0  0  0  0  0  0  0  0  0
   23.9557   10.3804   30.3501 H   0  0  0  0  0  0  0  0  0  0  0  0
   20.3034   10.5092   32.3960 C   0  0  0  0  0  0  0  0  0  0  0  0
   19.9664   11.8240   32.8254 C   0  0  0  0  0  0  0  0  0  0  0  0
   19.7084   12.8856   33.2153 N   0  0  0  0  0  0  0  0  0  0  0  0
   19.5576    9.4292   32.7748 C   0  0  0  0  0  0  0  0  0  0  0  0
   18.5040    9.5299   33.6113 N   0  0  0  0  0  0  0  0  0  0  0  0
   17.9874    8.6822   33.8361 H   0  0  0  0  0  0  0  0  0  0  0  0
   18.1661   10.4505   33.8818 H   0  0  0  0  0  0  0  0  0  0  0  0
   19.9148    8.1763   32.3991 C   0  0  0  0  0  0  0  0  0  0  0  0
   19.3325    7.3282   32.7100 H   0  0  0  0  0  0  0  0  0  0  0  0
   24.0657    5.0967   30.5768 C   0  0  0  0  0  0  0  0  0  0  0  0
   23.8443    6.1874   29.7627 O   0  0  0  0  0  0  0  0  0  0  0  0
   24.9339    7.1065   29.5967 C   0  0  0  0  0  0  0  0  0  0  0  0
   24.6083    7.9584   28.9936 H   0  0  0  0  0  0  0  0  0  0  0  0
   25.7780    6.6288   29.0895 H   0  0  0  0  0  0  0  0  0  0  0  0
   25.2731    7.4814   30.5672 H   0  0  0  0  0  0  0  0  0  0  0  0
  1  2  1  0
  2  3  2  0
  3  4  1  0
  3  5  1  0
  5  6  1  0
  6  7  1  0
  7  8  1  0
  7  9  1  0
  7 10  1  0
  5 11  2  0
 11 12  1  0
 11 13  1  0
 13 14  1  0
 14 15  1  0
 14 16  1  0
 14 17  1  0
 17 18  2  0
 17 19  1  0
 19 20  1  0
 19 21  1  0
 21 22  2  0
 22 23  1  0
 23 24  1  0
 24 25  1  0
 25 26  2  0
 25 27  1  0
 27 28  1  0
 27 29  1  0
 27 30  1  0
 30 31  1  0
 30 32  1  0
 30 33  1  0
 33 34  1  0
 33 35  1  0
 23 36  2  0
 36 37  1  0
 37 38  3  0
 36 39  1  0
 39 40  1  0
 40 41  1  0
 40 42  1  0
 39 43  2  0
 43 44  1  0
 13 45  2  0
 45 46  1  0
 46 47  1  0
 47 48  1  0
 47 49  1  0
 47 50  1  0
 45  2  1  0
 43 21  1  0
 33 24  1  0
M  END
>  <score>  (327) 
7.6845

$$$$

     RDKit          3D

 53 55  0  0  0  0  0  0  0  0999 V2000
   26.1717    5.4248   30.8423 H   0  0  0  0  0  0  0  0  0  0  0  0
   25.3293    4.7936   31.1023 C   0  0  0  0  0  0  0  0  0  0  0  0
   25.5178    3.6907   31.9430 C   0  0  0  0  0  0  0  0  0  0  0  0
   27.2688    3.3421   32.6351 Br  0  0  0  0  0  0  0  0  0  0  0  0
   24.4372    2.8561   32.2679 C   0  0  0  0  0  0  0  0  0  0  0  0
   24.6673    1.7866   33.1039 O   0  0  0  0  0  0  0  0  0  0  0  0
   23.6776    0.7491   33.1264 C   0  0  0  0  0  0  0  0  0  0  0  0
   22.7425    1.1086   33.5667 H   0  0  0  0  0  0  0  0  0  0  0  0
   24.0401   -0.0884   33.7304 H   0  0  0  0  0  0  0  0  0  0  0  0
   23.4825    0.3812   32.1138 H   0  0  0  0  0  0  0  0  0  0  0  0
   23.1698    3.1592   31.7389 C   0  0  0  0  0  0  0  0  0  0  0  0
   22.3392    2.5062   31.9846 H   0  0  0  0  0  0  0  0  0  0  0  0
   22.9747    4.2777   30.9100 C   0  0  0  0  0  0  0  0  0  0  0  0
   21.5910    4.6005   30.3852 C   0  0  0  0  0  0  0  0  0  0  0  0
   20.9579    3.7093   30.4107 H   0  0  0  0  0  0  0  0  0  0  0  0
   21.6697    4.9351   29.3487 H   0  0  0  0  0  0  0  0  0  0  0  0
   20.9213    5.7192   31.1661 C   0  0  0  0  0  0  0  0  0  0  0  0
   19.7297    5.6554   31.4119 O   0  0  0  0  0  0  0  0  0  0  0  0
   21.6023    6.8810   31.3746 N   0  0  0  0  0  0  0  0  0  0  0  0
   22.4588    7.0067   30.8592 H   0  0  0  0  0  0  0  0  0  0  0  0
   21.0403    8.0320   31.7854 C   0  0  0  0  0  0  0  0  0  0  0  0
   21.8075    9.0215   31.4114 N   0  0  0  0  0  0  0  0  0  0  0  0
   21.4099   10.2500   31.7038 C   0  0  0  0  0  0  0  0  0  0  0  0
   22.2195   11.2874   31.2590 N   0  0  0  0  0  0  0  0  0  0  0  0
   21.7380   12.2063   30.1980 C   0  0  0  0  0  0  0  0  0  0  0  0
   21.1454   13.0088   30.6472 H   0  0  0  0  0  0  0  0  0  0  0  0
   21.0927   11.6727   29.4957 H   0  0  0  0  0  0  0  0  0  0  0  0
   22.9073   12.8363   29.3982 C   0  0  0  0  0  0  0  0  0  0  0  0
   22.5295   13.3051   28.4841 H   0  0  0  0  0  0  0  0  0  0  0  0
   23.3633   13.6173   30.0141 H   0  0  0  0  0  0  0  0  0  0  0  0
   23.9490   11.8382   29.0697 N   0  0  0  0  0  0  0  0  0  0  0  0
   23.5718   11.1153   28.4500 H   0  0  0  0  0  0  0  0  0  0  0  0
   24.5782   11.2357   30.2705 C   0  0  0  0  0  0  0  0  0  0  0  0
   24.8793   10.2038   30.0608 H   0  0  0  0  0  0  0  0  0  0  0  0
   25.4896   11.7952   30.5039 H   0  0  0  0  0  0  0  0  0  0  0  0
   23.6759   11.2945   31.5278 C   0  0  0  0  0  0  0  0  0  0  0  0
   23.9444   10.4943   32.2254 H   0  0  0  0  0  0  0  0  0  0  0  0
   23.8954   12.2503   32.0191 H   0  0  0  0  0  0  0  0  0  0  0  0
   20.2717   10.5154   32.4232 C   0  0  0  0  0  0  0  0  0  0  0  0
   19.9604   11.8439   32.8260 C   0  0  0  0  0  0  0  0  0  0  0  0
   19.7492   12.9355   33.1655 N   0  0  0  0  0  0  0  0  0  0  0  0
   19.5107    9.4515   32.8065 C   0  0  0  0  0  0  0  0  0  0  0  0
   18.4338    9.6180   33.6004 N   0  0  0  0  0  0  0  0  0  0  0  0
   17.7102   10.1997   33.1881 H   0  0  0  0  0  0  0  0  0  0  0  0
   18.6994    9.8954   34.5405 H   0  0  0  0  0  0  0  0  0  0  0  0
   19.8672    8.1846   32.4722 C   0  0  0  0  0  0  0  0  0  0  0  0
   19.2419    7.3624   32.7750 H   0  0  0  0  0  0  0  0  0  0  0  0
   24.0653    5.1053   30.5810 C   0  0  0  0  0  0  0  0  0  0  0  0
   23.8486    6.1904   29.7588 O   0  0  0  0  0  0  0  0  0  0  0  0
   24.9356    7.1109   29.5949 C   0  0  0  0  0  0  0  0  0  0  0  0
   24.6076    7.9606   28.9903 H   0  0  0  0  0  0  0  0  0  0  0  0
   25.7800    6.6337   29.0864 H   0  0  0  0  0  0  0  0  0  0  0  0
   25.2663    7.4879   30.5682 H   0  0  0  0  0  0  0  0  0  0  0  0
  1  2  1  0
  2  3  2  0
  3  4  1  0
  3  5  1  0
  5  6  1  0
  6  7  1  0
  7  8  1  0
  7  9  1  0
  7 10  1  0
  5 11  2  0
 11 12  1  0
 11 13  1  0
 13 14  1  0
 14 15  1  0
 14 16  1  0
 14 17  1  0
 17 18  2  0
 17 19  1  0
 19 20  1  0
 19 21  1  0
 21 22  2  0
 22 23  1  0
 23 24  1  0
 24 25  1  0
 25 26  1  0
 25 27  1  0
 25 28  1  0
 28 29  1  0
 28 30  1  0
 28 31  1  0
 31 32  1  0
 31 33  1  0
 33 34  1  0
 33 35  1  0
 33 36  1  0
 36 37  1  0
 36 38  1  0
 23 39  2  0
 39 40  1  0
 40 41  3  0
 39 42  1  0
 42 43  1  0
 43 44  1  0
 43 45  1  0
 42 46  2  0
 46 47  1  0
 13 48  2  0
 48 49  1  0
 49 50  1  0
 50 51  1  0
 50 52  1  0
 50 53  1  0
 48  2  1  0
 46 21  1  0
 36 24  1  0
M  END
>  <score>  (328) 
7.68562

$$$$

     RDKit          3D

 56 58  0  0  0  0  0  0  0  0999 V2000
   21.4385   13.1253   27.0653 H   0  0  0  0  0  0  0  0  0  0  0  0
   21.6333   12.7995   28.0812 C   0  0  0  0  0  0  0  0  0  0  0  0
   20.6992   13.0541   29.0837 C   0  0  0  0  0  0  0  0  0  0  0  0
   19.7936   13.6130   28.8654 H   0  0  0  0  0  0  0  0  0  0  0  0
   20.9592   12.6112   30.3786 C   0  0  0  0  0  0  0  0  0  0  0  0
   20.2716   12.8431   31.1870 H   0  0  0  0  0  0  0  0  0  0  0  0
   22.0947   11.8290   30.6344 C   0  0  0  0  0  0  0  0  0  0  0  0
   22.2761   11.2274   31.9753 C   0  0  0  0  0  0  0  0  0  0  0  0
   23.3090   10.8630   32.0459 H   0  0  0  0  0  0  0  0  0  0  0  0
   22.0778   12.0175   32.6989 H   0  0  0  0  0  0  0  0  0  0  0  0
   21.3560   10.0774   32.2350 C   0  0  0  0  0  0  0  0  0  0  0  0
   21.7456    8.8937   31.7690 N   0  0  0  0  0  0  0  0  0  0  0  0
   20.9182    7.8803   31.8793 C   0  0  0  0  0  0  0  0  0  0  0  0
   21.4181    6.8116   31.2292 N   0  0  0  0  0  0  0  0  0  0  0  0
   22.2691    6.9863   30.7153 H   0  0  0  0  0  0  0  0  0  0  0  0
   20.8469    5.5773   31.1686 C   0  0  0  0  0  0  0  0  0  0  0  0
   19.7774    5.3638   31.7163 O   0  0  0  0  0  0  0  0  0  0  0  0
   21.5375    4.4897   30.3563 C   0  0  0  0  0  0  0  0  0  0  0  0
   20.9559    3.5664   30.4239 H   0  0  0  0  0  0  0  0  0  0  0  0
   21.5705    4.7893   29.3064 H   0  0  0  0  0  0  0  0  0  0  0  0
   22.9387    4.2529   30.8713 C   0  0  0  0  0  0  0  0  0  0  0  0
   23.1554    3.1513   31.7076 C   0  0  0  0  0  0  0  0  0  0  0  0
   22.3295    2.4916   31.9545 H   0  0  0  0  0  0  0  0  0  0  0  0
   24.4216    2.8758   32.2482 C   0  0  0  0  0  0  0  0  0  0  0  0
   24.6476    1.7942   33.0674 O   0  0  0  0  0  0  0  0  0  0  0  0
   23.6216    0.7911   33.0876 C   0  0  0  0  0  0  0  0  0  0  0  0
   23.9464   -0.0576   33.6969 H   0  0  0  0  0  0  0  0  0  0  0  0
   23.4169    0.4319   32.0736 H   0  0  0  0  0  0  0  0  0  0  0  0
   22.6964    1.1922   33.5133 H   0  0  0  0  0  0  0  0  0  0  0  0
   25.4855    3.7397   31.9478 C   0  0  0  0  0  0  0  0  0  0  0  0
   27.2337    3.4382   32.6700 Br  0  0  0  0  0  0  0  0  0  0  0  0
   25.2742    4.8423   31.1139 C   0  0  0  0  0  0  0  0  0  0  0  0
   26.1032    5.5025   30.8823 H   0  0  0  0  0  0  0  0  0  0  0  0
   24.0087    5.1240   30.5712 C   0  0  0  0  0  0  0  0  0  0  0  0
   23.7912    6.2325   29.7793 O   0  0  0  0  0  0  0  0  0  0  0  0
   24.9128    7.1136   29.6042 C   0  0  0  0  0  0  0  0  0  0  0  0
   25.7376    6.5907   29.1094 H   0  0  0  0  0  0  0  0  0  0  0  0
   25.2643    7.4817   30.5735 H   0  0  0  0  0  0  0  0  0  0  0  0
   24.6267    7.9719   28.9898 H   0  0  0  0  0  0  0  0  0  0  0  0
   19.6894    7.9548   32.4843 C   0  0  0  0  0  0  0  0  0  0  0  0
   19.0098    7.1202   32.5456 H   0  0  0  0  0  0  0  0  0  0  0  0
   19.3146    9.1685   32.9685 C   0  0  0  0  0  0  0  0  0  0  0  0
   18.0984    9.2632   33.5351 N   0  0  0  0  0  0  0  0  0  0  0  0
   17.9626   10.1016   34.0896 H   0  0  0  0  0  0  0  0  0  0  0  0
   17.7530    8.3867   33.9157 H   0  0  0  0  0  0  0  0  0  0  0  0
   20.1375   10.2589   32.8685 C   0  0  0  0  0  0  0  0  0  0  0  0
   19.7373   11.5551   33.3107 C   0  0  0  0  0  0  0  0  0  0  0  0
   19.4589   12.6414   33.6174 N   0  0  0  0  0  0  0  0  0  0  0  0
   23.0665   11.5986   29.6533 C   0  0  0  0  0  0  0  0  0  0  0  0
   24.2186   10.8958   29.9605 O   0  0  0  0  0  0  0  0  0  0  0  0
   25.1229   10.6475   28.8708 C   0  0  0  0  0  0  0  0  0  0  0  0
   25.3915   11.5805   28.3646 H   0  0  0  0  0  0  0  0  0  0  0  0
   26.0399   10.1873   29.2418 H   0  0  0  0  0  0  0  0  0  0  0  0
   24.6791    9.9638   28.1410 H   0  0  0  0  0  0  0  0  0  0  0  0
   22.8376   12.1454   28.3971 C   0  0  0  0  0  0  0  0  0  0  0  0
   23.6361   12.0346   27.6784 H   0  0  0  0  0  0  0  0  0  0  0  0
  1  2  1  0
  2  3  2  0
  3  4  1  0
  3  5  1  0
  5  6  1  0
  5  7  2  0
  7  8  1  0
  8  9  1  0
  8 10  1  0
  8 11  1  0
 11 12  2  0
 12 13  1  0
 13 14  1  0
 14 15  1  0
 14 16  1  0
 16 17  2  0
 16 18  1  0
 18 19  1  0
 18 20  1  0
 18 21  1  0
 21 22  2  0
 22 23  1  0
 22 24  1  0
 24 25  1  0
 25 26  1  0
 26 27  1  0
 26 28  1  0
 26 29  1  0
 24 30  2  0
 30 31  1  0
 30 32  1  0
 32 33  1  0
 32 34  2  0
 34 35  1  0
 35 36  1  0
 36 37  1  0
 36 38  1  0
 36 39  1  0
 13 40  2  0
 40 41  1  0
 40 42  1  0
 42 43  1  0
 43 44  1  0
 43 45  1  0
 42 46  2  0
 46 47  1  0
 47 48  3  0
  7 49  1  0
 49 50  1  0
 50 51  1  0
 51 52  1  0
 51 53  1  0
 51 54  1  0
 49 55  2  0
 55 56  1  0
 55  2  1  0
 46 11  1  0
 34 21  1  0
M  END
>  <score>  (329) 
7.68711

$$$$

     RDKit          3D

 55 57  0  0  0  0  0  0  0  0999 V2000
   25.4527   12.7144   28.4191 H   0  0  0  0  0  0  0  0  0  0  0  0
   25.1159   11.9415   29.1022 C   0  0  0  0  0  0  0  0  0  0  0  0
   23.8806   12.0470   29.7604 C   0  0  0  0  0  0  0  0  0  0  0  0
   23.2403   12.9056   29.5922 H   0  0  0  0  0  0  0  0  0  0  0  0
   23.4590   11.0560   30.6435 C   0  0  0  0  0  0  0  0  0  0  0  0
   22.2056   11.1905   31.2450 N   0  0  0  0  0  0  0  0  0  0  0  0
   21.6967   12.0436   31.0615 H   0  0  0  0  0  0  0  0  0  0  0  0
   21.4453   10.1396   31.7055 C   0  0  0  0  0  0  0  0  0  0  0  0
   21.8300    8.9311   31.3419 N   0  0  0  0  0  0  0  0  0  0  0  0
   21.1303    7.9201   31.7693 C   0  0  0  0  0  0  0  0  0  0  0  0
   21.6394    6.7920   31.2688 N   0  0  0  0  0  0  0  0  0  0  0  0
   22.4692    6.9422   30.7124 H   0  0  0  0  0  0  0  0  0  0  0  0
   20.9291    5.6376   31.1082 C   0  0  0  0  0  0  0  0  0  0  0  0
   19.7814    5.5537   31.5132 O   0  0  0  0  0  0  0  0  0  0  0  0
   21.5633    4.4763   30.3592 C   0  0  0  0  0  0  0  0  0  0  0  0
   21.5903    4.7103   29.2945 H   0  0  0  0  0  0  0  0  0  0  0  0
   20.9545    3.5799   30.4987 H   0  0  0  0  0  0  0  0  0  0  0  0
   22.9602    4.2246   30.8659 C   0  0  0  0  0  0  0  0  0  0  0  0
   23.1774    3.1201   31.6945 C   0  0  0  0  0  0  0  0  0  0  0  0
   22.3557    2.4524   31.9326 H   0  0  0  0  0  0  0  0  0  0  0  0
   24.4398    2.8555   32.2471 C   0  0  0  0  0  0  0  0  0  0  0  0
   24.6650    1.7704   33.0620 O   0  0  0  0  0  0  0  0  0  0  0  0
   23.6223    0.7852   33.0864 C   0  0  0  0  0  0  0  0  0  0  0  0
   23.9323   -0.0665   33.6983 H   0  0  0  0  0  0  0  0  0  0  0  0
   22.7057    1.2076   33.5109 H   0  0  0  0  0  0  0  0  0  0  0  0
   23.4080    0.4284   32.0727 H   0  0  0  0  0  0  0  0  0  0  0  0
   25.4970    3.7340   31.9624 C   0  0  0  0  0  0  0  0  0  0  0  0
   27.2450    3.4389   32.6870 Br  0  0  0  0  0  0  0  0  0  0  0  0
   25.2847    4.8368   31.1292 C   0  0  0  0  0  0  0  0  0  0  0  0
   26.1054    5.5121   30.9097 H   0  0  0  0  0  0  0  0  0  0  0  0
   24.0244    5.1008   30.5725 C   0  0  0  0  0  0  0  0  0  0  0  0
   23.8041    6.2096   29.7844 O   0  0  0  0  0  0  0  0  0  0  0  0
   24.9261    7.0906   29.6149 C   0  0  0  0  0  0  0  0  0  0  0  0
   25.7333    6.5828   29.0765 H   0  0  0  0  0  0  0  0  0  0  0  0
   24.6322    7.9777   29.0457 H   0  0  0  0  0  0  0  0  0  0  0  0
   25.3051    7.4115   30.5909 H   0  0  0  0  0  0  0  0  0  0  0  0
   20.0375    8.0188   32.5777 C   0  0  0  0  0  0  0  0  0  0  0  0
   19.5264    7.1446   32.9407 H   0  0  0  0  0  0  0  0  0  0  0  0
   19.6382    9.2706   32.9222 C   0  0  0  0  0  0  0  0  0  0  0  0
   18.5432    9.3560   33.7117 N   0  0  0  0  0  0  0  0  0  0  0  0
   17.9839   10.1886   33.5493 H   0  0  0  0  0  0  0  0  0  0  0  0
   18.0434    8.4733   33.8194 H   0  0  0  0  0  0  0  0  0  0  0  0
   20.3198   10.3738   32.4724 C   0  0  0  0  0  0  0  0  0  0  0  0
   19.9279   11.6942   32.8370 C   0  0  0  0  0  0  0  0  0  0  0  0
   19.6282   12.7803   33.1240 N   0  0  0  0  0  0  0  0  0  0  0  0
   24.3048    9.9668   30.8967 C   0  0  0  0  0  0  0  0  0  0  0  0
   23.9927    9.2097   31.6073 H   0  0  0  0  0  0  0  0  0  0  0  0
   25.5453    9.8650   30.2373 C   0  0  0  0  0  0  0  0  0  0  0  0
   26.2087    9.0294   30.4149 H   0  0  0  0  0  0  0  0  0  0  0  0
   25.9593   10.8537   29.3350 C   0  0  0  0  0  0  0  0  0  0  0  0
   27.1635   10.8387   28.6772 O   0  0  0  0  0  0  0  0  0  0  0  0
   28.2087   10.0199   29.2185 C   0  0  0  0  0  0  0  0  0  0  0  0
   28.3498   10.2130   30.2826 H   0  0  0  0  0  0  0  0  0  0  0  0
   29.1465   10.2512   28.7127 H   0  0  0  0  0  0  0  0  0  0  0  0
   28.0000    8.9597   29.0665 H   0  0  0  0  0  0  0  0  0  0  0  0
  1  2  1  0
  2  3  2  0
  3  4  1  0
  3  5  1  0
  5  6  1  0
  6  7  1  0
  6  8  1  0
  8  9  2  0
  9 10  1  0
 10 11  1  0
 11 12  1  0
 11 13  1  0
 13 14  2  0
 13 15  1  0
 15 16  1  0
 15 17  1  0
 15 18  1  0
 18 19  2  0
 19 20  1  0
 19 21  1  0
 21 22  1  0
 22 23  1  0
 23 24  1  0
 23 25  1  0
 23 26  1  0
 21 27  2  0
 27 28  1  0
 27 29  1  0
 29 30  1  0
 29 31  2  0
 31 32  1  0
 32 33  1  0
 33 34  1  0
 33 35  1  0
 33 36  1  0
 10 37  2  0
 37 38  1  0
 37 39  1  0
 39 40  1  0
 40 41  1  0
 40 42  1  0
 39 43  2  0
 43 44  1  0
 44 45  3  0
  5 46  2  0
 46 47  1  0
 46 48  1  0
 48 49  1  0
 48 50  2  0
 50 51  1  0
 51 52  1  0
 52 53  1  0
 52 54  1  0
 52 55  1  0
 50  2  1  0
 43  8  1  0
 31 18  1  0
M  END
>  <score>  (330) 
7.68935

$$$$

     RDKit          3D

 52 53  0  0  0  0  0  0  0  0999 V2000
   26.1876    5.4105   30.8445 H   0  0  0  0  0  0  0  0  0  0  0  0
   25.3396    4.7808   31.0960 C   0  0  0  0  0  0  0  0  0  0  0  0
   25.5214    3.6776   31.9438 C   0  0  0  0  0  0  0  0  0  0  0  0
   27.2684    3.2939   32.6339 Br  0  0  0  0  0  0  0  0  0  0  0  0
   24.4358    2.8472   32.2708 C   0  0  0  0  0  0  0  0  0  0  0  0
   24.6595    1.7865   33.1226 O   0  0  0  0  0  0  0  0  0  0  0  0
   23.6911    0.7292   33.1445 C   0  0  0  0  0  0  0  0  0  0  0  0
   22.7507    1.0678   33.5875 H   0  0  0  0  0  0  0  0  0  0  0  0
   24.0787   -0.0982   33.7472 H   0  0  0  0  0  0  0  0  0  0  0  0
   23.4988    0.3569   32.1342 H   0  0  0  0  0  0  0  0  0  0  0  0
   23.1724    3.1442   31.7272 C   0  0  0  0  0  0  0  0  0  0  0  0
   22.3376    2.4981   31.9787 H   0  0  0  0  0  0  0  0  0  0  0  0
   22.9812    4.2491   30.8749 C   0  0  0  0  0  0  0  0  0  0  0  0
   21.6029    4.5240   30.2968 C   0  0  0  0  0  0  0  0  0  0  0  0
   21.7226    4.8492   29.2620 H   0  0  0  0  0  0  0  0  0  0  0  0
   21.0126    3.6061   30.2858 H   0  0  0  0  0  0  0  0  0  0  0  0
   20.8582    5.6319   31.0444 C   0  0  0  0  0  0  0  0  0  0  0  0
   19.7894    5.4348   31.6070 O   0  0  0  0  0  0  0  0  0  0  0  0
   21.3691    6.8908   31.0004 N   0  0  0  0  0  0  0  0  0  0  0  0
   22.2091    7.0760   30.4708 H   0  0  0  0  0  0  0  0  0  0  0  0
   20.8846    7.9823   31.6119 C   0  0  0  0  0  0  0  0  0  0  0  0
   21.6449    8.9926   31.2472 N   0  0  0  0  0  0  0  0  0  0  0  0
   21.4146   10.2531   31.6809 C   0  0  0  0  0  0  0  0  0  0  0  0
   22.3281   11.3898   31.1967 C   0  0  0  0  0  0  0  0  0  0  0  0
   22.3999   12.4671   31.7949 O   0  0  0  0  0  0  0  0  0  0  0  0
   23.1238   11.2481   30.0585 N   0  0  0  0  0  0  0  0  0  0  0  0
   22.9772   10.4158   29.4886 H   0  0  0  0  0  0  0  0  0  0  0  0
   24.0356   12.2684   29.5642 C   0  0  0  0  0  0  0  0  0  0  0  0
   24.6920   12.6191   30.3693 H   0  0  0  0  0  0  0  0  0  0  0  0
   24.6657   11.8313   28.7863 H   0  0  0  0  0  0  0  0  0  0  0  0
   23.2540   13.4447   28.9894 C   0  0  0  0  0  0  0  0  0  0  0  0
   22.6207   13.8803   29.7695 H   0  0  0  0  0  0  0  0  0  0  0  0
   22.6031   13.0985   28.1795 H   0  0  0  0  0  0  0  0  0  0  0  0
   24.2241   14.5014   28.4522 C   0  0  0  0  0  0  0  0  0  0  0  0
   24.8877   14.8519   29.2492 H   0  0  0  0  0  0  0  0  0  0  0  0
   23.6717   15.3582   28.0524 H   0  0  0  0  0  0  0  0  0  0  0  0
   24.8422   14.0824   27.6515 H   0  0  0  0  0  0  0  0  0  0  0  0
   20.3050   10.4510   32.5187 C   0  0  0  0  0  0  0  0  0  0  0  0
   19.9439   11.7730   32.9195 C   0  0  0  0  0  0  0  0  0  0  0  0
   19.6815   12.8716   33.1984 N   0  0  0  0  0  0  0  0  0  0  0  0
   19.5431    9.3536   32.8940 C   0  0  0  0  0  0  0  0  0  0  0  0
   18.4519    9.4902   33.6695 N   0  0  0  0  0  0  0  0  0  0  0  0
   17.9215    8.6590   33.9044 H   0  0  0  0  0  0  0  0  0  0  0  0
   18.1490   10.4160   33.9577 H   0  0  0  0  0  0  0  0  0  0  0  0
   19.8215    8.0876   32.4664 C   0  0  0  0  0  0  0  0  0  0  0  0
   19.2183    7.2464   32.7832 H   0  0  0  0  0  0  0  0  0  0  0  0
   24.0764    5.0864   30.5611 C   0  0  0  0  0  0  0  0  0  0  0  0
   23.8626    6.1770   29.7428 O   0  0  0  0  0  0  0  0  0  0  0  0
   24.9306    7.1230   29.5821 C   0  0  0  0  0  0  0  0  0  0  0  0
   24.5786    7.9677   28.9811 H   0  0  0  0  0  0  0  0  0  0  0  0
   25.7831    6.6676   29.0710 H   0  0  0  0  0  0  0  0  0  0  0  0
   25.2608    7.5049   30.5519 H   0  0  0  0  0  0  0  0  0  0  0  0
  1  2  1  0
  2  3  2  0
  3  4  1  0
  3  5  1  0
  5  6  1  0
  6  7  1  0
  7  8  1  0
  7  9  1  0
  7 10  1  0
  5 11  2  0
 11 12  1  0
 11 13  1  0
 13 14  1  0
 14 15  1  0
 14 16  1  0
 14 17  1  0
 17 18  2  0
 17 19  1  0
 19 20  1  0
 19 21  1  0
 21 22  2  0
 22 23  1  0
 23 24  1  0
 24 25  2  0
 24 26  1  0
 26 27  1  0
 26 28  1  0
 28 29  1  0
 28 30  1  0
 28 31  1  0
 31 32  1  0
 31 33  1  0
 31 34  1  0
 34 35  1  0
 34 36  1  0
 34 37  1  0
 23 38  2  0
 38 39  1  0
 39 40  3  0
 38 41  1  0
 41 42  1  0
 42 43  1  0
 42 44  1  0
 41 45  2  0
 45 46  1  0
 13 47  2  0
 47 48  1  0
 48 49  1  0
 49 50  1  0
 49 51  1  0
 49 52  1  0
 47  2  1  0
 45 21  1  0
M  END
>  <score>  (331) 
7.69212

$$$$

     RDKit          3D

 54 56  0  0  0  0  0  0  0  0999 V2000
   26.0909    5.5136   30.8911 H   0  0  0  0  0  0  0  0  0  0  0  0
   25.2569    4.8656   31.1376 C   0  0  0  0  0  0  0  0  0  0  0  0
   25.4712    3.7533   31.9524 C   0  0  0  0  0  0  0  0  0  0  0  0
   27.2315    3.4336   32.6366 Br  0  0  0  0  0  0  0  0  0  0  0  0
   24.4061    2.8919   32.2554 C   0  0  0  0  0  0  0  0  0  0  0  0
   24.6497    1.7873   33.0383 O   0  0  0  0  0  0  0  0  0  0  0  0
   23.6131    0.7975   33.0726 C   0  0  0  0  0  0  0  0  0  0  0  0
   23.9307   -0.0505   33.6870 H   0  0  0  0  0  0  0  0  0  0  0  0
   23.3967    0.4336   32.0622 H   0  0  0  0  0  0  0  0  0  0  0  0
   22.6985    1.2178   33.5021 H   0  0  0  0  0  0  0  0  0  0  0  0
   23.1282    3.1929   31.7501 C   0  0  0  0  0  0  0  0  0  0  0  0
   22.3043    2.5298   31.9959 H   0  0  0  0  0  0  0  0  0  0  0  0
   22.9063    4.3199   30.9438 C   0  0  0  0  0  0  0  0  0  0  0  0
   21.5062    4.6071   30.4436 C   0  0  0  0  0  0  0  0  0  0  0  0
   20.8641    3.7356   30.6012 H   0  0  0  0  0  0  0  0  0  0  0  0
   21.5347    4.8188   29.3725 H   0  0  0  0  0  0  0  0  0  0  0  0
   20.8901    5.7979   31.1605 C   0  0  0  0  0  0  0  0  0  0  0  0
   19.7655    5.7063   31.6230 O   0  0  0  0  0  0  0  0  0  0  0  0
   21.5713    6.9769   31.2262 N   0  0  0  0  0  0  0  0  0  0  0  0
   22.4187    7.0991   30.6969 H   0  0  0  0  0  0  0  0  0  0  0  0
   21.0892    8.1063   31.7470 C   0  0  0  0  0  0  0  0  0  0  0  0
   21.8232    9.1137   31.3733 N   0  0  0  0  0  0  0  0  0  0  0  0
   21.4468   10.3238   31.7734 C   0  0  0  0  0  0  0  0  0  0  0  0
   22.1802   11.4054   31.3650 O   0  0  0  0  0  0  0  0  0  0  0  0
   23.3146   11.1498   30.5083 C   0  0  0  0  0  0  0  0  0  0  0  0
   22.9817   10.6709   29.5830 H   0  0  0  0  0  0  0  0  0  0  0  0
   24.0047   10.4601   31.0024 H   0  0  0  0  0  0  0  0  0  0  0  0
   24.0334   12.4661   30.1774 C   0  0  1  0  0  0  0  0  0  0  0  0
   24.3170   12.9424   31.1224 H   0  0  0  0  0  0  0  0  0  0  0  0
   25.2133   12.2468   29.3808 O   0  0  0  0  0  0  0  0  0  0  0  0
   25.2216   13.1341   28.2521 C   0  0  0  0  0  0  0  0  0  0  0  0
   26.1648   13.6838   28.1742 H   0  0  0  0  0  0  0  0  0  0  0  0
   25.0848   12.5596   27.3323 H   0  0  0  0  0  0  0  0  0  0  0  0
   24.0685   14.1079   28.4365 C   0  0  0  0  0  0  0  0  0  0  0  0
   23.5814   14.3599   27.4896 H   0  0  0  0  0  0  0  0  0  0  0  0
   24.4341   15.0306   28.8929 H   0  0  0  0  0  0  0  0  0  0  0  0
   23.1224   13.3955   29.3785 C   0  0  0  0  0  0  0  0  0  0  0  0
   22.3866   12.8117   28.8092 H   0  0  0  0  0  0  0  0  0  0  0  0
   22.5921   14.0944   30.0380 H   0  0  0  0  0  0  0  0  0  0  0  0
   20.3473   10.5238   32.5838 C   0  0  0  0  0  0  0  0  0  0  0  0
   19.9980   11.8452   32.9820 C   0  0  0  0  0  0  0  0  0  0  0  0
   19.7934   12.9552   33.2549 N   0  0  0  0  0  0  0  0  0  0  0  0
   19.6280    9.4290   32.9552 C   0  0  0  0  0  0  0  0  0  0  0  0
   18.5218    9.4967   33.7168 N   0  0  0  0  0  0  0  0  0  0  0  0
   18.1147   10.4171   33.8611 H   0  0  0  0  0  0  0  0  0  0  0  0
   17.8997    8.6990   33.6232 H   0  0  0  0  0  0  0  0  0  0  0  0
   19.9788    8.1982   32.5257 C   0  0  0  0  0  0  0  0  0  0  0  0
   19.4063    7.3318   32.7981 H   0  0  0  0  0  0  0  0  0  0  0  0
   23.9864    5.1712   30.6280 C   0  0  0  0  0  0  0  0  0  0  0  0
   23.7794    6.2874   29.8466 O   0  0  0  0  0  0  0  0  0  0  0  0
   24.9328    7.1152   29.6236 C   0  0  0  0  0  0  0  0  0  0  0  0
   25.7209    6.5445   29.1212 H   0  0  0  0  0  0  0  0  0  0  0  0
   24.6714    7.9727   28.9973 H   0  0  0  0  0  0  0  0  0  0  0  0
   25.3243    7.4854   30.5771 H   0  0  0  0  0  0  0  0  0  0  0  0
  1  2  1  0
  2  3  2  0
  3  4  1  0
  3  5  1  0
  5  6  1  0
  6  7  1  0
  7  8  1  0
  7  9  1  0
  7 10  1  0
  5 11  2  0
 11 12  1  0
 11 13  1  0
 13 14  1  0
 14 15  1  0
 14 16  1  0
 14 17  1  0
 17 18  2  0
 17 19  1  0
 19 20  1  0
 19 21  1  0
 21 22  2  0
 22 23  1  0
 23 24  1  0
 24 25  1  0
 25 26  1  0
 25 27  1  0
 25 28  1  0
 28 29  1  1
 28 30  1  0
 30 31  1  0
 31 32  1  0
 31 33  1  0
 31 34  1  0
 34 35  1  0
 34 36  1  0
 34 37  1  0
 37 38  1  0
 37 39  1  0
 23 40  2  0
 40 41  1  0
 41 42  3  0
 40 43  1  0
 43 44  1  0
 44 45  1  0
 44 46  1  0
 43 47  2  0
 47 48  1  0
 13 49  2  0
 49 50  1  0
 50 51  1  0
 51 52  1  0
 51 53  1  0
 51 54  1  0
 49  2  1  0
 47 21  1  0
 37 28  1  0
M  END
>  <score>  (332) 
7.69267

$$$$

     RDKit          3D

 49 50  0  0  0  0  0  0  0  0999 V2000
   26.1064    5.5104   30.9138 H   0  0  0  0  0  0  0  0  0  0  0  0
   25.2867    4.8350   31.1346 C   0  0  0  0  0  0  0  0  0  0  0  0
   25.5057    3.7276   31.9582 C   0  0  0  0  0  0  0  0  0  0  0  0
   27.2532    3.4563   32.6885 Br  0  0  0  0  0  0  0  0  0  0  0  0
   24.4514    2.8464   32.2453 C   0  0  0  0  0  0  0  0  0  0  0  0
   24.6783    1.7606   33.0595 O   0  0  0  0  0  0  0  0  0  0  0  0
   23.6285    0.7806   33.0890 C   0  0  0  0  0  0  0  0  0  0  0  0
   23.4126    0.4227   32.0751 H   0  0  0  0  0  0  0  0  0  0  0  0
   22.7130    1.2080   33.5142 H   0  0  0  0  0  0  0  0  0  0  0  0
   23.9315   -0.0728   33.7028 H   0  0  0  0  0  0  0  0  0  0  0  0
   23.1881    3.1083   31.6913 C   0  0  0  0  0  0  0  0  0  0  0  0
   22.3676    2.4386   31.9295 H   0  0  0  0  0  0  0  0  0  0  0  0
   22.9666    4.2131   30.8631 C   0  0  0  0  0  0  0  0  0  0  0  0
   21.5708    4.4527   30.3452 C   0  0  0  0  0  0  0  0  0  0  0  0
   21.6025    4.6632   29.2717 H   0  0  0  0  0  0  0  0  0  0  0  0
   20.9649    3.5548   30.4858 H   0  0  0  0  0  0  0  0  0  0  0  0
   20.9194    5.6118   31.0930 C   0  0  0  0  0  0  0  0  0  0  0  0
   19.7748    5.5074   31.5035 O   0  0  0  0  0  0  0  0  0  0  0  0
   21.5745    6.8078   31.1696 N   0  0  0  0  0  0  0  0  0  0  0  0
   22.4885    6.8929   30.7520 H   0  0  0  0  0  0  0  0  0  0  0  0
   21.0225    7.9615   31.5992 C   0  0  0  0  0  0  0  0  0  0  0  0
   21.7474    9.0105   31.2590 N   0  0  0  0  0  0  0  0  0  0  0  0
   21.3944   10.2570   31.6690 C   0  0  0  0  0  0  0  0  0  0  0  0
   22.2232   11.4605   31.2263 C   0  0  0  0  0  0  0  0  0  0  0  0
   22.3182   12.4666   31.9381 O   0  0  0  0  0  0  0  0  0  0  0  0
   22.8680   11.4971   29.9804 N   0  0  0  0  0  0  0  0  0  0  0  0
   23.8764   12.5194   29.6965 C   0  0  0  0  0  0  0  0  0  0  0  0
   24.1592   12.5043   28.6393 H   0  0  0  0  0  0  0  0  0  0  0  0
   24.7752   12.3401   30.2977 H   0  0  0  0  0  0  0  0  0  0  0  0
   23.4941   13.5170   29.9353 H   0  0  0  0  0  0  0  0  0  0  0  0
   22.4836   10.5457   28.9353 C   0  0  0  0  0  0  0  0  0  0  0  0
   22.8746   10.8584   27.9621 H   0  0  0  0  0  0  0  0  0  0  0  0
   22.8632    9.5441   29.1611 H   0  0  0  0  0  0  0  0  0  0  0  0
   21.3934   10.4972   28.8502 H   0  0  0  0  0  0  0  0  0  0  0  0
   20.2413   10.3961   32.4667 C   0  0  0  0  0  0  0  0  0  0  0  0
   19.7652   11.6573   32.9428 C   0  0  0  0  0  0  0  0  0  0  0  0
   19.3416   12.6628   33.3409 N   0  0  0  0  0  0  0  0  0  0  0  0
   19.4981    9.2739   32.7660 C   0  0  0  0  0  0  0  0  0  0  0  0
   18.3635    9.3342   33.5109 N   0  0  0  0  0  0  0  0  0  0  0  0
   18.2703   10.1568   34.1053 H   0  0  0  0  0  0  0  0  0  0  0  0
   18.0066    8.4479   33.8623 H   0  0  0  0  0  0  0  0  0  0  0  0
   19.8802    8.0482   32.3352 C   0  0  0  0  0  0  0  0  0  0  0  0
   19.2974    7.1828   32.5918 H   0  0  0  0  0  0  0  0  0  0  0  0
   24.0244    5.1000   30.5829 C   0  0  0  0  0  0  0  0  0  0  0  0
   23.7924    6.2168   29.8103 O   0  0  0  0  0  0  0  0  0  0  0  0
   24.9220    7.0839   29.6177 C   0  0  0  0  0  0  0  0  0  0  0  0
   25.2869    7.4510   30.5837 H   0  0  0  0  0  0  0  0  0  0  0  0
   24.6428    7.9431   28.9998 H   0  0  0  0  0  0  0  0  0  0  0  0
   25.7360    6.5453   29.1190 H   0  0  0  0  0  0  0  0  0  0  0  0
  1  2  1  0
  2  3  2  0
  3  4  1  0
  3  5  1  0
  5  6  1  0
  6  7  1  0
  7  8  1  0
  7  9  1  0
  7 10  1  0
  5 11  2  0
 11 12  1  0
 11 13  1  0
 13 14  1  0
 14 15  1  0
 14 16  1  0
 14 17  1  0
 17 18  2  0
 17 19  1  0
 19 20  1  0
 19 21  1  0
 21 22  2  0
 22 23  1  0
 23 24  1  0
 24 25  2  0
 24 26  1  0
 26 27  1  0
 27 28  1  0
 27 29  1  0
 27 30  1  0
 26 31  1  0
 31 32  1  0
 31 33  1  0
 31 34  1  0
 23 35  2  0
 35 36  1  0
 36 37  3  0
 35 38  1  0
 38 39  1  0
 39 40  1  0
 39 41  1  0
 38 42  2  0
 42 43  1  0
 13 44  2  0
 44 45  1  0
 45 46  1  0
 46 47  1  0
 46 48  1  0
 46 49  1  0
 44  2  1  0
 42 21  1  0
M  END
>  <score>  (333) 
7.69285

$$$$

     RDKit          3D

 51 53  0  0  0  0  0  0  0  0999 V2000
   23.0292   10.5936   29.7156 H   0  0  0  0  0  0  0  0  0  0  0  0
   22.9180   11.4267   30.3985 C   0  0  0  0  0  0  0  0  0  0  0  0
   21.9505   11.3855   31.4181 C   0  0  0  0  0  0  0  0  0  0  0  0
   21.0775   10.1770   31.6474 C   0  0  0  0  0  0  0  0  0  0  0  0
   21.3962    8.9875   31.0810 N   0  0  0  0  0  0  0  0  0  0  0  0
   20.6958    7.9083   31.3919 C   0  0  0  0  0  0  0  0  0  0  0  0
   21.1719    6.7962   30.7845 N   0  0  0  0  0  0  0  0  0  0  0  0
   22.0236    6.9279   30.2587 H   0  0  0  0  0  0  0  0  0  0  0  0
   20.7091    5.5259   30.9828 C   0  0  0  0  0  0  0  0  0  0  0  0
   19.6848    5.3356   31.6218 O   0  0  0  0  0  0  0  0  0  0  0  0
   21.4468    4.3609   30.3331 C   0  0  0  0  0  0  0  0  0  0  0  0
   20.8618    3.4477   30.4838 H   0  0  0  0  0  0  0  0  0  0  0  0
   21.5176    4.5361   29.2552 H   0  0  0  0  0  0  0  0  0  0  0  0
   22.8341    4.1939   30.9189 C   0  0  0  0  0  0  0  0  0  0  0  0
   23.0855    3.0585   31.6965 C   0  0  0  0  0  0  0  0  0  0  0  0
   22.2955    2.3316   31.8630 H   0  0  0  0  0  0  0  0  0  0  0  0
   24.3437    2.8214   32.2657 C   0  0  0  0  0  0  0  0  0  0  0  0
   24.5921    1.7021   33.0260 O   0  0  0  0  0  0  0  0  0  0  0  0
   23.5322    0.7351   33.0969 C   0  0  0  0  0  0  0  0  0  0  0  0
   22.6352    1.1806   33.5385 H   0  0  0  0  0  0  0  0  0  0  0  0
   23.2852    0.3645   32.0966 H   0  0  0  0  0  0  0  0  0  0  0  0
   23.8374   -0.1137   33.7159 H   0  0  0  0  0  0  0  0  0  0  0  0
   25.3645    3.7628   32.0572 C   0  0  0  0  0  0  0  0  0  0  0  0
   27.1012    3.5244   32.8259 Br  0  0  0  0  0  0  0  0  0  0  0  0
   25.1188    4.8989   31.2756 C   0  0  0  0  0  0  0  0  0  0  0  0
   25.9130    5.6166   31.1124 H   0  0  0  0  0  0  0  0  0  0  0  0
   23.8608    5.1350   30.6956 C   0  0  0  0  0  0  0  0  0  0  0  0
   23.5935    6.2474   29.9249 O   0  0  0  0  0  0  0  0  0  0  0  0
   24.7151    7.0837   29.6058 C   0  0  0  0  0  0  0  0  0  0  0  0
   25.4822    6.5152   29.0692 H   0  0  0  0  0  0  0  0  0  0  0  0
   25.1577    7.5020   30.5156 H   0  0  0  0  0  0  0  0  0  0  0  0
   24.3894    7.9094   28.9678 H   0  0  0  0  0  0  0  0  0  0  0  0
   19.6470    7.9233   32.2765 C   0  0  0  0  0  0  0  0  0  0  0  0
   19.1344    7.0239   32.5683 H   0  0  0  0  0  0  0  0  0  0  0  0
   19.2788    9.1193   32.8089 C   0  0  0  0  0  0  0  0  0  0  0  0
   18.2735    9.1147   33.7136 N   0  0  0  0  0  0  0  0  0  0  0  0
   17.7209    9.9684   33.8048 H   0  0  0  0  0  0  0  0  0  0  0  0
   17.8406    8.2139   33.9160 H   0  0  0  0  0  0  0  0  0  0  0  0
   19.9596   10.2698   32.4977 C   0  0  0  0  0  0  0  0  0  0  0  0
   19.5533   11.5228   33.0538 C   0  0  0  0  0  0  0  0  0  0  0  0
   19.2593   12.5713   33.4696 N   0  0  0  0  0  0  0  0  0  0  0  0
   21.8126   12.4478   32.2479 N   0  0  0  0  0  0  0  0  0  0  0  0
   22.5698   13.5590   32.1407 C   0  0  0  0  0  0  0  0  0  0  0  0
   22.3951   14.6901   33.1683 C   0  0  0  0  0  0  0  0  0  0  0  0
   21.6653   14.2844   34.2430 F   0  0  0  0  0  0  0  0  0  0  0  0
   23.5969   15.1044   33.6555 F   0  0  0  0  0  0  0  0  0  0  0  0
   21.7534   15.7586   32.6205 F   0  0  0  0  0  0  0  0  0  0  0  0
   23.5198   13.6241   31.0983 C   0  0  0  0  0  0  0  0  0  0  0  0
   24.1358   14.4877   30.9330 H   0  0  0  0  0  0  0  0  0  0  0  0
   23.7101   12.5557   30.2307 C   0  0  0  0  0  0  0  0  0  0  0  0
   24.4500   12.6111   29.4316 H   0  0  0  0  0  0  0  0  0  0  0  0
  1  2  1  0
  2  3  2  0
  3  4  1  0
  4  5  2  0
  5  6  1  0
  6  7  1  0
  7  8  1  0
  7  9  1  0
  9 10  2  0
  9 11  1  0
 11 12  1  0
 11 13  1  0
 11 14  1  0
 14 15  2  0
 15 16  1  0
 15 17  1  0
 17 18  1  0
 18 19  1  0
 19 20  1  0
 19 21  1  0
 19 22  1  0
 17 23  2  0
 23 24  1  0
 23 25  1  0
 25 26  1  0
 25 27  2  0
 27 28  1  0
 28 29  1  0
 29 30  1  0
 29 31  1  0
 29 32  1  0
  6 33  2  0
 33 34  1  0
 33 35  1  0
 35 36  1  0
 36 37  1  0
 36 38  1  0
 35 39  2  0
 39 40  1  0
 40 41  3  0
  3 42  1  0
 42 43  2  0
 43 44  1  0
 44 45  1  0
 44 46  1  0
 44 47  1  0
 43 48  1  0
 48 49  1  0
 48 50  2  0
 50 51  1  0
 50  2  1  0
 39  4  1  0
 27 14  1  0
M  END
>  <score>  (334) 
7.69294

$$$$

     RDKit          3D

 55 57  0  0  0  0  0  0  0  0999 V2000
   26.0566    5.5435   30.9322 H   0  0  0  0  0  0  0  0  0  0  0  0
   25.2422    4.8598   31.1481 C   0  0  0  0  0  0  0  0  0  0  0  0
   25.4715    3.7505   31.9651 C   0  0  0  0  0  0  0  0  0  0  0  0
   27.2239    3.4853   32.6882 Br  0  0  0  0  0  0  0  0  0  0  0  0
   24.4241    2.8601   32.2437 C   0  0  0  0  0  0  0  0  0  0  0  0
   24.6590    1.7636   33.0393 O   0  0  0  0  0  0  0  0  0  0  0  0
   23.6036    0.7923   33.0731 C   0  0  0  0  0  0  0  0  0  0  0  0
   23.8993   -0.0611   33.6883 H   0  0  0  0  0  0  0  0  0  0  0  0
   22.6944    1.2311   33.4967 H   0  0  0  0  0  0  0  0  0  0  0  0
   23.3822    0.4341   32.0617 H   0  0  0  0  0  0  0  0  0  0  0  0
   23.1564    3.1220   31.7020 C   0  0  0  0  0  0  0  0  0  0  0  0
   22.3421    2.4433   31.9336 H   0  0  0  0  0  0  0  0  0  0  0  0
   22.9206    4.2307   30.8862 C   0  0  0  0  0  0  0  0  0  0  0  0
   21.5095    4.4550   30.3980 C   0  0  0  0  0  0  0  0  0  0  0  0
   20.9128    3.5502   30.5467 H   0  0  0  0  0  0  0  0  0  0  0  0
   21.5167    4.6886   29.3308 H   0  0  0  0  0  0  0  0  0  0  0  0
   20.8708    5.6035   31.1623 C   0  0  0  0  0  0  0  0  0  0  0  0
   19.7346    5.5055   31.6015 O   0  0  0  0  0  0  0  0  0  0  0  0
   21.5454    6.7791   31.2579 N   0  0  0  0  0  0  0  0  0  0  0  0
   22.3979    6.8871   30.7277 H   0  0  0  0  0  0  0  0  0  0  0  0
   20.9918    7.9301   31.6711 C   0  0  0  0  0  0  0  0  0  0  0  0
   21.6242    8.9479   31.1436 N   0  0  0  0  0  0  0  0  0  0  0  0
   21.2542   10.1797   31.4859 C   0  0  0  0  0  0  0  0  0  0  0  0
   21.9955   11.3284   30.8532 C   0  0  0  0  0  0  0  0  0  0  0  0
   21.3422   11.7877   30.1055 H   0  0  0  0  0  0  0  0  0  0  0  0
   22.2149   12.0670   31.6279 H   0  0  0  0  0  0  0  0  0  0  0  0
   23.3075   10.9256   30.2234 C   0  0  0  0  0  0  0  0  0  0  0  0
   23.7050   11.4681   29.0064 C   0  0  0  0  0  0  0  0  0  0  0  0
   23.0321   12.1424   28.4941 H   0  0  0  0  0  0  0  0  0  0  0  0
   24.9690   11.1952   28.4813 C   0  0  0  0  0  0  0  0  0  0  0  0
   25.2396   11.6512   27.5338 H   0  0  0  0  0  0  0  0  0  0  0  0
   25.8693   10.3770   29.1915 C   0  0  0  0  0  0  0  0  0  0  0  0
   27.3020   10.1775   28.7479 C   0  0  0  0  0  0  0  0  0  0  0  0
   27.5225    8.8519   28.5501 F   0  0  0  0  0  0  0  0  0  0  0  0
   27.5726   10.8647   27.6035 F   0  0  0  0  0  0  0  0  0  0  0  0
   28.1445   10.6372   29.7131 F   0  0  0  0  0  0  0  0  0  0  0  0
   25.4401    9.7882   30.3937 C   0  0  0  0  0  0  0  0  0  0  0  0
   26.0898    9.1422   30.9750 H   0  0  0  0  0  0  0  0  0  0  0  0
   24.1637   10.0452   30.8901 C   0  0  0  0  0  0  0  0  0  0  0  0
   23.8378    9.5712   31.8098 H   0  0  0  0  0  0  0  0  0  0  0  0
   20.2220   10.4020   32.3943 C   0  0  0  0  0  0  0  0  0  0  0  0
   19.8744   11.7270   32.7932 C   0  0  0  0  0  0  0  0  0  0  0  0
   19.6465   12.8251   33.1075 N   0  0  0  0  0  0  0  0  0  0  0  0
   19.5768    9.2988   32.9092 C   0  0  0  0  0  0  0  0  0  0  0  0
   18.5387    9.4213   33.7683 N   0  0  0  0  0  0  0  0  0  0  0  0
   18.0646   10.3197   33.7559 H   0  0  0  0  0  0  0  0  0  0  0  0
   17.9527    8.5946   33.8293 H   0  0  0  0  0  0  0  0  0  0  0  0
   19.9461    8.0362   32.5472 C   0  0  0  0  0  0  0  0  0  0  0  0
   19.4561    7.1648   32.9574 H   0  0  0  0  0  0  0  0  0  0  0  0
   23.9766    5.1228   30.5989 C   0  0  0  0  0  0  0  0  0  0  0  0
   23.7560    6.2406   29.8226 O   0  0  0  0  0  0  0  0  0  0  0  0
   24.9043    7.0814   29.6180 C   0  0  0  0  0  0  0  0  0  0  0  0
   24.6386    7.9607   29.0249 H   0  0  0  0  0  0  0  0  0  0  0  0
   25.6907    6.5300   29.0917 H   0  0  0  0  0  0  0  0  0  0  0  0
   25.3028    7.4163   30.5814 H   0  0  0  0  0  0  0  0  0  0  0  0
  1  2  1  0
  2  3  2  0
  3  4  1  0
  3  5  1  0
  5  6  1  0
  6  7  1  0
  7  8  1  0
  7  9  1  0
  7 10  1  0
  5 11  2  0
 11 12  1  0
 11 13  1  0
 13 14  1  0
 14 15  1  0
 14 16  1  0
 14 17  1  0
 17 18  2  0
 17 19  1  0
 19 20  1  0
 19 21  1  0
 21 22  2  0
 22 23  1  0
 23 24  1  0
 24 25  1  0
 24 26  1  0
 24 27  1  0
 27 28  2  0
 28 29  1  0
 28 30  1  0
 30 31  1  0
 30 32  2  0
 32 33  1  0
 33 34  1  0
 33 35  1  0
 33 36  1  0
 32 37  1  0
 37 38  1  0
 37 39  2  0
 39 40  1  0
 23 41  2  0
 41 42  1  0
 42 43  3  0
 41 44  1  0
 44 45  1  0
 45 46  1  0
 45 47  1  0
 44 48  2  0
 48 49  1  0
 13 50  2  0
 50 51  1  0
 51 52  1  0
 52 53  1  0
 52 54  1  0
 52 55  1  0
 50  2  1  0
 48 21  1  0
 39 27  1  0
M  END
>  <score>  (335) 
7.69373

$$$$

     RDKit          3D

 51 53  0  0  0  0  0  0  0  0999 V2000
   26.1571    5.4449   30.8482 H   0  0  0  0  0  0  0  0  0  0  0  0
   25.3206    4.8038   31.1052 C   0  0  0  0  0  0  0  0  0  0  0  0
   25.5165    3.7041   31.9468 C   0  0  0  0  0  0  0  0  0  0  0  0
   27.2722    3.3761   32.6401 Br  0  0  0  0  0  0  0  0  0  0  0  0
   24.4400    2.8601   32.2654 C   0  0  0  0  0  0  0  0  0  0  0  0
   24.6711    1.7843   33.0925 O   0  0  0  0  0  0  0  0  0  0  0  0
   23.6658    0.7618   33.1134 C   0  0  0  0  0  0  0  0  0  0  0  0
   23.4658    0.3997   32.0994 H   0  0  0  0  0  0  0  0  0  0  0  0
   24.0125   -0.0818   33.7188 H   0  0  0  0  0  0  0  0  0  0  0  0
   22.7352    1.1407   33.5475 H   0  0  0  0  0  0  0  0  0  0  0  0
   23.1699    3.1562   31.7360 C   0  0  0  0  0  0  0  0  0  0  0  0
   22.3407    2.5027   31.9878 H   0  0  0  0  0  0  0  0  0  0  0  0
   22.9691    4.2711   30.9050 C   0  0  0  0  0  0  0  0  0  0  0  0
   21.5844    4.5954   30.3861 C   0  0  0  0  0  0  0  0  0  0  0  0
   20.9280    3.7267   30.4706 H   0  0  0  0  0  0  0  0  0  0  0  0
   21.6531    4.8771   29.3329 H   0  0  0  0  0  0  0  0  0  0  0  0
   20.9690    5.7652   31.1381 C   0  0  0  0  0  0  0  0  0  0  0  0
   19.7891    5.7533   31.4460 O   0  0  0  0  0  0  0  0  0  0  0  0
   21.7041    6.9015   31.2986 N   0  0  0  0  0  0  0  0  0  0  0  0
   22.5438    7.0017   30.7496 H   0  0  0  0  0  0  0  0  0  0  0  0
   21.1935    8.0592   31.7476 C   0  0  0  0  0  0  0  0  0  0  0  0
   21.9649    9.0624   31.4150 N   0  0  0  0  0  0  0  0  0  0  0  0
   21.5489   10.2761   31.7452 C   0  0  0  0  0  0  0  0  0  0  0  0
   22.3386   11.3263   31.3098 N   0  0  0  0  0  0  0  0  0  0  0  0
   21.7608   12.2041   30.2840 C   0  0  0  0  0  0  0  0  0  0  0  0
   20.9148   12.7916   30.6582 H   0  0  0  0  0  0  0  0  0  0  0  0
   21.4117   11.6442   29.4078 H   0  0  0  0  0  0  0  0  0  0  0  0
   22.9373   13.0846   29.8911 C   0  0  0  0  0  0  0  0  0  0  0  0
   22.9394   13.9916   30.5024 H   0  0  0  0  0  0  0  0  0  0  0  0
   22.8893   13.3830   28.8422 H   0  0  0  0  0  0  0  0  0  0  0  0
   24.1957   12.2562   30.1551 C   0  0  0  0  0  0  0  0  0  0  0  0
   24.9868   12.8850   30.5810 H   0  0  0  0  0  0  0  0  0  0  0  0
   24.5681   11.8123   29.2245 H   0  0  0  0  0  0  0  0  0  0  0  0
   23.7928   11.1574   31.1287 C   0  0  0  0  0  0  0  0  0  0  0  0
   24.0450   10.1729   30.7387 H   0  0  0  0  0  0  0  0  0  0  0  0
   24.3455   11.2804   32.0567 H   0  0  0  0  0  0  0  0  0  0  0  0
   20.3816   10.5172   32.4482 C   0  0  0  0  0  0  0  0  0  0  0  0
   20.0063   11.8383   32.8334 C   0  0  0  0  0  0  0  0  0  0  0  0
   19.6990   12.9025   33.1900 N   0  0  0  0  0  0  0  0  0  0  0  0
   19.6234    9.4288   32.7819 C   0  0  0  0  0  0  0  0  0  0  0  0
   18.4679    9.5513   33.4684 N   0  0  0  0  0  0  0  0  0  0  0  0
   18.2357   10.4506   33.8814 H   0  0  0  0  0  0  0  0  0  0  0  0
   18.0413    8.7040   33.8335 H   0  0  0  0  0  0  0  0  0  0  0  0
   20.0046    8.1794   32.4156 C   0  0  0  0  0  0  0  0  0  0  0  0
   19.3714    7.3374   32.6479 H   0  0  0  0  0  0  0  0  0  0  0  0
   24.0557    5.1060   30.5809 C   0  0  0  0  0  0  0  0  0  0  0  0
   23.8358    6.2009   29.7731 O   0  0  0  0  0  0  0  0  0  0  0  0
   24.9370    7.1033   29.6047 C   0  0  0  0  0  0  0  0  0  0  0  0
   25.7714    6.6040   29.1010 H   0  0  0  0  0  0  0  0  0  0  0  0
   24.6250    7.9591   28.9986 H   0  0  0  0  0  0  0  0  0  0  0  0
   25.2782    7.4705   30.5781 H   0  0  0  0  0  0  0  0  0  0  0  0
  1  2  1  0
  2  3  2  0
  3  4  1  0
  3  5  1  0
  5  6  1  0
  6  7  1  0
  7  8  1  0
  7  9  1  0
  7 10  1  0
  5 11  2  0
 11 12  1  0
 11 13  1  0
 13 14  1  0
 14 15  1  0
 14 16  1  0
 14 17  1  0
 17 18  2  0
 17 19  1  0
 19 20  1  0
 19 21  1  0
 21 22  2  0
 22 23  1  0
 23 24  1  0
 24 25  1  0
 25 26  1  0
 25 27  1  0
 25 28  1  0
 28 29  1  0
 28 30  1  0
 28 31  1  0
 31 32  1  0
 31 33  1  0
 31 34  1  0
 34 35  1  0
 34 36  1  0
 23 37  2  0
 37 38  1  0
 38 39  3  0
 37 40  1  0
 40 41  1  0
 41 42  1  0
 41 43  1  0
 40 44  2  0
 44 45  1  0
 13 46  2  0
 46 47  1  0
 47 48  1  0
 48 49  1  0
 48 50  1  0
 48 51  1  0
 46  2  1  0
 44 21  1  0
 34 24  1  0
M  END
>  <score>  (336) 
7.69612

$$$$

     RDKit          3D

 50 52  0  0  0  0  0  0  0  0999 V2000
   25.9275   13.4281   30.7285 H   0  0  0  0  0  0  0  0  0  0  0  0
   25.6085   12.5653   31.0237 O   0  0  0  0  0  0  0  0  0  0  0  0
   24.2659   12.5088   30.8411 C   0  0  0  0  0  0  0  0  0  0  0  0
   23.6232   13.5596   30.1961 C   0  0  0  0  0  0  0  0  0  0  0  0
   24.2143   14.4061   29.8678 H   0  0  0  0  0  0  0  0  0  0  0  0
   22.2434   13.5047   29.9668 C   0  0  0  0  0  0  0  0  0  0  0  0
   21.7291   14.3093   29.4434 H   0  0  0  0  0  0  0  0  0  0  0  0
   21.5155   12.4033   30.4338 C   0  0  0  0  0  0  0  0  0  0  0  0
   20.4490   12.3561   30.2357 H   0  0  0  0  0  0  0  0  0  0  0  0
   22.1466   11.3562   31.1303 C   0  0  0  0  0  0  0  0  0  0  0  0
   21.3570   10.2213   31.6490 C   0  0  0  0  0  0  0  0  0  0  0  0
   21.7759    8.9944   31.3405 N   0  0  0  0  0  0  0  0  0  0  0  0
   21.0712    7.9732   31.7549 C   0  0  0  0  0  0  0  0  0  0  0  0
   21.6167    6.8256   31.3233 N   0  0  0  0  0  0  0  0  0  0  0  0
   22.4770    6.9331   30.8049 H   0  0  0  0  0  0  0  0  0  0  0  0
   20.9021    5.6803   31.1505 C   0  0  0  0  0  0  0  0  0  0  0  0
   19.7349    5.6198   31.5141 O   0  0  0  0  0  0  0  0  0  0  0  0
   21.5414    4.5294   30.3953 C   0  0  0  0  0  0  0  0  0  0  0  0
   21.5793    4.8021   29.3389 H   0  0  0  0  0  0  0  0  0  0  0  0
   20.9115    3.6424   30.4898 H   0  0  0  0  0  0  0  0  0  0  0  0
   22.9445    4.2524   30.9040 C   0  0  0  0  0  0  0  0  0  0  0  0
   23.1715    3.1428   31.7269 C   0  0  0  0  0  0  0  0  0  0  0  0
   22.3470    2.4822   31.9728 H   0  0  0  0  0  0  0  0  0  0  0  0
   24.4459    2.8656   32.2526 C   0  0  0  0  0  0  0  0  0  0  0  0
   24.6776    1.7789   33.0628 O   0  0  0  0  0  0  0  0  0  0  0  0
   23.6433    0.7837   33.0894 C   0  0  0  0  0  0  0  0  0  0  0  0
   22.7252    1.1994   33.5191 H   0  0  0  0  0  0  0  0  0  0  0  0
   23.4337    0.4256   32.0744 H   0  0  0  0  0  0  0  0  0  0  0  0
   23.9578   -0.0692   33.7002 H   0  0  0  0  0  0  0  0  0  0  0  0
   25.5082    3.7291   31.9468 C   0  0  0  0  0  0  0  0  0  0  0  0
   27.2634    3.4476   32.6584 Br  0  0  0  0  0  0  0  0  0  0  0  0
   25.2890    4.8248   31.1135 C   0  0  0  0  0  0  0  0  0  0  0  0
   26.1196    5.4788   30.8765 H   0  0  0  0  0  0  0  0  0  0  0  0
   24.0182    5.1091   30.5899 C   0  0  0  0  0  0  0  0  0  0  0  0
   23.7997    6.2146   29.7981 O   0  0  0  0  0  0  0  0  0  0  0  0
   24.9312    7.0822   29.6233 C   0  0  0  0  0  0  0  0  0  0  0  0
   25.7479    6.5479   29.1235 H   0  0  0  0  0  0  0  0  0  0  0  0
   25.2865    7.4450   30.5954 H   0  0  0  0  0  0  0  0  0  0  0  0
   24.6552    7.9448   29.0112 H   0  0  0  0  0  0  0  0  0  0  0  0
   19.9233    8.0754   32.4908 C   0  0  0  0  0  0  0  0  0  0  0  0
   19.3967    7.1949   32.8129 H   0  0  0  0  0  0  0  0  0  0  0  0
   19.4854    9.3242   32.7936 C   0  0  0  0  0  0  0  0  0  0  0  0
   18.3337    9.4530   33.4872 N   0  0  0  0  0  0  0  0  0  0  0  0
   17.9419    8.6200   33.9329 H   0  0  0  0  0  0  0  0  0  0  0  0
   18.1434   10.3758   33.8683 H   0  0  0  0  0  0  0  0  0  0  0  0
   20.2057   10.4282   32.4016 C   0  0  0  0  0  0  0  0  0  0  0  0
   19.8360   11.7459   32.8026 C   0  0  0  0  0  0  0  0  0  0  0  0
   19.5784   12.8232   33.1509 N   0  0  0  0  0  0  0  0  0  0  0  0
   23.5407   11.4144   31.3009 C   0  0  0  0  0  0  0  0  0  0  0  0
   24.0704   10.6221   31.8183 H   0  0  0  0  0  0  0  0  0  0  0  0
  1  2  1  0
  2  3  1  0
  3  4  2  0
  4  5  1  0
  4  6  1  0
  6  7  1  0
  6  8  2  0
  8  9  1  0
  8 10  1  0
 10 11  1  0
 11 12  2  0
 12 13  1  0
 13 14  1  0
 14 15  1  0
 14 16  1  0
 16 17  2  0
 16 18  1  0
 18 19  1  0
 18 20  1  0
 18 21  1  0
 21 22  2  0
 22 23  1  0
 22 24  1  0
 24 25  1  0
 25 26  1  0
 26 27  1  0
 26 28  1  0
 26 29  1  0
 24 30  2  0
 30 31  1  0
 30 32  1  0
 32 33  1  0
 32 34  2  0
 34 35  1  0
 35 36  1  0
 36 37  1  0
 36 38  1  0
 36 39  1  0
 13 40  2  0
 40 41  1  0
 40 42  1  0
 42 43  1  0
 43 44  1  0
 43 45  1  0
 42 46  2  0
 46 47  1  0
 47 48  3  0
 10 49  2  0
 49 50  1  0
 49  3  1  0
 46 11  1  0
 34 21  1  0
M  END
>  <score>  (337) 
7.69675

$$$$

     RDKit          3D

 52 54  0  0  0  0  0  0  0  0999 V2000
   23.3933   13.0769   27.6190 H   0  0  0  0  0  0  0  0  0  0  0  0
   22.7396   13.2381   28.3222 O   0  0  0  0  0  0  0  0  0  0  0  0
   22.4988   12.0264   29.0496 C   0  0  2  0  0  0  0  0  0  0  0  0
   22.0408   11.2793   28.3926 H   0  0  0  0  0  0  0  0  0  0  0  0
   21.5967   12.2263   30.2703 C   0  0  0  0  0  0  0  0  0  0  0  0
   21.6546   13.2602   30.6217 H   0  0  0  0  0  0  0  0  0  0  0  0
   20.5548   12.0158   30.0187 H   0  0  0  0  0  0  0  0  0  0  0  0
   22.1327   11.3055   31.2866 N   0  0  0  0  0  0  0  0  0  0  0  0
   21.3571   10.2169   31.6605 C   0  0  0  0  0  0  0  0  0  0  0  0
   21.8192    9.0258   31.3051 N   0  0  0  0  0  0  0  0  0  0  0  0
   21.1535    7.9786   31.7134 C   0  0  0  0  0  0  0  0  0  0  0  0
   21.6633    6.8378   31.2179 N   0  0  0  0  0  0  0  0  0  0  0  0
   22.5251    6.9425   30.7042 H   0  0  0  0  0  0  0  0  0  0  0  0
   20.9515    5.6808   31.0833 C   0  0  0  0  0  0  0  0  0  0  0  0
   19.8101    5.6091   31.5110 O   0  0  0  0  0  0  0  0  0  0  0  0
   21.5685    4.4963   30.3532 C   0  0  0  0  0  0  0  0  0  0  0  0
   20.9337    3.6162   30.4932 H   0  0  0  0  0  0  0  0  0  0  0  0
   21.6009    4.7130   29.2835 H   0  0  0  0  0  0  0  0  0  0  0  0
   22.9640    4.2396   30.8763 C   0  0  0  0  0  0  0  0  0  0  0  0
   23.1764    3.1379   31.7117 C   0  0  0  0  0  0  0  0  0  0  0  0
   22.3488    2.4799   31.9585 H   0  0  0  0  0  0  0  0  0  0  0  0
   24.4440    2.8629   32.2495 C   0  0  0  0  0  0  0  0  0  0  0  0
   24.6728    1.7780   33.0610 O   0  0  0  0  0  0  0  0  0  0  0  0
   23.6346    0.7889   33.0860 C   0  0  0  0  0  0  0  0  0  0  0  0
   23.9448   -0.0639   33.6958 H   0  0  0  0  0  0  0  0  0  0  0  0
   22.7174    1.2068   33.5117 H   0  0  0  0  0  0  0  0  0  0  0  0
   23.4219    0.4321   32.0730 H   0  0  0  0  0  0  0  0  0  0  0  0
   25.5069    3.7297   31.9538 C   0  0  0  0  0  0  0  0  0  0  0  0
   27.2609    3.4435   32.6697 Br  0  0  0  0  0  0  0  0  0  0  0  0
   25.2948    4.8325   31.1244 C   0  0  0  0  0  0  0  0  0  0  0  0
   26.1231    5.4932   30.8967 H   0  0  0  0  0  0  0  0  0  0  0  0
   24.0311    5.1134   30.5831 C   0  0  0  0  0  0  0  0  0  0  0  0
   23.8079    6.2270   29.8022 O   0  0  0  0  0  0  0  0  0  0  0  0
   24.9398    7.0914   29.6210 C   0  0  0  0  0  0  0  0  0  0  0  0
   25.7543    6.5541   29.1240 H   0  0  0  0  0  0  0  0  0  0  0  0
   25.3026    7.4562   30.5881 H   0  0  0  0  0  0  0  0  0  0  0  0
   24.6629    7.9513   29.0060 H   0  0  0  0  0  0  0  0  0  0  0  0
   20.0749    8.0310   32.5471 C   0  0  0  0  0  0  0  0  0  0  0  0
   19.6088    7.1304   32.9160 H   0  0  0  0  0  0  0  0  0  0  0  0
   19.6110    9.2639   32.8789 C   0  0  0  0  0  0  0  0  0  0  0  0
   18.5172    9.3274   33.6631 N   0  0  0  0  0  0  0  0  0  0  0  0
   17.8215    9.9855   33.3329 H   0  0  0  0  0  0  0  0  0  0  0  0
   18.1882    8.4361   34.0276 H   0  0  0  0  0  0  0  0  0  0  0  0
   20.2214   10.3963   32.4163 C   0  0  0  0  0  0  0  0  0  0  0  0
   19.8230   11.7026   32.8269 C   0  0  0  0  0  0  0  0  0  0  0  0
   19.5645   12.7858   33.1628 N   0  0  0  0  0  0  0  0  0  0  0  0
   23.5783   11.1244   31.0638 C   0  0  0  0  0  0  0  0  0  0  0  0
   24.1560   11.7998   31.7068 H   0  0  0  0  0  0  0  0  0  0  0  0
   23.9146   10.0981   31.2606 H   0  0  0  0  0  0  0  0  0  0  0  0
   23.8115   11.4838   29.5994 C   0  0  0  0  0  0  0  0  0  0  0  0
   24.1140   10.6018   29.0290 H   0  0  0  0  0  0  0  0  0  0  0  0
   24.6028   12.2345   29.5183 H   0  0  0  0  0  0  0  0  0  0  0  0
  1  2  1  0
  2  3  1  0
  3  4  1  6
  3  5  1  0
  5  6  1  0
  5  7  1  0
  5  8  1  0
  8  9  1  0
  9 10  2  0
 10 11  1  0
 11 12  1  0
 12 13  1  0
 12 14  1  0
 14 15  2  0
 14 16  1  0
 16 17  1  0
 16 18  1  0
 16 19  1  0
 19 20  2  0
 20 21  1  0
 20 22  1  0
 22 23  1  0
 23 24  1  0
 24 25  1  0
 24 26  1  0
 24 27  1  0
 22 28  2  0
 28 29  1  0
 28 30  1  0
 30 31  1  0
 30 32  2  0
 32 33  1  0
 33 34  1  0
 34 35  1  0
 34 36  1  0
 34 37  1  0
 11 38  2  0
 38 39  1  0
 38 40  1  0
 40 41  1  0
 41 42  1  0
 41 43  1  0
 40 44  2  0
 44 45  1  0
 45 46  3  0
  8 47  1  0
 47 48  1  0
 47 49  1  0
 47 50  1  0
 50 51  1  0
 50 52  1  0
 50  3  1  0
 44  9  1  0
 32 19  1  0
M  END
>  <score>  (338) 
7.69714

$$$$

     RDKit          3D

 52 54  0  0  0  0  0  0  0  0999 V2000
   24.6075   14.2058   30.2157 H   0  0  0  0  0  0  0  0  0  0  0  0
   23.9422   13.3920   30.4564 C   0  0  0  0  0  0  0  0  0  0  0  0
   23.1617   13.4882   31.6132 C   0  0  0  0  0  0  0  0  0  0  0  0
   23.2428   14.6498   32.3325 O   0  0  0  0  0  0  0  0  0  0  0  0
   23.0760   14.6310   33.7613 C   0  0  0  0  0  0  0  0  0  0  0  0
   23.2179   15.6513   34.1423 H   0  0  0  0  0  0  0  0  0  0  0  0
   22.0772   14.2978   34.0683 H   0  0  0  0  0  0  0  0  0  0  0  0
   23.8348   14.0033   34.2387 H   0  0  0  0  0  0  0  0  0  0  0  0
   22.3221   12.5138   31.9747 N   0  0  0  0  0  0  0  0  0  0  0  0
   22.2303   11.3967   31.2076 C   0  0  0  0  0  0  0  0  0  0  0  0
   21.3665   10.2448   31.6676 C   0  0  0  0  0  0  0  0  0  0  0  0
   21.7249    8.9961   31.3030 N   0  0  0  0  0  0  0  0  0  0  0  0
   21.0108    7.9731   31.7121 C   0  0  0  0  0  0  0  0  0  0  0  0
   21.5725    6.8287   31.2928 N   0  0  0  0  0  0  0  0  0  0  0  0
   22.4307    6.9497   30.7762 H   0  0  0  0  0  0  0  0  0  0  0  0
   20.8860    5.6687   31.1312 C   0  0  0  0  0  0  0  0  0  0  0  0
   19.7106    5.6059   31.4546 O   0  0  0  0  0  0  0  0  0  0  0  0
   21.5618    4.5369   30.3731 C   0  0  0  0  0  0  0  0  0  0  0  0
   21.6286    4.8379   29.3265 H   0  0  0  0  0  0  0  0  0  0  0  0
   20.9405    3.6421   30.4345 H   0  0  0  0  0  0  0  0  0  0  0  0
   22.9573    4.2540   30.8983 C   0  0  0  0  0  0  0  0  0  0  0  0
   23.1727    3.1424   31.7293 C   0  0  0  0  0  0  0  0  0  0  0  0
   22.3492    2.4823   31.9800 H   0  0  0  0  0  0  0  0  0  0  0  0
   24.4446    2.8566   32.2624 C   0  0  0  0  0  0  0  0  0  0  0  0
   24.6784    1.7784   33.0875 O   0  0  0  0  0  0  0  0  0  0  0  0
   23.6630    0.7666   33.1090 C   0  0  0  0  0  0  0  0  0  0  0  0
   23.9969   -0.0814   33.7145 H   0  0  0  0  0  0  0  0  0  0  0  0
   23.4590    0.4093   32.0948 H   0  0  0  0  0  0  0  0  0  0  0  0
   22.7363    1.1589   33.5384 H   0  0  0  0  0  0  0  0  0  0  0  0
   25.5152    3.7110   31.9498 C   0  0  0  0  0  0  0  0  0  0  0  0
   27.2769    3.4084   32.6466 Br  0  0  0  0  0  0  0  0  0  0  0  0
   25.3096    4.8091   31.1080 C   0  0  0  0  0  0  0  0  0  0  0  0
   26.1459    5.4558   30.8605 H   0  0  0  0  0  0  0  0  0  0  0  0
   24.0404    5.0989   30.5800 C   0  0  0  0  0  0  0  0  0  0  0  0
   23.8199    6.1988   29.7800 O   0  0  0  0  0  0  0  0  0  0  0  0
   24.9313    7.0891   29.6112 C   0  0  0  0  0  0  0  0  0  0  0  0
   24.6311    7.9488   29.0046 H   0  0  0  0  0  0  0  0  0  0  0  0
   25.7607    6.5777   29.1122 H   0  0  0  0  0  0  0  0  0  0  0  0
   25.2790    7.4498   30.5844 H   0  0  0  0  0  0  0  0  0  0  0  0
   19.8822    8.0729   32.4779 C   0  0  0  0  0  0  0  0  0  0  0  0
   19.3260    7.2046   32.7954 H   0  0  0  0  0  0  0  0  0  0  0  0
   19.5100    9.3282   32.8659 C   0  0  0  0  0  0  0  0  0  0  0  0
   18.4199    9.4580   33.6631 N   0  0  0  0  0  0  0  0  0  0  0  0
   17.8883    8.6300   33.9028 H   0  0  0  0  0  0  0  0  0  0  0  0
   18.0874   10.3831   33.9351 H   0  0  0  0  0  0  0  0  0  0  0  0
   20.2408   10.4320   32.4852 C   0  0  0  0  0  0  0  0  0  0  0  0
   19.8625   11.7308   32.9426 C   0  0  0  0  0  0  0  0  0  0  0  0
   19.5919   12.7952   33.3299 N   0  0  0  0  0  0  0  0  0  0  0  0
   22.9627   11.2956   29.9980 C   0  0  0  0  0  0  0  0  0  0  0  0
   22.8268   10.4327   29.3502 H   0  0  0  0  0  0  0  0  0  0  0  0
   23.8472   12.2926   29.6094 C   0  0  0  0  0  0  0  0  0  0  0  0
   24.4112   12.2176   28.6755 H   0  0  0  0  0  0  0  0  0  0  0  0
  1  2  1  0
  2  3  2  0
  3  4  1  0
  4  5  1  0
  5  6  1  0
  5  7  1  0
  5  8  1  0
  3  9  1  0
  9 10  2  0
 10 11  1  0
 11 12  2  0
 12 13  1  0
 13 14  1  0
 14 15  1  0
 14 16  1  0
 16 17  2  0
 16 18  1  0
 18 19  1  0
 18 20  1  0
 18 21  1  0
 21 22  2  0
 22 23  1  0
 22 24  1  0
 24 25  1  0
 25 26  1  0
 26 27  1  0
 26 28  1  0
 26 29  1  0
 24 30  2  0
 30 31  1  0
 30 32  1  0
 32 33  1  0
 32 34  2  0
 34 35  1  0
 35 36  1  0
 36 37  1  0
 36 38  1  0
 36 39  1  0
 13 40  2  0
 40 41  1  0
 40 42  1  0
 42 43  1  0
 43 44  1  0
 43 45  1  0
 42 46  2  0
 46 47  1  0
 47 48  3  0
 10 49  1  0
 49 50  1  0
 49 51  2  0
 51 52  1  0
 51  2  1  0
 46 11  1  0
 34 21  1  0
M  END
>  <score>  (339) 
7.69768

$$$$

     RDKit          3D

 56 58  0  0  0  0  0  0  0  0999 V2000
   25.7749   11.5352   27.9818 H   0  0  0  0  0  0  0  0  0  0  0  0
   25.2824   11.1413   28.8672 C   0  0  0  0  0  0  0  0  0  0  0  0
   23.9434   11.4751   29.1806 C   0  0  0  0  0  0  0  0  0  0  0  0
   23.4002   12.1196   28.4944 H   0  0  0  0  0  0  0  0  0  0  0  0
   23.3336   10.9966   30.3701 C   0  0  0  0  0  0  0  0  0  0  0  0
   21.8975   11.3157   30.8127 C   0  0  0  0  0  0  0  0  0  0  0  0
   21.9323   12.1063   31.5658 H   0  0  0  0  0  0  0  0  0  0  0  0
   21.3132   11.6974   29.9726 H   0  0  0  0  0  0  0  0  0  0  0  0
   21.1381   10.1396   31.4336 C   0  0  0  0  0  0  0  0  0  0  0  0
   21.5038    8.8947   31.1180 N   0  0  0  0  0  0  0  0  0  0  0  0
   20.8717    7.8702   31.6509 C   0  0  0  0  0  0  0  0  0  0  0  0
   21.4456    6.7241   31.2529 N   0  0  0  0  0  0  0  0  0  0  0  0
   22.2663    6.8489   30.6777 H   0  0  0  0  0  0  0  0  0  0  0  0
   20.8092    5.5240   31.1879 C   0  0  0  0  0  0  0  0  0  0  0  0
   19.6705    5.3957   31.6117 O   0  0  0  0  0  0  0  0  0  0  0  0
   21.5074    4.4339   30.3938 C   0  0  0  0  0  0  0  0  0  0  0  0
   20.9466    3.5025   30.4931 H   0  0  0  0  0  0  0  0  0  0  0  0
   21.5173    4.7155   29.3402 H   0  0  0  0  0  0  0  0  0  0  0  0
   22.9233    4.2366   30.8860 C   0  0  0  0  0  0  0  0  0  0  0  0
   23.1605    3.1250   31.6950 C   0  0  0  0  0  0  0  0  0  0  0  0
   22.3475    2.4411   31.9116 H   0  0  0  0  0  0  0  0  0  0  0  0
   24.4223    2.8607   32.2450 C   0  0  0  0  0  0  0  0  0  0  0  0
   24.6433    1.7651   33.0492 O   0  0  0  0  0  0  0  0  0  0  0  0
   23.5871    0.7903   33.0817 C   0  0  0  0  0  0  0  0  0  0  0  0
   22.6734    1.2242   33.5028 H   0  0  0  0  0  0  0  0  0  0  0  0
   23.8834   -0.0632   33.6990 H   0  0  0  0  0  0  0  0  0  0  0  0
   23.3693    0.4284   32.0704 H   0  0  0  0  0  0  0  0  0  0  0  0
   25.4744    3.7471   31.9653 C   0  0  0  0  0  0  0  0  0  0  0  0
   27.2211    3.4685   32.7029 Br  0  0  0  0  0  0  0  0  0  0  0  0
   25.2515    4.8558   31.1412 C   0  0  0  0  0  0  0  0  0  0  0  0
   26.0750    5.5273   30.9188 H   0  0  0  0  0  0  0  0  0  0  0  0
   23.9834    5.1291   30.5979 C   0  0  0  0  0  0  0  0  0  0  0  0
   23.7668    6.2478   29.8196 O   0  0  0  0  0  0  0  0  0  0  0  0
   24.9130    7.0855   29.5779 C   0  0  0  0  0  0  0  0  0  0  0  0
   25.3564    7.4097   30.5249 H   0  0  0  0  0  0  0  0  0  0  0  0
   24.6266    7.9747   29.0075 H   0  0  0  0  0  0  0  0  0  0  0  0
   25.6720    6.5391   29.0083 H   0  0  0  0  0  0  0  0  0  0  0  0
   19.8103    7.9832   32.5073 C   0  0  0  0  0  0  0  0  0  0  0  0
   19.3150    7.1229   32.9338 H   0  0  0  0  0  0  0  0  0  0  0  0
   19.4244    9.2449   32.8321 C   0  0  0  0  0  0  0  0  0  0  0  0
   18.3615    9.3350   33.6678 N   0  0  0  0  0  0  0  0  0  0  0  0
   17.5269    8.9281   33.2574 H   0  0  0  0  0  0  0  0  0  0  0  0
   18.5538    8.9534   34.5884 H   0  0  0  0  0  0  0  0  0  0  0  0
   20.0833   10.3469   32.3260 C   0  0  0  0  0  0  0  0  0  0  0  0
   19.7312   11.6612   32.7498 C   0  0  0  0  0  0  0  0  0  0  0  0
   19.5167   12.7496   33.0996 N   0  0  0  0  0  0  0  0  0  0  0  0
   24.0906   10.1797   31.2124 C   0  0  0  0  0  0  0  0  0  0  0  0
   23.6557    9.8398   32.1502 H   0  0  0  0  0  0  0  0  0  0  0  0
   25.3993    9.8301   30.8780 C   0  0  0  0  0  0  0  0  0  0  0  0
   25.9457    9.1959   31.5578 H   0  0  0  0  0  0  0  0  0  0  0  0
   26.0251   10.3226   29.7291 C   0  0  0  0  0  0  0  0  0  0  0  0
   27.3562   10.0291   29.5500 O   0  0  0  0  0  0  0  0  0  0  0  0
   27.7923    9.7702   28.2081 C   0  0  0  0  0  0  0  0  0  0  0  0
   27.7375   10.6718   27.5853 H   0  0  0  0  0  0  0  0  0  0  0  0
   27.1809    8.9822   27.7525 H   0  0  0  0  0  0  0  0  0  0  0  0
   28.8343    9.4242   28.2272 H   0  0  0  0  0  0  0  0  0  0  0  0
  1  2  1  0
  2  3  2  0
  3  4  1  0
  3  5  1  0
  5  6  1  0
  6  7  1  0
  6  8  1  0
  6  9  1  0
  9 10  2  0
 10 11  1  0
 11 12  1  0
 12 13  1  0
 12 14  1  0
 14 15  2  0
 14 16  1  0
 16 17  1  0
 16 18  1  0
 16 19  1  0
 19 20  2  0
 20 21  1  0
 20 22  1  0
 22 23  1  0
 23 24  1  0
 24 25  1  0
 24 26  1  0
 24 27  1  0
 22 28  2  0
 28 29  1  0
 28 30  1  0
 30 31  1  0
 30 32  2  0
 32 33  1  0
 33 34  1  0
 34 35  1  0
 34 36  1  0
 34 37  1  0
 11 38  2  0
 38 39  1  0
 38 40  1  0
 40 41  1  0
 41 42  1  0
 41 43  1  0
 40 44  2  0
 44 45  1  0
 45 46  3  0
  5 47  2  0
 47 48  1  0
 47 49  1  0
 49 50  1  0
 49 51  2  0
 51 52  1  0
 52 53  1  0
 53 54  1  0
 53 55  1  0
 53 56  1  0
 51  2  1  0
 44  9  1  0
 32 19  1  0
M  END
>  <score>  (340) 
7.69851

$$$$

     RDKit          3D

 60 62  0  0  0  0  0  0  0  0999 V2000
   24.9500   16.1761   29.0305 H   0  0  0  0  0  0  0  0  0  0  0  0
   25.4423   15.5988   28.4226 O   0  0  0  0  0  0  0  0  0  0  0  0
   24.7640   14.3495   28.2015 C   0  0  0  0  0  0  0  0  0  0  0  0
   25.3555   13.7387   27.5116 H   0  0  0  0  0  0  0  0  0  0  0  0
   23.7906   14.5289   27.7358 H   0  0  0  0  0  0  0  0  0  0  0  0
   24.5681   13.5625   29.4991 C   0  0  0  0  0  0  0  0  0  0  0  0
   25.5455   13.4066   29.9682 H   0  0  0  0  0  0  0  0  0  0  0  0
   23.9499   14.1375   30.1965 H   0  0  0  0  0  0  0  0  0  0  0  0
   23.9291   12.2590   29.1981 N   0  0  0  0  0  0  0  0  0  0  0  0
   24.3703   11.0983   29.9998 C   0  0  0  0  0  0  0  0  0  0  0  0
   25.4630   11.0865   30.0827 H   0  0  0  0  0  0  0  0  0  0  0  0
   24.0578   10.1732   29.5053 H   0  0  0  0  0  0  0  0  0  0  0  0
   23.7446   11.1517   31.3999 C   0  0  0  0  0  0  0  0  0  0  0  0
   24.1628   12.0316   31.8988 H   0  0  0  0  0  0  0  0  0  0  0  0
   24.0478   10.2655   31.9690 H   0  0  0  0  0  0  0  0  0  0  0  0
   22.2616   11.2795   31.3650 N   0  0  0  0  0  0  0  0  0  0  0  0
   21.4613   10.2097   31.7372 C   0  0  0  0  0  0  0  0  0  0  0  0
   21.8929    9.0126   31.3645 N   0  0  0  0  0  0  0  0  0  0  0  0
   21.1192    7.9950   31.6333 C   0  0  0  0  0  0  0  0  0  0  0  0
   21.6410    6.8342   31.2041 N   0  0  0  0  0  0  0  0  0  0  0  0
   22.5628    6.9030   30.8005 H   0  0  0  0  0  0  0  0  0  0  0  0
   20.9516    5.6616   31.1081 C   0  0  0  0  0  0  0  0  0  0  0  0
   19.8031    5.5860   31.5125 O   0  0  0  0  0  0  0  0  0  0  0  0
   21.5759    4.4854   30.3646 C   0  0  0  0  0  0  0  0  0  0  0  0
   21.5973    4.6874   29.2899 H   0  0  0  0  0  0  0  0  0  0  0  0
   20.9626    3.5947   30.5238 H   0  0  0  0  0  0  0  0  0  0  0  0
   22.9738    4.2396   30.8689 C   0  0  0  0  0  0  0  0  0  0  0  0
   23.1916    3.1318   31.6917 C   0  0  0  0  0  0  0  0  0  0  0  0
   22.3682    2.4662   31.9285 H   0  0  0  0  0  0  0  0  0  0  0  0
   24.4537    2.8603   32.2418 C   0  0  0  0  0  0  0  0  0  0  0  0
   24.6721    1.7666   33.0473 O   0  0  0  0  0  0  0  0  0  0  0  0
   23.6118    0.7992   33.0728 C   0  0  0  0  0  0  0  0  0  0  0  0
   22.7008    1.2373   33.4940 H   0  0  0  0  0  0  0  0  0  0  0  0
   23.9032   -0.0567   33.6869 H   0  0  0  0  0  0  0  0  0  0  0  0
   23.3938    0.4452   32.0591 H   0  0  0  0  0  0  0  0  0  0  0  0
   25.5110    3.7409   31.9619 C   0  0  0  0  0  0  0  0  0  0  0  0
   27.2572    3.4611   32.6940 Br  0  0  0  0  0  0  0  0  0  0  0  0
   25.2974    4.8515   31.1399 C   0  0  0  0  0  0  0  0  0  0  0  0
   26.1189    5.5259   30.9206 H   0  0  0  0  0  0  0  0  0  0  0  0
   24.0353    5.1234   30.5895 C   0  0  0  0  0  0  0  0  0  0  0  0
   23.8107    6.2436   29.8198 O   0  0  0  0  0  0  0  0  0  0  0  0
   24.9468    7.0990   29.6197 C   0  0  0  0  0  0  0  0  0  0  0  0
   24.6801    7.9474   28.9825 H   0  0  0  0  0  0  0  0  0  0  0  0
   25.3058    7.4809   30.5810 H   0  0  0  0  0  0  0  0  0  0  0  0
   25.7595    6.5442   29.1394 H   0  0  0  0  0  0  0  0  0  0  0  0
   19.9325    8.0853   32.2998 C   0  0  0  0  0  0  0  0  0  0  0  0
   19.3314    7.2264   32.5333 H   0  0  0  0  0  0  0  0  0  0  0  0
   19.5308    9.3144   32.6809 C   0  0  0  0  0  0  0  0  0  0  0  0
   18.3794    9.3915   33.3685 N   0  0  0  0  0  0  0  0  0  0  0  0
   18.0455    8.5008   33.7309 H   0  0  0  0  0  0  0  0  0  0  0  0
   18.3252   10.1916   33.9909 H   0  0  0  0  0  0  0  0  0  0  0  0
   20.2728   10.4193   32.4027 C   0  0  0  0  0  0  0  0  0  0  0  0
   19.8378   11.7217   32.7731 C   0  0  0  0  0  0  0  0  0  0  0  0
   19.4934   12.7910   33.0791 N   0  0  0  0  0  0  0  0  0  0  0  0
   21.7096   12.2668   30.4039 C   0  0  0  0  0  0  0  0  0  0  0  0
   21.7826   13.2683   30.8377 H   0  0  0  0  0  0  0  0  0  0  0  0
   20.6463   12.0693   30.2224 H   0  0  0  0  0  0  0  0  0  0  0  0
   22.4523   12.2546   29.0415 C   0  0  0  0  0  0  0  0  0  0  0  0
   22.1320   13.1099   28.4383 H   0  0  0  0  0  0  0  0  0  0  0  0
   22.1644   11.3440   28.5074 H   0  0  0  0  0  0  0  0  0  0  0  0
  1  2  1  0
  2  3  1  0
  3  4  1  0
  3  5  1  0
  3  6  1  0
  6  7  1  0
  6  8  1  0
  6  9  1  0
  9 10  1  0
 10 11  1  0
 10 12  1  0
 10 13  1  0
 13 14  1  0
 13 15  1  0
 13 16  1  0
 16 17  1  0
 17 18  2  0
 18 19  1  0
 19 20  1  0
 20 21  1  0
 20 22  1  0
 22 23  2  0
 22 24  1  0
 24 25  1  0
 24 26  1  0
 24 27  1  0
 27 28  2  0
 28 29  1  0
 28 30  1  0
 30 31  1  0
 31 32  1  0
 32 33  1  0
 32 34  1  0
 32 35  1  0
 30 36  2  0
 36 37  1  0
 36 38  1  0
 38 39  1  0
 38 40  2  0
 40 41  1  0
 41 42  1  0
 42 43  1  0
 42 44  1  0
 42 45  1  0
 19 46  2  0
 46 47  1  0
 46 48  1  0
 48 49  1  0
 49 50  1  0
 49 51  1  0
 48 52  2  0
 52 53  1  0
 53 54  3  0
 16 55  1  0
 55 56  1  0
 55 57  1  0
 55 58  1  0
 58 59  1  0
 58 60  1  0
 58  9  1  0
 52 17  1  0
 40 27  1  0
M  END
>  <score>  (341) 
7.70198

$$$$

     RDKit          3D

 47 49  0  0  0  0  0  0  0  0999 V2000
   26.1009    5.4862   30.8709 H   0  0  0  0  0  0  0  0  0  0  0  0
   25.2706    4.8340   31.1196 C   0  0  0  0  0  0  0  0  0  0  0  0
   25.4863    3.7303   31.9481 C   0  0  0  0  0  0  0  0  0  0  0  0
   27.2459    3.4276   32.6440 Br  0  0  0  0  0  0  0  0  0  0  0  0
   24.4231    2.8680   32.2554 C   0  0  0  0  0  0  0  0  0  0  0  0
   24.6657    1.7793   33.0596 O   0  0  0  0  0  0  0  0  0  0  0  0
   23.6392    0.7797   33.0920 C   0  0  0  0  0  0  0  0  0  0  0  0
   23.4271    0.4175   32.0814 H   0  0  0  0  0  0  0  0  0  0  0  0
   22.7190    1.1868   33.5208 H   0  0  0  0  0  0  0  0  0  0  0  0
   23.9651   -0.0667   33.7032 H   0  0  0  0  0  0  0  0  0  0  0  0
   23.1469    3.1547   31.7385 C   0  0  0  0  0  0  0  0  0  0  0  0
   22.3258    2.4900   31.9900 H   0  0  0  0  0  0  0  0  0  0  0  0
   22.9211    4.2732   30.9218 C   0  0  0  0  0  0  0  0  0  0  0  0
   21.5118    4.5554   30.4324 C   0  0  0  0  0  0  0  0  0  0  0  0
   20.9009    3.6493   30.4893 H   0  0  0  0  0  0  0  0  0  0  0  0
   21.5504    4.8771   29.3879 H   0  0  0  0  0  0  0  0  0  0  0  0
   20.8431    5.6594   31.2465 C   0  0  0  0  0  0  0  0  0  0  0  0
   19.6685    5.5766   31.5712 O   0  0  0  0  0  0  0  0  0  0  0  0
   21.5425    6.8102   31.4604 N   0  0  0  0  0  0  0  0  0  0  0  0
   22.4252    6.9180   30.9860 H   0  0  0  0  0  0  0  0  0  0  0  0
   20.9951    7.9832   31.8130 C   0  0  0  0  0  0  0  0  0  0  0  0
   21.7848    8.9674   31.4418 N   0  0  0  0  0  0  0  0  0  0  0  0
   21.4668   10.2408   31.7249 C   0  0  0  0  0  0  0  0  0  0  0  0
   22.4191   11.3108   31.2496 C   0  0  0  0  0  0  0  0  0  0  0  0
   22.3095   12.5898   31.5277 N   0  0  0  0  0  0  0  0  0  0  0  0
   23.3381   13.2413   30.9127 N   0  0  0  0  0  0  0  0  0  0  0  0
   24.0330   12.3369   30.2754 C   0  0  0  0  0  0  0  0  0  0  0  0
   25.2272   12.6275   29.4142 C   0  0  0  0  0  0  0  0  0  0  0  0
   25.0765   13.5837   28.9081 H   0  0  0  0  0  0  0  0  0  0  0  0
   25.3801   11.8457   28.6590 H   0  0  0  0  0  0  0  0  0  0  0  0
   26.1234   12.6954   30.0356 H   0  0  0  0  0  0  0  0  0  0  0  0
   23.5266   11.0959   30.4696 O   0  0  0  0  0  0  0  0  0  0  0  0
   20.2816   10.5063   32.4229 C   0  0  0  0  0  0  0  0  0  0  0  0
   19.9625   11.8474   32.7935 C   0  0  0  0  0  0  0  0  0  0  0  0
   19.7582   12.9487   33.0982 N   0  0  0  0  0  0  0  0  0  0  0  0
   19.4692    9.4424   32.7689 C   0  0  0  0  0  0  0  0  0  0  0  0
   18.3289    9.5699   33.4834 N   0  0  0  0  0  0  0  0  0  0  0  0
   18.1186    8.7801   34.0882 H   0  0  0  0  0  0  0  0  0  0  0  0
   18.0354   10.5033   33.7664 H   0  0  0  0  0  0  0  0  0  0  0  0
   19.8195    8.1617   32.4764 C   0  0  0  0  0  0  0  0  0  0  0  0
   19.1933    7.3367   32.7824 H   0  0  0  0  0  0  0  0  0  0  0  0
   23.9989    5.1289   30.6025 C   0  0  0  0  0  0  0  0  0  0  0  0
   23.7840    6.2384   29.8131 O   0  0  0  0  0  0  0  0  0  0  0  0
   24.9208    7.0958   29.6173 C   0  0  0  0  0  0  0  0  0  0  0  0
   25.7321    6.5561   29.1172 H   0  0  0  0  0  0  0  0  0  0  0  0
   24.6447    7.9559   29.0015 H   0  0  0  0  0  0  0  0  0  0  0  0
   25.2905    7.4612   30.5807 H   0  0  0  0  0  0  0  0  0  0  0  0
  1  2  1  0
  2  3  2  0
  3  4  1  0
  3  5  1  0
  5  6  1  0
  6  7  1  0
  7  8  1  0
  7  9  1  0
  7 10  1  0
  5 11  2  0
 11 12  1  0
 11 13  1  0
 13 14  1  0
 14 15  1  0
 14 16  1  0
 14 17  1  0
 17 18  2  0
 17 19  1  0
 19 20  1  0
 19 21  1  0
 21 22  2  0
 22 23  1  0
 23 24  1  0
 24 25  2  0
 25 26  1  0
 26 27  2  0
 27 28  1  0
 28 29  1  0
 28 30  1  0
 28 31  1  0
 27 32  1  0
 23 33  2  0
 33 34  1  0
 34 35  3  0
 33 36  1  0
 36 37  1  0
 37 38  1  0
 37 39  1  0
 36 40  2  0
 40 41  1  0
 13 42  2  0
 42 43  1  0
 43 44  1  0
 44 45  1  0
 44 46  1  0
 44 47  1  0
 42  2  1  0
 40 21  1  0
 32 24  1  0
M  END
>  <score>  (342) 
7.70209

$$$$

     RDKit          3D

 50 52  0  0  0  0  0  0  0  0999 V2000
   26.1464   15.2752   28.2979 H   0  0  0  0  0  0  0  0  0  0  0  0
   25.4486   14.6409   28.8361 C   0  0  0  0  0  0  0  0  0  0  0  0
   25.8597   13.9135   29.8874 N   0  0  0  0  0  0  0  0  0  0  0  0
   24.9562   13.1395   30.5092 C   0  0  0  0  0  0  0  0  0  0  0  0
   25.2985   12.5427   31.3470 H   0  0  0  0  0  0  0  0  0  0  0  0
   23.6123   13.0669   30.1181 C   0  0  0  0  0  0  0  0  0  0  0  0
   22.7481   12.1433   30.7729 C   0  0  0  0  0  0  0  0  0  0  0  0
   22.0683   11.2736   31.2752 C   0  0  0  0  0  0  0  0  0  0  0  0
   21.3035   10.1779   31.7858 C   0  0  0  0  0  0  0  0  0  0  0  0
   21.7029    8.9595   31.4271 N   0  0  0  0  0  0  0  0  0  0  0  0
   20.9870    7.9313   31.8106 C   0  0  0  0  0  0  0  0  0  0  0  0
   21.5516    6.8037   31.3481 N   0  0  0  0  0  0  0  0  0  0  0  0
   22.4274    6.9491   30.8645 H   0  0  0  0  0  0  0  0  0  0  0  0
   20.8759    5.6364   31.1434 C   0  0  0  0  0  0  0  0  0  0  0  0
   19.7120    5.5322   31.4990 O   0  0  0  0  0  0  0  0  0  0  0  0
   21.5601    4.5183   30.3641 C   0  0  0  0  0  0  0  0  0  0  0  0
   20.9493    3.6156   30.4362 H   0  0  0  0  0  0  0  0  0  0  0  0
   21.6179    4.7983   29.3087 H   0  0  0  0  0  0  0  0  0  0  0  0
   22.9564    4.2526   30.8931 C   0  0  0  0  0  0  0  0  0  0  0  0
   23.1694    3.1479   31.7288 C   0  0  0  0  0  0  0  0  0  0  0  0
   22.3409    2.4922   31.9748 H   0  0  0  0  0  0  0  0  0  0  0  0
   24.4401    2.8618   32.2600 C   0  0  0  0  0  0  0  0  0  0  0  0
   24.6729    1.7787   33.0761 O   0  0  0  0  0  0  0  0  0  0  0  0
   23.6516    0.7725   33.1008 C   0  0  0  0  0  0  0  0  0  0  0  0
   22.7285    1.1709   33.5333 H   0  0  0  0  0  0  0  0  0  0  0  0
   23.9835   -0.0730   33.7099 H   0  0  0  0  0  0  0  0  0  0  0  0
   23.4449    0.4094   32.0882 H   0  0  0  0  0  0  0  0  0  0  0  0
   25.5090    3.7169   31.9493 C   0  0  0  0  0  0  0  0  0  0  0  0
   27.2626    3.4082   32.6556 Br  0  0  0  0  0  0  0  0  0  0  0  0
   25.3035    4.8170   31.1134 C   0  0  0  0  0  0  0  0  0  0  0  0
   26.1415    5.4614   30.8696 H   0  0  0  0  0  0  0  0  0  0  0  0
   24.0358    5.1069   30.5839 C   0  0  0  0  0  0  0  0  0  0  0  0
   23.8180    6.2079   29.7860 O   0  0  0  0  0  0  0  0  0  0  0  0
   24.9336    7.0933   29.6106 C   0  0  0  0  0  0  0  0  0  0  0  0
   25.7584    6.5774   29.1082 H   0  0  0  0  0  0  0  0  0  0  0  0
   24.6375    7.9509   29.0005 H   0  0  0  0  0  0  0  0  0  0  0  0
   25.2840    7.4616   30.5804 H   0  0  0  0  0  0  0  0  0  0  0  0
   19.8421    8.0267   32.5536 C   0  0  0  0  0  0  0  0  0  0  0  0
   19.2800    7.1524   32.8338 H   0  0  0  0  0  0  0  0  0  0  0  0
   19.4450    9.2743   32.9250 C   0  0  0  0  0  0  0  0  0  0  0  0
   18.2911    9.3801   33.6240 N   0  0  0  0  0  0  0  0  0  0  0  0
   17.8401    8.5302   33.9598 H   0  0  0  0  0  0  0  0  0  0  0  0
   18.0169   10.2918   33.9827 H   0  0  0  0  0  0  0  0  0  0  0  0
   20.1803   10.3791   32.5725 C   0  0  0  0  0  0  0  0  0  0  0  0
   19.7866   11.6856   32.9832 C   0  0  0  0  0  0  0  0  0  0  0  0
   19.5042   12.7658   33.3027 N   0  0  0  0  0  0  0  0  0  0  0  0
   23.1762   13.8176   29.0235 C   0  0  0  0  0  0  0  0  0  0  0  0
   22.1404   13.7761   28.6727 H   0  0  0  0  0  0  0  0  0  0  0  0
   24.1341   14.5925   28.3692 C   0  0  0  0  0  0  0  0  0  0  0  0
   23.8794   15.1750   27.4957 H   0  0  0  0  0  0  0  0  0  0  0  0
  1  2  1  0
  2  3  2  0
  3  4  1  0
  4  5  1  0
  4  6  2  0
  6  7  1  0
  7  8  3  0
  8  9  1  0
  9 10  2  0
 10 11  1  0
 11 12  1  0
 12 13  1  0
 12 14  1  0
 14 15  2  0
 14 16  1  0
 16 17  1  0
 16 18  1  0
 16 19  1  0
 19 20  2  0
 20 21  1  0
 20 22  1  0
 22 23  1  0
 23 24  1  0
 24 25  1  0
 24 26  1  0
 24 27  1  0
 22 28  2  0
 28 29  1  0
 28 30  1  0
 30 31  1  0
 30 32  2  0
 32 33  1  0
 33 34  1  0
 34 35  1  0
 34 36  1  0
 34 37  1  0
 11 38  2  0
 38 39  1  0
 38 40  1  0
 40 41  1  0
 41 42  1  0
 41 43  1  0
 40 44  2  0
 44 45  1  0
 45 46  3  0
  6 47  1  0
 47 48  1  0
 47 49  2  0
 49 50  1  0
 49  2  1  0
 44  9  1  0
 32 19  1  0
M  END
>  <score>  (343) 
7.70348

$$$$

     RDKit          3D

 49 51  0  0  0  0  0  0  0  0999 V2000
   26.3056    9.3295   30.1668 H   0  0  0  0  0  0  0  0  0  0  0  0
   25.3938    9.9219   30.1184 C   0  0  0  0  0  0  0  0  0  0  0  0
   24.3176   10.1632   31.4842 S   0  0  0  0  0  0  0  0  0  0  0  0
   23.2006   11.0811   30.4780 C   0  0  0  0  0  0  0  0  0  0  0  0
   21.7944   11.4372   30.8916 C   0  0  0  0  0  0  0  0  0  0  0  0
   21.2388   11.7748   30.0131 H   0  0  0  0  0  0  0  0  0  0  0  0
   21.8216   12.2519   31.6173 H   0  0  0  0  0  0  0  0  0  0  0  0
   21.0801   10.2449   31.4908 C   0  0  0  0  0  0  0  0  0  0  0  0
   21.4896    9.0300   31.1184 N   0  0  0  0  0  0  0  0  0  0  0  0
   20.9515    7.9717   31.6679 C   0  0  0  0  0  0  0  0  0  0  0  0
   21.5390    6.8441   31.2320 N   0  0  0  0  0  0  0  0  0  0  0  0
   22.3274    6.9912   30.6197 H   0  0  0  0  0  0  0  0  0  0  0  0
   20.8911    5.6469   31.1549 C   0  0  0  0  0  0  0  0  0  0  0  0
   19.7562    5.5291   31.5885 O   0  0  0  0  0  0  0  0  0  0  0  0
   21.5448    4.5005   30.3980 C   0  0  0  0  0  0  0  0  0  0  0  0
   20.9484    3.5941   30.5314 H   0  0  0  0  0  0  0  0  0  0  0  0
   21.5650    4.7490   29.3349 H   0  0  0  0  0  0  0  0  0  0  0  0
   22.9445    4.2524   30.8969 C   0  0  0  0  0  0  0  0  0  0  0  0
   23.1664    3.1341   31.7064 C   0  0  0  0  0  0  0  0  0  0  0  0
   22.3470    2.4566   31.9275 H   0  0  0  0  0  0  0  0  0  0  0  0
   24.4297    2.8630   32.2469 C   0  0  0  0  0  0  0  0  0  0  0  0
   24.6548    1.7671   33.0468 O   0  0  0  0  0  0  0  0  0  0  0  0
   23.6070    0.7858   33.0811 C   0  0  0  0  0  0  0  0  0  0  0  0
   23.9136   -0.0656   33.6973 H   0  0  0  0  0  0  0  0  0  0  0  0
   22.6945    1.2152   33.5085 H   0  0  0  0  0  0  0  0  0  0  0  0
   23.3896    0.4238   32.0695 H   0  0  0  0  0  0  0  0  0  0  0  0
   25.4843    3.7442   31.9654 C   0  0  0  0  0  0  0  0  0  0  0  0
   27.2267    3.4426   32.6945 Br  0  0  0  0  0  0  0  0  0  0  0  0
   25.2678    4.8534   31.1414 C   0  0  0  0  0  0  0  0  0  0  0  0
   26.0856    5.5278   30.9174 H   0  0  0  0  0  0  0  0  0  0  0  0
   24.0059    5.1309   30.5989 C   0  0  0  0  0  0  0  0  0  0  0  0
   23.7858    6.2404   29.8089 O   0  0  0  0  0  0  0  0  0  0  0  0
   24.9129    7.1120   29.6163 C   0  0  0  0  0  0  0  0  0  0  0  0
   25.7253    6.5791   29.1102 H   0  0  0  0  0  0  0  0  0  0  0  0
   25.2805    7.4799   30.5809 H   0  0  0  0  0  0  0  0  0  0  0  0
   24.6280    7.9717   29.0023 H   0  0  0  0  0  0  0  0  0  0  0  0
   19.9430    8.0225   32.5796 C   0  0  0  0  0  0  0  0  0  0  0  0
   19.5312    7.1284   33.0152 H   0  0  0  0  0  0  0  0  0  0  0  0
   19.4932    9.2468   32.9339 C   0  0  0  0  0  0  0  0  0  0  0  0
   18.4535    9.2227   33.7942 N   0  0  0  0  0  0  0  0  0  0  0  0
   17.7825    9.9731   33.6712 H   0  0  0  0  0  0  0  0  0  0  0  0
   18.0968    8.2827   33.9575 H   0  0  0  0  0  0  0  0  0  0  0  0
   20.0525   10.3944   32.4185 C   0  0  0  0  0  0  0  0  0  0  0  0
   19.6223   11.6777   32.8586 C   0  0  0  0  0  0  0  0  0  0  0  0
   19.2966   12.7317   33.2266 N   0  0  0  0  0  0  0  0  0  0  0  0
   23.6653   11.2390   29.2022 C   0  0  0  0  0  0  0  0  0  0  0  0
   23.1124   11.7459   28.4172 H   0  0  0  0  0  0  0  0  0  0  0  0
   24.9436   10.5744   28.9967 C   0  0  0  0  0  0  0  0  0  0  0  0
   25.4546   10.5530   28.0407 H   0  0  0  0  0  0  0  0  0  0  0  0
  1  2  1  0
  2  3  1  0
  3  4  1  0
  4  5  1  0
  5  6  1  0
  5  7  1  0
  5  8  1  0
  8  9  2  0
  9 10  1  0
 10 11  1  0
 11 12  1  0
 11 13  1  0
 13 14  2  0
 13 15  1  0
 15 16  1  0
 15 17  1  0
 15 18  1  0
 18 19  2  0
 19 20  1  0
 19 21  1  0
 21 22  1  0
 22 23  1  0
 23 24  1  0
 23 25  1  0
 23 26  1  0
 21 27  2  0
 27 28  1  0
 27 29  1  0
 29 30  1  0
 29 31  2  0
 31 32  1  0
 32 33  1  0
 33 34  1  0
 33 35  1  0
 33 36  1  0
 10 37  2  0
 37 38  1  0
 37 39  1  0
 39 40  1  0
 40 41  1  0
 40 42  1  0
 39 43  2  0
 43 44  1  0
 44 45  3  0
  4 46  2  0
 46 47  1  0
 46 48  1  0
 48 49  1  0
 48  2  2  0
 43  8  1  0
 31 18  1  0
M  END
>  <score>  (344) 
7.70503

$$$$

     RDKit          3D

 61 64  0  0  0  0  0  0  0  0999 V2000
   26.7020    9.6048   27.0595 H   0  0  0  0  0  0  0  0  0  0  0  0
   26.1591   10.3859   27.5849 C   0  0  0  0  0  0  0  0  0  0  0  0
   26.1203   10.3818   28.9829 C   0  0  0  0  0  0  0  0  0  0  0  0
   26.6204    9.5971   29.5479 H   0  0  0  0  0  0  0  0  0  0  0  0
   25.4374   11.4032   29.6529 C   0  0  0  0  0  0  0  0  0  0  0  0
   25.3852   11.4031   30.7326 H   0  0  0  0  0  0  0  0  0  0  0  0
   24.8248   12.4478   28.9495 C   0  0  0  0  0  0  0  0  0  0  0  0
   24.1771   13.5862   29.7012 C   0  0  2  0  0  0  0  0  0  0  0  0
   24.4876   14.5756   29.3615 H   0  0  0  0  0  0  0  0  0  0  0  0
   23.9138   13.4497   31.1935 C   0  0  0  0  0  0  0  0  0  0  0  0
   23.9693   14.3048   31.8548 H   0  0  0  0  0  0  0  0  0  0  0  0
   24.1604   12.4950   31.6707 H   0  0  0  0  0  0  0  0  0  0  0  0
   22.7488   13.4560   30.2156 C   0  0  2  0  0  0  0  0  0  0  0  0
   22.1029   14.3414   30.2127 H   0  0  0  0  0  0  0  0  0  0  0  0
   22.0632   12.1657   30.1523 N   0  0  0  0  0  0  0  0  0  0  0  0
   22.3447   11.6774   29.2967 H   0  0  0  0  0  0  0  0  0  0  0  0
   22.2551   11.3105   31.3633 C   0  0  0  0  0  0  0  0  0  0  0  0
   22.2422   11.9699   32.2351 H   0  0  0  0  0  0  0  0  0  0  0  0
   23.2533   10.8728   31.3092 H   0  0  0  0  0  0  0  0  0  0  0  0
   21.2943   10.1685   31.6782 C   0  0  0  0  0  0  0  0  0  0  0  0
   21.6646    8.9398   31.2955 N   0  0  0  0  0  0  0  0  0  0  0  0
   20.9295    7.9095   31.6308 C   0  0  0  0  0  0  0  0  0  0  0  0
   21.4825    6.7764   31.1623 N   0  0  0  0  0  0  0  0  0  0  0  0
   22.3270    6.9118   30.6272 H   0  0  0  0  0  0  0  0  0  0  0  0
   20.8876    5.5535   31.1576 C   0  0  0  0  0  0  0  0  0  0  0  0
   19.8018    5.3809   31.6852 O   0  0  0  0  0  0  0  0  0  0  0  0
   21.5463    4.4467   30.3546 C   0  0  0  0  0  0  0  0  0  0  0  0
   21.5868    4.7447   29.3059 H   0  0  0  0  0  0  0  0  0  0  0  0
   20.9464    3.5353   30.4242 H   0  0  0  0  0  0  0  0  0  0  0  0
   22.9436    4.2187   30.8703 C   0  0  0  0  0  0  0  0  0  0  0  0
   23.1662    3.1325   31.7219 C   0  0  0  0  0  0  0  0  0  0  0  0
   22.3427    2.4725   31.9784 H   0  0  0  0  0  0  0  0  0  0  0  0
   24.4386    2.8762   32.2585 C   0  0  0  0  0  0  0  0  0  0  0  0
   24.6855    1.8134   33.0937 O   0  0  0  0  0  0  0  0  0  0  0  0
   23.6742    0.7991   33.1441 C   0  0  0  0  0  0  0  0  0  0  0  0
   23.9623    0.0391   33.8758 H   0  0  0  0  0  0  0  0  0  0  0  0
   22.7105    1.2230   33.4423 H   0  0  0  0  0  0  0  0  0  0  0  0
   23.5611    0.3216   32.1647 H   0  0  0  0  0  0  0  0  0  0  0  0
   25.4963    3.7401   31.9315 C   0  0  0  0  0  0  0  0  0  0  0  0
   27.2634    3.4501   32.6069 Br  0  0  0  0  0  0  0  0  0  0  0  0
   25.2728    4.8317   31.0887 C   0  0  0  0  0  0  0  0  0  0  0  0
   26.0913    5.4951   30.8284 H   0  0  0  0  0  0  0  0  0  0  0  0
   24.0032    5.0971   30.5571 C   0  0  0  0  0  0  0  0  0  0  0  0
   23.7707    6.2010   29.7654 O   0  0  0  0  0  0  0  0  0  0  0  0
   24.8902    7.0760   29.5568 C   0  0  0  0  0  0  0  0  0  0  0  0
   25.4145    7.2742   30.4986 H   0  0  0  0  0  0  0  0  0  0  0  0
   25.6000    6.6248   28.8557 H   0  0  0  0  0  0  0  0  0  0  0  0
   24.5369    8.0265   29.1469 H   0  0  0  0  0  0  0  0  0  0  0  0
   19.7964    8.0026   32.3835 C   0  0  0  0  0  0  0  0  0  0  0  0
   19.2233    7.1320   32.6399 H   0  0  0  0  0  0  0  0  0  0  0  0
   19.4297    9.2440   32.8171 C   0  0  0  0  0  0  0  0  0  0  0  0
   18.3365    9.3221   33.6085 N   0  0  0  0  0  0  0  0  0  0  0  0
   17.7599   10.1475   33.4888 H   0  0  0  0  0  0  0  0  0  0  0  0
   17.8639    8.4392   33.7864 H   0  0  0  0  0  0  0  0  0  0  0  0
   20.1669   10.3555   32.4712 C   0  0  0  0  0  0  0  0  0  0  0  0
   19.8418   11.6619   32.9438 C   0  0  0  0  0  0  0  0  0  0  0  0
   19.6497   12.7467   33.3174 N   0  0  0  0  0  0  0  0  0  0  0  0
   24.8404   12.4269   27.5490 C   0  0  0  0  0  0  0  0  0  0  0  0
   24.3411   13.2139   26.9899 H   0  0  0  0  0  0  0  0  0  0  0  0
   25.4911   11.3884   26.8669 C   0  0  0  0  0  0  0  0  0  0  0  0
   25.4818   11.3722   25.7825 H   0  0  0  0  0  0  0  0  0  0  0  0
  1  2  1  0
  2  3  2  0
  3  4  1  0
  3  5  1  0
  5  6  1  0
  5  7  2  0
  7  8  1  0
  8  9  1  1
  8 10  1  0
 10 11  1  0
 10 12  1  0
 10 13  1  0
 13 14  1  1
 13 15  1  0
 15 16  1  0
 15 17  1  0
 17 18  1  0
 17 19  1  0
 17 20  1  0
 20 21  2  0
 21 22  1  0
 22 23  1  0
 23 24  1  0
 23 25  1  0
 25 26  2  0
 25 27  1  0
 27 28  1  0
 27 29  1  0
 27 30  1  0
 30 31  2  0
 31 32  1  0
 31 33  1  0
 33 34  1  0
 34 35  1  0
 35 36  1  0
 35 37  1  0
 35 38  1  0
 33 39  2  0
 39 40  1  0
 39 41  1  0
 41 42  1  0
 41 43  2  0
 43 44  1  0
 44 45  1  0
 45 46  1  0
 45 47  1  0
 45 48  1  0
 22 49  2  0
 49 50  1  0
 49 51  1  0
 51 52  1  0
 52 53  1  0
 52 54  1  0
 51 55  2  0
 55 56  1  0
 56 57  3  0
  7 58  1  0
 58 59  1  0
 58 60  2  0
 60 61  1  0
 60  2  1  0
 13  8  1  0
 55 20  1  0
 43 30  1  0
M  END
>  <score>  (345) 
7.70505

$$$$

     RDKit          3D

 48 50  0  0  0  0  0  0  0  0999 V2000
   22.0578   12.7867   32.8403 H   0  0  0  0  0  0  0  0  0  0  0  0
   22.4865   12.5435   31.8708 C   0  0  0  0  0  0  0  0  0  0  0  0
   23.5977   13.6129   31.0563 S   0  0  0  0  0  0  0  0  0  0  0  0
   23.6542   12.4607   29.7360 C   0  0  0  0  0  0  0  0  0  0  0  0
   24.3108   12.7405   28.4182 C   0  0  0  0  0  0  0  0  0  0  0  0
   24.3759   11.8289   27.8185 H   0  0  0  0  0  0  0  0  0  0  0  0
   23.6879   13.4608   27.8884 H   0  0  0  0  0  0  0  0  0  0  0  0
   25.3149   13.1600   28.5293 H   0  0  0  0  0  0  0  0  0  0  0  0
   22.9463   11.3761   29.9284 N   0  0  0  0  0  0  0  0  0  0  0  0
   22.2723   11.3759   31.1623 C   0  0  0  0  0  0  0  0  0  0  0  0
   21.3944   10.2360   31.6503 C   0  0  0  0  0  0  0  0  0  0  0  0
   21.7200    8.9656   31.3304 N   0  0  0  0  0  0  0  0  0  0  0  0
   20.9944    7.9567   31.7566 C   0  0  0  0  0  0  0  0  0  0  0  0
   21.5770    6.8012   31.3813 N   0  0  0  0  0  0  0  0  0  0  0  0
   22.4306    6.9461   30.8611 H   0  0  0  0  0  0  0  0  0  0  0  0
   20.9085    5.6419   31.1434 C   0  0  0  0  0  0  0  0  0  0  0  0
   19.7159    5.5684   31.3917 O   0  0  0  0  0  0  0  0  0  0  0  0
   21.6031    4.5453   30.3500 C   0  0  0  0  0  0  0  0  0  0  0  0
   20.9890    3.6434   30.3562 H   0  0  0  0  0  0  0  0  0  0  0  0
   21.6850    4.8897   29.3172 H   0  0  0  0  0  0  0  0  0  0  0  0
   22.9854    4.2474   30.8907 C   0  0  0  0  0  0  0  0  0  0  0  0
   23.1792    3.1390   31.7318 C   0  0  0  0  0  0  0  0  0  0  0  0
   22.3482    2.4876   31.9831 H   0  0  0  0  0  0  0  0  0  0  0  0
   24.4438    2.8482   32.2707 C   0  0  0  0  0  0  0  0  0  0  0  0
   24.6699    1.7845   33.1152 O   0  0  0  0  0  0  0  0  0  0  0  0
   23.6830    0.7428   33.1332 C   0  0  0  0  0  0  0  0  0  0  0  0
   23.4887    0.3766   32.1197 H   0  0  0  0  0  0  0  0  0  0  0  0
   24.0481   -0.0950   33.7355 H   0  0  0  0  0  0  0  0  0  0  0  0
   22.7452    1.0978   33.5719 H   0  0  0  0  0  0  0  0  0  0  0  0
   25.5229    3.6858   31.9453 C   0  0  0  0  0  0  0  0  0  0  0  0
   27.2739    3.3346   32.6375 Br  0  0  0  0  0  0  0  0  0  0  0  0
   25.3325    4.7876   31.1015 C   0  0  0  0  0  0  0  0  0  0  0  0
   26.1715    5.4254   30.8470 H   0  0  0  0  0  0  0  0  0  0  0  0
   24.0698    5.0883   30.5710 C   0  0  0  0  0  0  0  0  0  0  0  0
   23.8472    6.1785   29.7562 O   0  0  0  0  0  0  0  0  0  0  0  0
   24.9303    7.1079   29.5940 C   0  0  0  0  0  0  0  0  0  0  0  0
   24.5966    7.9586   28.9929 H   0  0  0  0  0  0  0  0  0  0  0  0
   25.7774    6.6392   29.0819 H   0  0  0  0  0  0  0  0  0  0  0  0
   25.2651    7.4863   30.5657 H   0  0  0  0  0  0  0  0  0  0  0  0
   19.8526    8.1094   32.4876 C   0  0  0  0  0  0  0  0  0  0  0  0
   19.2465    7.2703   32.7763 H   0  0  0  0  0  0  0  0  0  0  0  0
   19.5196    9.3723   32.8662 C   0  0  0  0  0  0  0  0  0  0  0  0
   18.4439    9.4873   33.6843 N   0  0  0  0  0  0  0  0  0  0  0  0
   18.1269   10.4160   33.9430 H   0  0  0  0  0  0  0  0  0  0  0  0
   17.8899    8.6592   33.9075 H   0  0  0  0  0  0  0  0  0  0  0  0
   20.2745   10.4626   32.4681 C   0  0  0  0  0  0  0  0  0  0  0  0
   19.9254   11.7787   32.9005 C   0  0  0  0  0  0  0  0  0  0  0  0
   19.6847   12.8625   33.2473 N   0  0  0  0  0  0  0  0  0  0  0  0
  1  2  1  0
  2  3  1  0
  3  4  1  0
  4  5  1  0
  5  6  1  0
  5  7  1  0
  5  8  1  0
  4  9  2  0
  9 10  1  0
 10 11  1  0
 11 12  2  0
 12 13  1  0
 13 14  1  0
 14 15  1  0
 14 16  1  0
 16 17  2  0
 16 18  1  0
 18 19  1  0
 18 20  1  0
 18 21  1  0
 21 22  2  0
 22 23  1  0
 22 24  1  0
 24 25  1  0
 25 26  1  0
 26 27  1  0
 26 28  1  0
 26 29  1  0
 24 30  2  0
 30 31  1  0
 30 32  1  0
 32 33  1  0
 32 34  2  0
 34 35  1  0
 35 36  1  0
 36 37  1  0
 36 38  1  0
 36 39  1  0
 13 40  2  0
 40 41  1  0
 40 42  1  0
 42 43  1  0
 43 44  1  0
 43 45  1  0
 42 46  2  0
 46 47  1  0
 47 48  3  0
 10  2  2  0
 46 11  1  0
 34 21  1  0
M  END
>  <score>  (346) 
7.70639

$$$$

     RDKit          3D

 51 53  0  0  0  0  0  0  0  0999 V2000
   25.5434   12.3376   31.1840 H   0  0  0  0  0  0  0  0  0  0  0  0
   24.4787   12.3663   30.9691 C   0  0  0  0  0  0  0  0  0  0  0  0
   23.9883   13.4204   30.3027 N   0  0  0  0  0  0  0  0  0  0  0  0
   22.6701   13.4547   30.0568 C   0  0  0  0  0  0  0  0  0  0  0  0
   22.1287   14.5854   29.2430 C   0  0  0  0  0  0  0  0  0  0  0  0
   21.2647   15.0314   29.7424 H   0  0  0  0  0  0  0  0  0  0  0  0
   22.8922   15.3543   29.0998 H   0  0  0  0  0  0  0  0  0  0  0  0
   21.8249   14.2116   28.2620 H   0  0  0  0  0  0  0  0  0  0  0  0
   21.7948   12.4486   30.5008 C   0  0  0  0  0  0  0  0  0  0  0  0
   20.7390   12.5597   30.2743 H   0  0  0  0  0  0  0  0  0  0  0  0
   22.2817   11.3189   31.1851 C   0  0  0  0  0  0  0  0  0  0  0  0
   21.3921   10.2224   31.6717 C   0  0  0  0  0  0  0  0  0  0  0  0
   21.7132    8.9614   31.3639 N   0  0  0  0  0  0  0  0  0  0  0  0
   20.9514    7.9783   31.7853 C   0  0  0  0  0  0  0  0  0  0  0  0
   21.5235    6.8205   31.4070 N   0  0  0  0  0  0  0  0  0  0  0  0
   22.4077    6.9639   30.9417 H   0  0  0  0  0  0  0  0  0  0  0  0
   20.8783    5.6460   31.1511 C   0  0  0  0  0  0  0  0  0  0  0  0
   19.6877    5.5392   31.3906 O   0  0  0  0  0  0  0  0  0  0  0  0
   21.6013    4.5578   30.3502 C   0  0  0  0  0  0  0  0  0  0  0  0
   21.0001    3.6439   30.3395 H   0  0  0  0  0  0  0  0  0  0  0  0
   21.6973    4.9032   29.3173 H   0  0  0  0  0  0  0  0  0  0  0  0
   22.9842    4.2572   30.8946 C   0  0  0  0  0  0  0  0  0  0  0  0
   23.1766    3.1457   31.7339 C   0  0  0  0  0  0  0  0  0  0  0  0
   22.3413    2.4978   31.9815 H   0  0  0  0  0  0  0  0  0  0  0  0
   24.4414    2.8484   32.2707 C   0  0  0  0  0  0  0  0  0  0  0  0
   24.6663    1.7848   33.1165 O   0  0  0  0  0  0  0  0  0  0  0  0
   23.6867    0.7368   33.1380 C   0  0  0  0  0  0  0  0  0  0  0  0
   22.7475    1.0851   33.5784 H   0  0  0  0  0  0  0  0  0  0  0  0
   23.4924    0.3672   32.1261 H   0  0  0  0  0  0  0  0  0  0  0  0
   24.0613   -0.0970   33.7409 H   0  0  0  0  0  0  0  0  0  0  0  0
   25.5243    3.6814   31.9440 C   0  0  0  0  0  0  0  0  0  0  0  0
   27.2734    3.3164   32.6365 Br  0  0  0  0  0  0  0  0  0  0  0  0
   25.3388    4.7850   31.1007 C   0  0  0  0  0  0  0  0  0  0  0  0
   26.1842    5.4152   30.8467 H   0  0  0  0  0  0  0  0  0  0  0  0
   24.0751    5.0924   30.5735 C   0  0  0  0  0  0  0  0  0  0  0  0
   23.8547    6.1810   29.7562 O   0  0  0  0  0  0  0  0  0  0  0  0
   24.9317    7.1153   29.5894 C   0  0  0  0  0  0  0  0  0  0  0  0
   24.5887    7.9617   28.9863 H   0  0  0  0  0  0  0  0  0  0  0  0
   25.7804    6.6504   29.0775 H   0  0  0  0  0  0  0  0  0  0  0  0
   25.2668    7.4979   30.5588 H   0  0  0  0  0  0  0  0  0  0  0  0
   19.8014    8.1611   32.5016 C   0  0  0  0  0  0  0  0  0  0  0  0
   19.1586    7.3542   32.8122 H   0  0  0  0  0  0  0  0  0  0  0  0
   19.5154    9.4384   32.8631 C   0  0  0  0  0  0  0  0  0  0  0  0
   18.5070    9.6323   33.7327 N   0  0  0  0  0  0  0  0  0  0  0  0
   17.6233    9.8174   33.2761 H   0  0  0  0  0  0  0  0  0  0  0  0
   18.7611   10.3028   34.4547 H   0  0  0  0  0  0  0  0  0  0  0  0
   20.2789   10.4982   32.4515 C   0  0  0  0  0  0  0  0  0  0  0  0
   19.9600   11.8325   32.8401 C   0  0  0  0  0  0  0  0  0  0  0  0
   19.7430   12.9271   33.1689 N   0  0  0  0  0  0  0  0  0  0  0  0
   23.6706   11.3051   31.3984 C   0  0  0  0  0  0  0  0  0  0  0  0
   24.1415   10.4908   31.9380 H   0  0  0  0  0  0  0  0  0  0  0  0
  1  2  1  0
  2  3  2  0
  3  4  1  0
  4  5  1  0
  5  6  1  0
  5  7  1  0
  5  8  1  0
  4  9  2  0
  9 10  1  0
  9 11  1  0
 11 12  1  0
 12 13  2  0
 13 14  1  0
 14 15  1  0
 15 16  1  0
 15 17  1  0
 17 18  2  0
 17 19  1  0
 19 20  1  0
 19 21  1  0
 19 22  1  0
 22 23  2  0
 23 24  1  0
 23 25  1  0
 25 26  1  0
 26 27  1  0
 27 28  1  0
 27 29  1  0
 27 30  1  0
 25 31  2  0
 31 32  1  0
 31 33  1  0
 33 34  1  0
 33 35  2  0
 35 36  1  0
 36 37  1  0
 37 38  1  0
 37 39  1  0
 37 40  1  0
 14 41  2  0
 41 42  1  0
 41 43  1  0
 43 44  1  0
 44 45  1  0
 44 46  1  0
 43 47  2  0
 47 48  1  0
 48 49  3  0
 11 50  2  0
 50 51  1  0
 50  2  1  0
 47 12  1  0
 35 22  1  0
M  END
>  <score>  (347) 
7.70864

$$$$

     RDKit          3D

 46 48  0  0  0  0  0  0  0  0999 V2000
   23.2124   14.3611   30.4627 H   0  0  0  0  0  0  0  0  0  0  0  0
   23.1382   13.2916   30.6368 C   0  0  0  0  0  0  0  0  0  0  0  0
   22.0362   12.6323   31.1734 N   0  0  0  0  0  0  0  0  0  0  0  0
   22.3162   11.3366   31.2035 C   0  0  0  0  0  0  0  0  0  0  0  0
   21.4143   10.2239   31.6918 C   0  0  0  0  0  0  0  0  0  0  0  0
   21.7287    8.9455   31.4004 N   0  0  0  0  0  0  0  0  0  0  0  0
   20.9629    7.9565   31.8036 C   0  0  0  0  0  0  0  0  0  0  0  0
   21.5295    6.8079   31.4019 N   0  0  0  0  0  0  0  0  0  0  0  0
   22.3884    6.9546   30.8954 H   0  0  0  0  0  0  0  0  0  0  0  0
   20.8657    5.6447   31.1684 C   0  0  0  0  0  0  0  0  0  0  0  0
   19.6735    5.5630   31.4082 O   0  0  0  0  0  0  0  0  0  0  0  0
   21.5811    4.5624   30.3730 C   0  0  0  0  0  0  0  0  0  0  0  0
   20.9750    3.6563   30.3785 H   0  0  0  0  0  0  0  0  0  0  0  0
   21.6589    4.9172   29.3432 H   0  0  0  0  0  0  0  0  0  0  0  0
   22.9696    4.2627   30.9051 C   0  0  0  0  0  0  0  0  0  0  0  0
   23.1732    3.1478   31.7365 C   0  0  0  0  0  0  0  0  0  0  0  0
   22.3437    2.4927   31.9841 H   0  0  0  0  0  0  0  0  0  0  0  0
   24.4425    2.8542   32.2678 C   0  0  0  0  0  0  0  0  0  0  0  0
   24.6718    1.7841   33.1042 O   0  0  0  0  0  0  0  0  0  0  0  0
   23.6776    0.7495   33.1262 C   0  0  0  0  0  0  0  0  0  0  0  0
   23.4797    0.3848   32.1131 H   0  0  0  0  0  0  0  0  0  0  0  0
   24.0358   -0.0910   33.7299 H   0  0  0  0  0  0  0  0  0  0  0  0
   22.7422    1.1143   33.5622 H   0  0  0  0  0  0  0  0  0  0  0  0
   25.5198    3.6954   31.9442 C   0  0  0  0  0  0  0  0  0  0  0  0
   27.2737    3.3528   32.6372 Br  0  0  0  0  0  0  0  0  0  0  0  0
   25.3242    4.7963   31.1026 C   0  0  0  0  0  0  0  0  0  0  0  0
   26.1667    5.4301   30.8478 H   0  0  0  0  0  0  0  0  0  0  0  0
   24.0574    5.0991   30.5798 C   0  0  0  0  0  0  0  0  0  0  0  0
   23.8398    6.1893   29.7650 O   0  0  0  0  0  0  0  0  0  0  0  0
   24.9336    7.1031   29.5968 C   0  0  0  0  0  0  0  0  0  0  0  0
   25.7751    6.6185   29.0906 H   0  0  0  0  0  0  0  0  0  0  0  0
   24.6106    7.9560   28.9919 H   0  0  0  0  0  0  0  0  0  0  0  0
   25.2734    7.4764   30.5683 H   0  0  0  0  0  0  0  0  0  0  0  0
   19.8087    8.1371   32.5114 C   0  0  0  0  0  0  0  0  0  0  0  0
   19.1800    7.3286   32.8378 H   0  0  0  0  0  0  0  0  0  0  0  0
   19.4997    9.4126   32.8632 C   0  0  0  0  0  0  0  0  0  0  0  0
   18.4496    9.5943   33.7000 N   0  0  0  0  0  0  0  0  0  0  0  0
   17.5928    9.8900   33.2415 H   0  0  0  0  0  0  0  0  0  0  0  0
   18.6856   10.1676   34.4994 H   0  0  0  0  0  0  0  0  0  0  0  0
   20.2834   10.4738   32.4701 C   0  0  0  0  0  0  0  0  0  0  0  0
   19.9520   11.7962   32.8836 C   0  0  0  0  0  0  0  0  0  0  0  0
   19.6876   12.8801   33.2089 N   0  0  0  0  0  0  0  0  0  0  0  0
   23.6027   11.1653   30.7026 N   0  0  0  0  0  0  0  0  0  0  0  0
   24.0833   10.2707   30.6258 H   0  0  0  0  0  0  0  0  0  0  0  0
   24.1186   12.3901   30.3484 C   0  0  0  0  0  0  0  0  0  0  0  0
   25.0908   12.5989   29.9166 H   0  0  0  0  0  0  0  0  0  0  0  0
  1  2  1  0
  2  3  1  0
  3  4  2  0
  4  5  1  0
  5  6  2  0
  6  7  1  0
  7  8  1  0
  8  9  1  0
  8 10  1  0
 10 11  2  0
 10 12  1  0
 12 13  1  0
 12 14  1  0
 12 15  1  0
 15 16  2  0
 16 17  1  0
 16 18  1  0
 18 19  1  0
 19 20  1  0
 20 21  1  0
 20 22  1  0
 20 23  1  0
 18 24  2  0
 24 25  1  0
 24 26  1  0
 26 27  1  0
 26 28  2  0
 28 29  1  0
 29 30  1  0
 30 31  1  0
 30 32  1  0
 30 33  1  0
  7 34  2  0
 34 35  1  0
 34 36  1  0
 36 37  1  0
 37 38  1  0
 37 39  1  0
 36 40  2  0
 40 41  1  0
 41 42  3  0
  4 43  1  0
 43 44  1  0
 43 45  1  0
 45 46  1  0
 45  2  2  0
 40  5  1  0
 28 15  1  0
M  END
>  <score>  (348) 
7.70978

$$$$

     RDKit          3D

 47 49  0  0  0  0  0  0  0  0999 V2000
   24.5146   13.9974   30.0298 H   0  0  0  0  0  0  0  0  0  0  0  0
   23.8474   13.2116   30.3705 C   0  0  0  0  0  0  0  0  0  0  0  0
   24.3991   12.1761   31.0114 N   0  0  0  0  0  0  0  0  0  0  0  0
   23.5950   11.2063   31.4322 C   0  0  0  0  0  0  0  0  0  0  0  0
   24.0190   10.3563   31.9636 H   0  0  0  0  0  0  0  0  0  0  0  0
   22.2355   11.2938   31.2494 C   0  0  0  0  0  0  0  0  0  0  0  0
   21.4052   10.2351   31.6998 C   0  0  0  0  0  0  0  0  0  0  0  0
   21.8280    9.0198   31.3836 N   0  0  0  0  0  0  0  0  0  0  0  0
   21.0863    7.9916   31.7329 C   0  0  0  0  0  0  0  0  0  0  0  0
   21.6405    6.8306   31.3459 N   0  0  0  0  0  0  0  0  0  0  0  0
   22.5163    6.9357   30.8599 H   0  0  0  0  0  0  0  0  0  0  0  0
   20.9410    5.6769   31.1278 C   0  0  0  0  0  0  0  0  0  0  0  0
   19.7538    5.6110   31.3880 O   0  0  0  0  0  0  0  0  0  0  0  0
   21.6111    4.5553   30.3447 C   0  0  0  0  0  0  0  0  0  0  0  0
   20.9852    3.6569   30.3593 H   0  0  0  0  0  0  0  0  0  0  0  0
   21.7038    4.8888   29.3090 H   0  0  0  0  0  0  0  0  0  0  0  0
   22.9884    4.2507   30.8885 C   0  0  0  0  0  0  0  0  0  0  0  0
   23.1775    3.1436   31.7330 C   0  0  0  0  0  0  0  0  0  0  0  0
   22.3440    2.4944   31.9825 H   0  0  0  0  0  0  0  0  0  0  0  0
   24.4408    2.8486   32.2719 C   0  0  0  0  0  0  0  0  0  0  0  0
   24.6671    1.7846   33.1164 O   0  0  0  0  0  0  0  0  0  0  0  0
   23.6849    0.7398   33.1353 C   0  0  0  0  0  0  0  0  0  0  0  0
   22.7463    1.0888   33.5755 H   0  0  0  0  0  0  0  0  0  0  0  0
   24.0561   -0.0944   33.7375 H   0  0  0  0  0  0  0  0  0  0  0  0
   23.4906    0.3705   32.1235 H   0  0  0  0  0  0  0  0  0  0  0  0
   25.5227    3.6827   31.9449 C   0  0  0  0  0  0  0  0  0  0  0  0
   27.2722    3.3226   32.6360 Br  0  0  0  0  0  0  0  0  0  0  0  0
   25.3370    4.7878   31.1026 C   0  0  0  0  0  0  0  0  0  0  0  0
   26.1786    5.4221   30.8444 H   0  0  0  0  0  0  0  0  0  0  0  0
   24.0751    5.0923   30.5730 C   0  0  0  0  0  0  0  0  0  0  0  0
   23.8515    6.1836   29.7594 O   0  0  0  0  0  0  0  0  0  0  0  0
   24.9323    7.1130   29.5917 C   0  0  0  0  0  0  0  0  0  0  0  0
   25.7788    6.6449   29.0797 H   0  0  0  0  0  0  0  0  0  0  0  0
   25.2680    7.4946   30.5608 H   0  0  0  0  0  0  0  0  0  0  0  0
   24.5954    7.9606   28.9887 H   0  0  0  0  0  0  0  0  0  0  0  0
   19.9095    8.1010   32.4206 C   0  0  0  0  0  0  0  0  0  0  0  0
   19.3196    7.2413   32.6991 H   0  0  0  0  0  0  0  0  0  0  0  0
   19.5351    9.3556   32.7914 C   0  0  0  0  0  0  0  0  0  0  0  0
   18.4492    9.4273   33.5822 N   0  0  0  0  0  0  0  0  0  0  0  0
   18.6182    8.9542   34.4633 H   0  0  0  0  0  0  0  0  0  0  0  0
   17.6205    9.0777   33.1149 H   0  0  0  0  0  0  0  0  0  0  0  0
   20.2656   10.4614   32.4351 C   0  0  0  0  0  0  0  0  0  0  0  0
   19.9205   11.7810   32.8595 C   0  0  0  0  0  0  0  0  0  0  0  0
   19.6584   12.8562   33.2146 N   0  0  0  0  0  0  0  0  0  0  0  0
   21.7218   12.3876   30.5893 C   0  0  0  0  0  0  0  0  0  0  0  0
   20.6582   12.4794   30.3717 H   0  0  0  0  0  0  0  0  0  0  0  0
   22.5337   13.3455   30.1516 N   0  0  0  0  0  0  0  0  0  0  0  0
  1  2  1  0
  2  3  2  0
  3  4  1  0
  4  5  1  0
  4  6  2  0
  6  7  1  0
  7  8  2  0
  8  9  1  0
  9 10  1  0
 10 11  1  0
 10 12  1  0
 12 13  2  0
 12 14  1  0
 14 15  1  0
 14 16  1  0
 14 17  1  0
 17 18  2  0
 18 19  1  0
 18 20  1  0
 20 21  1  0
 21 22  1  0
 22 23  1  0
 22 24  1  0
 22 25  1  0
 20 26  2  0
 26 27  1  0
 26 28  1  0
 28 29  1  0
 28 30  2  0
 30 31  1  0
 31 32  1  0
 32 33  1  0
 32 34  1  0
 32 35  1  0
  9 36  2  0
 36 37  1  0
 36 38  1  0
 38 39  1  0
 39 40  1  0
 39 41  1  0
 38 42  2  0
 42 43  1  0
 43 44  3  0
  6 45  1  0
 45 46  1  0
 45 47  2  0
 47  2  1  0
 42  7  1  0
 30 17  1  0
M  END
>  <score>  (349) 
7.71003

$$$$

     RDKit          3D

 60 62  0  0  0  0  0  0  0  0999 V2000
   26.1397    5.4592   30.8678 H   0  0  0  0  0  0  0  0  0  0  0  0
   25.3013    4.8169   31.1104 C   0  0  0  0  0  0  0  0  0  0  0  0
   25.5094    3.7187   31.9472 C   0  0  0  0  0  0  0  0  0  0  0  0
   27.2654    3.4094   32.6515 Br  0  0  0  0  0  0  0  0  0  0  0  0
   24.4396    2.8664   32.2589 C   0  0  0  0  0  0  0  0  0  0  0  0
   24.6705    1.7833   33.0751 O   0  0  0  0  0  0  0  0  0  0  0  0
   23.6506    0.7747   33.0997 C   0  0  0  0  0  0  0  0  0  0  0  0
   23.4446    0.4138   32.0859 H   0  0  0  0  0  0  0  0  0  0  0  0
   23.9819   -0.0734   33.7084 H   0  0  0  0  0  0  0  0  0  0  0  0
   22.7263    1.1730   33.5307 H   0  0  0  0  0  0  0  0  0  0  0  0
   23.1667    3.1524   31.7342 C   0  0  0  0  0  0  0  0  0  0  0  0
   22.3362    2.4994   31.9793 H   0  0  0  0  0  0  0  0  0  0  0  0
   22.9536    4.2589   30.9014 C   0  0  0  0  0  0  0  0  0  0  0  0
   21.5591    4.5301   30.3745 C   0  0  0  0  0  0  0  0  0  0  0  0
   20.9320    3.6404   30.4625 H   0  0  0  0  0  0  0  0  0  0  0  0
   21.6113    4.8053   29.3191 H   0  0  0  0  0  0  0  0  0  0  0  0
   20.9063    5.6776   31.1279 C   0  0  0  0  0  0  0  0  0  0  0  0
   19.7442    5.6075   31.4937 O   0  0  0  0  0  0  0  0  0  0  0  0
   21.6038    6.8331   31.2851 N   0  0  0  0  0  0  0  0  0  0  0  0
   22.4789    6.9380   30.7931 H   0  0  0  0  0  0  0  0  0  0  0  0
   21.0729    7.9849   31.7337 C   0  0  0  0  0  0  0  0  0  0  0  0
   21.8059    9.0058   31.3533 N   0  0  0  0  0  0  0  0  0  0  0  0
   21.4235   10.2223   31.7252 C   0  0  0  0  0  0  0  0  0  0  0  0
   22.2520   11.3466   31.2150 C   0  0  0  0  0  0  0  0  0  0  0  0
   23.2751   11.0065   31.0388 H   0  0  0  0  0  0  0  0  0  0  0  0
   22.2785   12.1662   31.9361 H   0  0  0  0  0  0  0  0  0  0  0  0
   21.6348   11.8040   29.9093 C   0  0  0  0  0  0  0  0  0  0  0  0
   21.5762   10.9743   29.1956 H   0  0  0  0  0  0  0  0  0  0  0  0
   20.6178   12.1739   30.0817 H   0  0  0  0  0  0  0  0  0  0  0  0
   22.4569   12.8609   29.3303 N   0  0  0  0  0  0  0  0  0  0  0  0
   23.8061   12.4958   28.8635 C   0  0  0  0  0  0  0  0  0  0  0  0
   23.7770   11.5179   28.3730 H   0  0  0  0  0  0  0  0  0  0  0  0
   24.4885   12.4240   29.7185 H   0  0  0  0  0  0  0  0  0  0  0  0
   24.3021   13.5426   27.8600 C   0  0  0  0  0  0  0  0  0  0  0  0
   25.3315   13.3288   27.5713 H   0  0  0  0  0  0  0  0  0  0  0  0
   23.6787   13.5039   26.9679 H   0  0  0  0  0  0  0  0  0  0  0  0
   24.2002   14.9493   28.4183 C   0  0  0  0  0  0  0  0  0  0  0  0
   24.5106   15.6823   27.6722 H   0  0  0  0  0  0  0  0  0  0  0  0
   24.8761   15.0447   29.2716 H   0  0  0  0  0  0  0  0  0  0  0  0
   22.7411   15.2014   28.8304 C   0  0  0  0  0  0  0  0  0  0  0  0
   22.0996   15.0560   27.9611 H   0  0  0  0  0  0  0  0  0  0  0  0
   22.6124   16.2250   29.1824 H   0  0  0  0  0  0  0  0  0  0  0  0
   22.3256   14.2082   29.9006 C   0  0  0  0  0  0  0  0  0  0  0  0
   22.9726   14.3249   30.7741 H   0  0  0  0  0  0  0  0  0  0  0  0
   21.2876   14.3817   30.1985 H   0  0  0  0  0  0  0  0  0  0  0  0
   20.2911   10.4378   32.4943 C   0  0  0  0  0  0  0  0  0  0  0  0
   19.9177   11.7551   32.8884 C   0  0  0  0  0  0  0  0  0  0  0  0
   19.6600   12.8458   33.2023 N   0  0  0  0  0  0  0  0  0  0  0  0
   19.5483    9.3402   32.8554 C   0  0  0  0  0  0  0  0  0  0  0  0
   18.4278    9.4653   33.5977 N   0  0  0  0  0  0  0  0  0  0  0  0
   18.1237   10.3934   33.8822 H   0  0  0  0  0  0  0  0  0  0  0  0
   17.9194    8.6302   33.8805 H   0  0  0  0  0  0  0  0  0  0  0  0
   19.9321    8.0874   32.4824 C   0  0  0  0  0  0  0  0  0  0  0  0
   19.3694    7.2173   32.7798 H   0  0  0  0  0  0  0  0  0  0  0  0
   24.0320    5.1102   30.5867 C   0  0  0  0  0  0  0  0  0  0  0  0
   23.8162    6.2119   29.7863 O   0  0  0  0  0  0  0  0  0  0  0  0
   24.9340    7.0948   29.6110 C   0  0  0  0  0  0  0  0  0  0  0  0
   24.6390    7.9536   29.0007 H   0  0  0  0  0  0  0  0  0  0  0  0
   25.2869    7.4608   30.5814 H   0  0  0  0  0  0  0  0  0  0  0  0
   25.7582    6.5758   29.1096 H   0  0  0  0  0  0  0  0  0  0  0  0
  1  2  1  0
  2  3  2  0
  3  4  1  0
  3  5  1  0
  5  6  1  0
  6  7  1  0
  7  8  1  0
  7  9  1  0
  7 10  1  0
  5 11  2  0
 11 12  1  0
 11 13  1  0
 13 14  1  0
 14 15  1  0
 14 16  1  0
 14 17  1  0
 17 18  2  0
 17 19  1  0
 19 20  1  0
 19 21  1  0
 21 22  2  0
 22 23  1  0
 23 24  1  0
 24 25  1  0
 24 26  1  0
 24 27  1  0
 27 28  1  0
 27 29  1  0
 27 30  1  0
 30 31  1  0
 31 32  1  0
 31 33  1  0
 31 34  1  0
 34 35  1  0
 34 36  1  0
 34 37  1  0
 37 38  1  0
 37 39  1  0
 37 40  1  0
 40 41  1  0
 40 42  1  0
 40 43  1  0
 43 44  1  0
 43 45  1  0
 23 46  2  0
 46 47  1  0
 47 48  3  0
 46 49  1  0
 49 50  1  0
 50 51  1  0
 50 52  1  0
 49 53  2  0
 53 54  1  0
 13 55  2  0
 55 56  1  0
 56 57  1  0
 57 58  1  0
 57 59  1  0
 57 60  1  0
 55  2  1  0
 53 21  1  0
 43 30  1  0
M  END
>  <score>  (350) 
7.71028

$$$$

     RDKit          3D

 50 52  0  0  0  0  0  0  0  0999 V2000
   26.0259   12.4970   29.2311 H   0  0  0  0  0  0  0  0  0  0  0  0
   25.0943   11.9437   29.1808 C   0  0  0  0  0  0  0  0  0  0  0  0
   24.7966   11.2810   28.0516 N   0  0  0  0  0  0  0  0  0  0  0  0
   23.6357   10.6079   27.9925 C   0  0  0  0  0  0  0  0  0  0  0  0
   23.3652   10.0933   27.0742 H   0  0  0  0  0  0  0  0  0  0  0  0
   22.7600   10.5601   29.0661 C   0  0  0  0  0  0  0  0  0  0  0  0
   21.8290   10.0130   29.0115 H   0  0  0  0  0  0  0  0  0  0  0  0
   23.0781   11.2526   30.2103 C   0  0  0  0  0  0  0  0  0  0  0  0
   22.2153   11.2839   31.2634 N   0  0  0  0  0  0  0  0  0  0  0  0
   22.3281   12.0106   31.9518 H   0  0  0  0  0  0  0  0  0  0  0  0
   21.3780   10.2542   31.5858 C   0  0  0  0  0  0  0  0  0  0  0  0
   21.6905    9.0652   31.1074 N   0  0  0  0  0  0  0  0  0  0  0  0
   20.9602    8.0563   31.4890 C   0  0  0  0  0  0  0  0  0  0  0  0
   21.4651    6.9313   30.9611 N   0  0  0  0  0  0  0  0  0  0  0  0
   22.3367    7.0491   30.4656 H   0  0  0  0  0  0  0  0  0  0  0  0
   20.9256    5.6908   31.0754 C   0  0  0  0  0  0  0  0  0  0  0  0
   19.8717    5.5270   31.6714 O   0  0  0  0  0  0  0  0  0  0  0  0
   21.5893    4.5516   30.3240 C   0  0  0  0  0  0  0  0  0  0  0  0
   21.6844    4.8349   29.2711 H   0  0  0  0  0  0  0  0  0  0  0  0
   20.9505    3.6716   30.3831 H   0  0  0  0  0  0  0  0  0  0  0  0
   22.9624    4.2623   30.8852 C   0  0  0  0  0  0  0  0  0  0  0  0
   23.1589    3.1564   31.7284 C   0  0  0  0  0  0  0  0  0  0  0  0
   22.3261    2.5043   31.9747 H   0  0  0  0  0  0  0  0  0  0  0  0
   24.4278    2.8664   32.2637 C   0  0  0  0  0  0  0  0  0  0  0  0
   24.6604    1.7960   33.0974 O   0  0  0  0  0  0  0  0  0  0  0  0
   23.6727    0.7543   33.1222 C   0  0  0  0  0  0  0  0  0  0  0  0
   22.7365    1.1153   33.5598 H   0  0  0  0  0  0  0  0  0  0  0  0
   24.0382   -0.0837   33.7274 H   0  0  0  0  0  0  0  0  0  0  0  0
   23.4755    0.3864   32.1097 H   0  0  0  0  0  0  0  0  0  0  0  0
   25.5066    3.7055   31.9401 C   0  0  0  0  0  0  0  0  0  0  0  0
   27.2587    3.3545   32.6314 Br  0  0  0  0  0  0  0  0  0  0  0  0
   25.3119    4.8033   31.0975 C   0  0  0  0  0  0  0  0  0  0  0  0
   26.1562    5.4340   30.8412 H   0  0  0  0  0  0  0  0  0  0  0  0
   24.0482    5.1043   30.5680 C   0  0  0  0  0  0  0  0  0  0  0  0
   23.8379    6.1911   29.7458 O   0  0  0  0  0  0  0  0  0  0  0  0
   24.9299    7.1116   29.5919 C   0  0  0  0  0  0  0  0  0  0  0  0
   24.6098    7.9658   28.9864 H   0  0  0  0  0  0  0  0  0  0  0  0
   25.2578    7.4815   30.5689 H   0  0  0  0  0  0  0  0  0  0  0  0
   25.7784    6.6307   29.0931 H   0  0  0  0  0  0  0  0  0  0  0  0
   19.8946    8.1507   32.3510 C   0  0  0  0  0  0  0  0  0  0  0  0
   19.3326    7.2942   32.6767 H   0  0  0  0  0  0  0  0  0  0  0  0
   19.5964    9.3877   32.8281 C   0  0  0  0  0  0  0  0  0  0  0  0
   18.5841    9.4967   33.7144 N   0  0  0  0  0  0  0  0  0  0  0  0
   17.9895    8.6805   33.8399 H   0  0  0  0  0  0  0  0  0  0  0  0
   18.2085   10.4286   33.8788 H   0  0  0  0  0  0  0  0  0  0  0  0
   20.3267   10.4751   32.4432 C   0  0  0  0  0  0  0  0  0  0  0  0
   20.0186   11.7916   32.8949 C   0  0  0  0  0  0  0  0  0  0  0  0
   19.7777   12.8807   33.2160 N   0  0  0  0  0  0  0  0  0  0  0  0
   24.2500   11.9550   30.2825 C   0  0  0  0  0  0  0  0  0  0  0  0
   24.5016   12.4908   31.1861 H   0  0  0  0  0  0  0  0  0  0  0  0
  1  2  1  0
  2  3  2  0
  3  4  1  0
  4  5  1  0
  4  6  2  0
  6  7  1  0
  6  8  1  0
  8  9  1  0
  9 10  1  0
  9 11  1  0
 11 12  2  0
 12 13  1  0
 13 14  1  0
 14 15  1  0
 14 16  1  0
 16 17  2  0
 16 18  1  0
 18 19  1  0
 18 20  1  0
 18 21  1  0
 21 22  2  0
 22 23  1  0
 22 24  1  0
 24 25  1  0
 25 26  1  0
 26 27  1  0
 26 28  1  0
 26 29  1  0
 24 30  2  0
 30 31  1  0
 30 32  1  0
 32 33  1  0
 32 34  2  0
 34 35  1  0
 35 36  1  0
 36 37  1  0
 36 38  1  0
 36 39  1  0
 13 40  2  0
 40 41  1  0
 40 42  1  0
 42 43  1  0
 43 44  1  0
 43 45  1  0
 42 46  2  0
 46 47  1  0
 47 48  3  0
  8 49  2  0
 49 50  1  0
 49  2  1  0
 46 11  1  0
 34 21  1  0
M  END
>  <score>  (351) 
7.71072

$$$$

     RDKit          3D

 52 54  0  0  0  0  0  0  0  0999 V2000
   26.1594    5.4409   30.8550 H   0  0  0  0  0  0  0  0  0  0  0  0
   25.3228    4.7976   31.1043 C   0  0  0  0  0  0  0  0  0  0  0  0
   25.5191    3.6986   31.9484 C   0  0  0  0  0  0  0  0  0  0  0  0
   27.2740    3.3705   32.6424 Br  0  0  0  0  0  0  0  0  0  0  0  0
   24.4437    2.8536   32.2670 C   0  0  0  0  0  0  0  0  0  0  0  0
   24.6722    1.7837   33.1013 O   0  0  0  0  0  0  0  0  0  0  0  0
   23.6701    0.7567   33.1192 C   0  0  0  0  0  0  0  0  0  0  0  0
   22.7383    1.1312   33.5525 H   0  0  0  0  0  0  0  0  0  0  0  0
   24.0193   -0.0863   33.7231 H   0  0  0  0  0  0  0  0  0  0  0  0
   23.4713    0.3951   32.1055 H   0  0  0  0  0  0  0  0  0  0  0  0
   23.1767    3.1402   31.7286 C   0  0  0  0  0  0  0  0  0  0  0  0
   22.3440    2.4919   31.9821 H   0  0  0  0  0  0  0  0  0  0  0  0
   22.9790    4.2423   30.8826 C   0  0  0  0  0  0  0  0  0  0  0  0
   21.5927    4.5347   30.3508 C   0  0  0  0  0  0  0  0  0  0  0  0
   21.6639    4.8520   29.3066 H   0  0  0  0  0  0  0  0  0  0  0  0
   20.9658    3.6430   30.4012 H   0  0  0  0  0  0  0  0  0  0  0  0
   20.9330    5.6569   31.1430 C   0  0  0  0  0  0  0  0  0  0  0  0
   19.7503    5.5994   31.4397 O   0  0  0  0  0  0  0  0  0  0  0  0
   21.6477    6.8000   31.3488 N   0  0  0  0  0  0  0  0  0  0  0  0
   22.5058    6.9200   30.8285 H   0  0  0  0  0  0  0  0  0  0  0  0
   21.1006    7.9559   31.7733 C   0  0  0  0  0  0  0  0  0  0  0  0
   21.8565    8.9772   31.4404 N   0  0  0  0  0  0  0  0  0  0  0  0
   21.4264   10.2103   31.7383 C   0  0  0  0  0  0  0  0  0  0  0  0
   22.2674   11.3229   31.2746 C   0  0  0  0  0  0  0  0  0  0  0  0
   23.6569   11.2517   31.4400 C   0  0  0  0  0  0  0  0  0  0  0  0
   24.0939   10.4500   32.0293 H   0  0  0  0  0  0  0  0  0  0  0  0
   24.4929   12.2085   30.8725 C   0  0  0  0  0  0  0  0  0  0  0  0
   25.5625   12.1478   31.0223 H   0  0  0  0  0  0  0  0  0  0  0  0
   23.9738   13.2192   30.0674 C   0  0  0  0  0  0  0  0  0  0  0  0
   24.9326   14.0730   29.2921 C   0  0  0  0  0  0  0  0  0  0  0  0
   25.8260   14.2653   29.8844 H   0  0  0  0  0  0  0  0  0  0  0  0
   25.2235   13.5544   28.3762 H   0  0  0  0  0  0  0  0  0  0  0  0
   24.4973   15.0285   29.0143 H   0  0  0  0  0  0  0  0  0  0  0  0
   22.5822   13.3439   29.9444 C   0  0  0  0  0  0  0  0  0  0  0  0
   22.1581   14.1389   29.3371 H   0  0  0  0  0  0  0  0  0  0  0  0
   21.7291   12.4189   30.5708 C   0  0  0  0  0  0  0  0  0  0  0  0
   20.6526   12.5306   30.4593 H   0  0  0  0  0  0  0  0  0  0  0  0
   20.2338   10.4182   32.4210 C   0  0  0  0  0  0  0  0  0  0  0  0
   19.8463   11.7228   32.8455 C   0  0  0  0  0  0  0  0  0  0  0  0
   19.5898   12.7855   33.2452 N   0  0  0  0  0  0  0  0  0  0  0  0
   19.4840    9.3182   32.7567 C   0  0  0  0  0  0  0  0  0  0  0  0
   18.3507    9.4014   33.4936 N   0  0  0  0  0  0  0  0  0  0  0  0
   18.5328    9.3746   34.4928 H   0  0  0  0  0  0  0  0  0  0  0  0
   17.6343    8.7435   33.2044 H   0  0  0  0  0  0  0  0  0  0  0  0
   19.8943    8.0658   32.4159 C   0  0  0  0  0  0  0  0  0  0  0  0
   19.2927    7.2009   32.6599 H   0  0  0  0  0  0  0  0  0  0  0  0
   24.0595    5.0918   30.5703 C   0  0  0  0  0  0  0  0  0  0  0  0
   23.8352    6.1899   29.7675 O   0  0  0  0  0  0  0  0  0  0  0  0
   24.9317    7.1014   29.6020 C   0  0  0  0  0  0  0  0  0  0  0  0
   25.7691    6.6097   29.0979 H   0  0  0  0  0  0  0  0  0  0  0  0
   24.6145    7.9551   28.9968 H   0  0  0  0  0  0  0  0  0  0  0  0
   25.2719    7.4722   30.5738 H   0  0  0  0  0  0  0  0  0  0  0  0
  1  2  1  0
  2  3  2  0
  3  4  1  0
  3  5  1  0
  5  6  1  0
  6  7  1  0
  7  8  1  0
  7  9  1  0
  7 10  1  0
  5 11  2  0
 11 12  1  0
 11 13  1  0
 13 14  1  0
 14 15  1  0
 14 16  1  0
 14 17  1  0
 17 18  2  0
 17 19  1  0
 19 20  1  0
 19 21  1  0
 21 22  2  0
 22 23  1  0
 23 24  1  0
 24 25  2  0
 25 26  1  0
 25 27  1  0
 27 28  1  0
 27 29  2  0
 29 30  1  0
 30 31  1  0
 30 32  1  0
 30 33  1  0
 29 34  1  0
 34 35  1  0
 34 36  2  0
 36 37  1  0
 23 38  2  0
 38 39  1  0
 39 40  3  0
 38 41  1  0
 41 42  1  0
 42 43  1  0
 42 44  1  0
 41 45  2  0
 45 46  1  0
 13 47  2  0
 47 48  1  0
 48 49  1  0
 49 50  1  0
 49 51  1  0
 49 52  1  0
 47  2  1  0
 45 21  1  0
 36 24  1  0
M  END
>  <score>  (352) 
7.71153

$$$$

     RDKit          3D

 51 52  0  0  0  0  0  0  0  0999 V2000
   26.0980    5.4877   30.8655 H   0  0  0  0  0  0  0  0  0  0  0  0
   25.2713    4.8271   31.1042 C   0  0  0  0  0  0  0  0  0  0  0  0
   25.4860    3.7346   31.9447 C   0  0  0  0  0  0  0  0  0  0  0  0
   27.2424    3.4535   32.6486 Br  0  0  0  0  0  0  0  0  0  0  0  0
   24.4242    2.8717   32.2550 C   0  0  0  0  0  0  0  0  0  0  0  0
   24.6585    1.7950   33.0740 O   0  0  0  0  0  0  0  0  0  0  0  0
   23.6358    0.7887   33.0897 C   0  0  0  0  0  0  0  0  0  0  0  0
   22.7107    1.1881   33.5171 H   0  0  0  0  0  0  0  0  0  0  0  0
   23.4312    0.4297   32.0750 H   0  0  0  0  0  0  0  0  0  0  0  0
   23.9628   -0.0593   33.6973 H   0  0  0  0  0  0  0  0  0  0  0  0
   23.1563    3.1387   31.7141 C   0  0  0  0  0  0  0  0  0  0  0  0
   22.3247    2.4859   31.9631 H   0  0  0  0  0  0  0  0  0  0  0  0
   22.9404    4.2272   30.8666 C   0  0  0  0  0  0  0  0  0  0  0  0
   21.5381    4.4634   30.3590 C   0  0  0  0  0  0  0  0  0  0  0  0
   20.9364    3.5520   30.4383 H   0  0  0  0  0  0  0  0  0  0  0  0
   21.5687    4.7619   29.3091 H   0  0  0  0  0  0  0  0  0  0  0  0
   20.8994    5.5889   31.1532 C   0  0  0  0  0  0  0  0  0  0  0  0
   19.8377    5.4482   31.7376 O   0  0  0  0  0  0  0  0  0  0  0  0
   21.5073    6.8046   31.0928 N   0  0  0  0  0  0  0  0  0  0  0  0
   22.3694    6.8906   30.5746 H   0  0  0  0  0  0  0  0  0  0  0  0
   21.0241    7.9477   31.6084 C   0  0  0  0  0  0  0  0  0  0  0  0
   21.8137    8.9478   31.2892 N   0  0  0  0  0  0  0  0  0  0  0  0
   21.5101   10.1925   31.6927 C   0  0  0  0  0  0  0  0  0  0  0  0
   22.4059   11.3041   31.2532 C   0  0  0  0  0  0  0  0  0  0  0  0
   21.8289   12.4684   30.9934 N   0  0  0  0  0  0  0  0  0  0  0  0
   22.4831   13.5331   30.4319 N   0  0  0  0  0  0  0  0  0  0  0  0
   23.3186   13.3463   29.8899 H   0  0  0  0  0  0  0  0  0  0  0  0
   21.8272   14.7024   30.0615 C   0  0  0  0  0  0  0  0  0  0  0  0
   20.6280   15.4581   30.9107 S   0  0  0  0  0  0  0  0  0  0  0  0
   22.3867   15.4472   29.0630 N   0  0  0  0  0  0  0  0  0  0  0  0
   21.9540   16.3588   28.9498 H   0  0  0  0  0  0  0  0  0  0  0  0
   23.3939   15.3715   28.9844 H   0  0  0  0  0  0  0  0  0  0  0  0
   23.9117   11.0814   31.1266 C   0  0  0  0  0  0  0  0  0  0  0  0
   24.2158   11.0020   30.0785 H   0  0  0  0  0  0  0  0  0  0  0  0
   24.4681   11.9072   31.5852 H   0  0  0  0  0  0  0  0  0  0  0  0
   24.2014   10.1526   31.6340 H   0  0  0  0  0  0  0  0  0  0  0  0
   20.3691   10.4136   32.4729 C   0  0  0  0  0  0  0  0  0  0  0  0
   20.0079   11.7184   32.9254 C   0  0  0  0  0  0  0  0  0  0  0  0
   19.6970   12.7692   33.3139 N   0  0  0  0  0  0  0  0  0  0  0  0
   19.6065    9.3261   32.8259 C   0  0  0  0  0  0  0  0  0  0  0  0
   18.5573    9.4457   33.6678 N   0  0  0  0  0  0  0  0  0  0  0  0
   17.9577    8.6358   33.7906 H   0  0  0  0  0  0  0  0  0  0  0  0
   18.1832   10.3789   33.8036 H   0  0  0  0  0  0  0  0  0  0  0  0
   19.8981    8.0821   32.3662 C   0  0  0  0  0  0  0  0  0  0  0  0
   19.2777    7.2370   32.6067 H   0  0  0  0  0  0  0  0  0  0  0  0
   24.0066    5.1012   30.5599 C   0  0  0  0  0  0  0  0  0  0  0  0
   23.7878    6.2080   29.7666 O   0  0  0  0  0  0  0  0  0  0  0  0
   24.9169    7.0848   29.6097 C   0  0  0  0  0  0  0  0  0  0  0  0
   25.7407    6.5587   29.1157 H   0  0  0  0  0  0  0  0  0  0  0  0
   24.6473    7.9517   29.0022 H   0  0  0  0  0  0  0  0  0  0  0  0
   25.2648    7.4423   30.5855 H   0  0  0  0  0  0  0  0  0  0  0  0
  1  2  1  0
  2  3  2  0
  3  4  1  0
  3  5  1  0
  5  6  1  0
  6  7  1  0
  7  8  1  0
  7  9  1  0
  7 10  1  0
  5 11  2  0
 11 12  1  0
 11 13  1  0
 13 14  1  0
 14 15  1  0
 14 16  1  0
 14 17  1  0
 17 18  2  0
 17 19  1  0
 19 20  1  0
 19 21  1  0
 21 22  2  0
 22 23  1  0
 23 24  1  0
 24 25  2  3
 25 26  1  0
 26 27  1  0
 26 28  1  0
 28 29  2  0
 28 30  1  0
 30 31  1  0
 30 32  1  0
 24 33  1  0
 33 34  1  0
 33 35  1  0
 33 36  1  0
 23 37  2  0
 37 38  1  0
 38 39  3  0
 37 40  1  0
 40 41  1  0
 41 42  1  0
 41 43  1  0
 40 44  2  0
 44 45  1  0
 13 46  2  0
 46 47  1  0
 47 48  1  0
 48 49  1  0
 48 50  1  0
 48 51  1  0
 46  2  1  0
 44 21  1  0
M  END
>  <score>  (353) 
7.71329

$$$$

     RDKit          3D

 48 50  0  0  0  0  0  0  0  0999 V2000
   22.0978   12.3596   31.8472 H   0  0  0  0  0  0  0  0  0  0  0  0
   22.2114   11.4558   31.2623 C   0  0  0  0  0  0  0  0  0  0  0  0
   23.0586   11.4543   30.1606 C   0  0  0  0  0  0  0  0  0  0  0  0
   23.2025   10.1038   29.0434 S   0  0  0  0  0  0  0  0  0  0  0  0
   24.1927   11.1043   27.9810 C   0  0  0  0  0  0  0  0  0  0  0  0
   24.7796   10.7590   26.9714 O   0  0  0  0  0  0  0  0  0  0  0  0
   24.3815   12.3781   28.4201 N   0  0  0  0  0  0  0  0  0  0  0  0
   25.1542   12.9342   28.0823 H   0  0  0  0  0  0  0  0  0  0  0  0
   23.8862   12.5651   29.6723 C   0  0  0  0  0  0  0  0  0  0  0  0
   24.2904   13.5176   30.3123 O   0  0  0  0  0  0  0  0  0  0  0  0
   21.3909   10.3149   31.6916 C   0  0  0  0  0  0  0  0  0  0  0  0
   21.7830    9.0962   31.3226 N   0  0  0  0  0  0  0  0  0  0  0  0
   21.0627    8.0625   31.7056 C   0  0  0  0  0  0  0  0  0  0  0  0
   21.6020    6.8946   31.3139 N   0  0  0  0  0  0  0  0  0  0  0  0
   22.4853    6.9697   30.8303 H   0  0  0  0  0  0  0  0  0  0  0  0
   20.8919    5.7268   31.2225 C   0  0  0  0  0  0  0  0  0  0  0  0
   19.7468    5.6497   31.6304 O   0  0  0  0  0  0  0  0  0  0  0  0
   21.4970    4.5692   30.4547 C   0  0  0  0  0  0  0  0  0  0  0  0
   20.8621    3.6934   30.6002 H   0  0  0  0  0  0  0  0  0  0  0  0
   21.5026    4.8096   29.3900 H   0  0  0  0  0  0  0  0  0  0  0  0
   22.9023    4.2961   30.9345 C   0  0  0  0  0  0  0  0  0  0  0  0
   23.1330    3.1772   31.7439 C   0  0  0  0  0  0  0  0  0  0  0  0
   22.3144    2.5103   31.9963 H   0  0  0  0  0  0  0  0  0  0  0  0
   24.4127    2.8873   32.2521 C   0  0  0  0  0  0  0  0  0  0  0  0
   24.6591    1.7829   33.0336 O   0  0  0  0  0  0  0  0  0  0  0  0
   23.6124    0.8034   33.0640 C   0  0  0  0  0  0  0  0  0  0  0  0
   23.3952    0.4445   32.0514 H   0  0  0  0  0  0  0  0  0  0  0  0
   22.7000    1.2338   33.4900 H   0  0  0  0  0  0  0  0  0  0  0  0
   23.9176   -0.0482   33.6784 H   0  0  0  0  0  0  0  0  0  0  0  0
   25.4711    3.7568   31.9509 C   0  0  0  0  0  0  0  0  0  0  0  0
   27.2323    3.4742   32.6476 Br  0  0  0  0  0  0  0  0  0  0  0  0
   25.2468    4.8641   31.1341 C   0  0  0  0  0  0  0  0  0  0  0  0
   26.0748    5.5195   30.8868 H   0  0  0  0  0  0  0  0  0  0  0  0
   23.9747    5.1572   30.6198 C   0  0  0  0  0  0  0  0  0  0  0  0
   23.7638    6.2744   29.8417 O   0  0  0  0  0  0  0  0  0  0  0  0
   24.9233    7.0953   29.6233 C   0  0  0  0  0  0  0  0  0  0  0  0
   24.6776    7.9489   28.9858 H   0  0  0  0  0  0  0  0  0  0  0  0
   25.7149    6.5142   29.1375 H   0  0  0  0  0  0  0  0  0  0  0  0
   25.3046    7.4687   30.5800 H   0  0  0  0  0  0  0  0  0  0  0  0
   19.9135    8.1642   32.4360 C   0  0  0  0  0  0  0  0  0  0  0  0
   19.3530    7.2910   32.7278 H   0  0  0  0  0  0  0  0  0  0  0  0
   19.5113    9.4061   32.8028 C   0  0  0  0  0  0  0  0  0  0  0  0
   18.3678    9.4801   33.5230 N   0  0  0  0  0  0  0  0  0  0  0  0
   18.1035   10.3957   33.8720 H   0  0  0  0  0  0  0  0  0  0  0  0
   18.1061    8.6507   34.0492 H   0  0  0  0  0  0  0  0  0  0  0  0
   20.2501   10.5155   32.4679 C   0  0  0  0  0  0  0  0  0  0  0  0
   19.8612   11.8242   32.8835 C   0  0  0  0  0  0  0  0  0  0  0  0
   19.6188   12.9229   33.1783 N   0  0  0  0  0  0  0  0  0  0  0  0
  1  2  1  0
  2  3  2  3
  3  4  1  0
  4  5  1  0
  5  6  2  0
  5  7  1  0
  7  8  1  0
  7  9  1  0
  9 10  2  0
  2 11  1  0
 11 12  2  0
 12 13  1  0
 13 14  1  0
 14 15  1  0
 14 16  1  0
 16 17  2  0
 16 18  1  0
 18 19  1  0
 18 20  1  0
 18 21  1  0
 21 22  2  0
 22 23  1  0
 22 24  1  0
 24 25  1  0
 25 26  1  0
 26 27  1  0
 26 28  1  0
 26 29  1  0
 24 30  2  0
 30 31  1  0
 30 32  1  0
 32 33  1  0
 32 34  2  0
 34 35  1  0
 35 36  1  0
 36 37  1  0
 36 38  1  0
 36 39  1  0
 13 40  2  0
 40 41  1  0
 40 42  1  0
 42 43  1  0
 43 44  1  0
 43 45  1  0
 42 46  2  0
 46 47  1  0
 47 48  3  0
  9  3  1  0
 46 11  1  0
 34 21  1  0
M  END
>  <score>  (354) 
7.71464

$$$$

     RDKit          3D

 53 56  0  0  0  0  0  0  0  0999 V2000
   26.1674    5.4322   30.8544 H   0  0  0  0  0  0  0  0  0  0  0  0
   25.3252    4.7960   31.1020 C   0  0  0  0  0  0  0  0  0  0  0  0
   25.5232    3.6986   31.9454 C   0  0  0  0  0  0  0  0  0  0  0  0
   27.2772    3.3615   32.6402 Br  0  0  0  0  0  0  0  0  0  0  0  0
   24.4473    2.8534   32.2670 C   0  0  0  0  0  0  0  0  0  0  0  0
   24.6733    1.7841   33.1047 O   0  0  0  0  0  0  0  0  0  0  0  0
   23.6761    0.7509   33.1252 C   0  0  0  0  0  0  0  0  0  0  0  0
   24.0306   -0.0927   33.7288 H   0  0  0  0  0  0  0  0  0  0  0  0
   23.4770    0.3892   32.1109 H   0  0  0  0  0  0  0  0  0  0  0  0
   22.7408    1.1206   33.5582 H   0  0  0  0  0  0  0  0  0  0  0  0
   23.1780    3.1387   31.7310 C   0  0  0  0  0  0  0  0  0  0  0  0
   22.3435    2.4901   31.9818 H   0  0  0  0  0  0  0  0  0  0  0  0
   22.9767    4.2463   30.8912 C   0  0  0  0  0  0  0  0  0  0  0  0
   21.5907    4.5485   30.3565 C   0  0  0  0  0  0  0  0  0  0  0  0
   21.6649    4.8808   29.3168 H   0  0  0  0  0  0  0  0  0  0  0  0
   20.9694    3.6537   30.3924 H   0  0  0  0  0  0  0  0  0  0  0  0
   20.9068    5.6529   31.1452 C   0  0  0  0  0  0  0  0  0  0  0  0
   19.7159    5.5907   31.4131 O   0  0  0  0  0  0  0  0  0  0  0  0
   21.6008    6.8031   31.3635 N   0  0  0  0  0  0  0  0  0  0  0  0
   22.4627    6.9365   30.8531 H   0  0  0  0  0  0  0  0  0  0  0  0
   21.0477    7.9484   31.7906 C   0  0  0  0  0  0  0  0  0  0  0  0
   21.8110    8.9473   31.4291 N   0  0  0  0  0  0  0  0  0  0  0  0
   21.4180   10.1879   31.7122 C   0  0  0  0  0  0  0  0  0  0  0  0
   22.2847   11.2708   31.2162 C   0  0  0  0  0  0  0  0  0  0  0  0
   23.6783   11.2204   31.4395 C   0  0  0  0  0  0  0  0  0  0  0  0
   24.0940   10.4106   32.0344 H   0  0  0  0  0  0  0  0  0  0  0  0
   24.5242   12.2307   30.9683 C   0  0  0  0  0  0  0  0  0  0  0  0
   25.5831   12.2046   31.1841 H   0  0  0  0  0  0  0  0  0  0  0  0
   23.9880   13.2503   30.1901 C   0  0  0  0  0  0  0  0  0  0  0  0
   22.6166   13.3251   29.9704 C   0  0  0  0  0  0  0  0  0  0  0  0
   21.7478   12.3699   30.5141 C   0  0  0  0  0  0  0  0  0  0  0  0
   20.6759   12.4629   30.3503 H   0  0  0  0  0  0  0  0  0  0  0  0
   22.3863   14.4481   29.0757 C   0  0  0  0  0  0  0  0  0  0  0  0
   21.4168   14.7845   28.7173 H   0  0  0  0  0  0  0  0  0  0  0  0
   23.6187   14.9558   28.7360 C   0  0  0  0  0  0  0  0  0  0  0  0
   23.8090   15.7867   28.0665 H   0  0  0  0  0  0  0  0  0  0  0  0
   24.5825   14.2817   29.4827 N   0  0  0  0  0  0  0  0  0  0  0  0
   25.5770   14.5053   29.5081 H   0  0  0  0  0  0  0  0  0  0  0  0
   20.2614   10.4305   32.4490 C   0  0  0  0  0  0  0  0  0  0  0  0
   19.9129   11.7520   32.8428 C   0  0  0  0  0  0  0  0  0  0  0  0
   19.6842   12.8384   33.1901 N   0  0  0  0  0  0  0  0  0  0  0  0
   19.5062    9.3517   32.8384 C   0  0  0  0  0  0  0  0  0  0  0  0
   18.3934    9.4962   33.5984 N   0  0  0  0  0  0  0  0  0  0  0  0
   17.9028    8.6608   33.9112 H   0  0  0  0  0  0  0  0  0  0  0  0
   18.1295   10.4228   33.9290 H   0  0  0  0  0  0  0  0  0  0  0  0
   19.8718    8.0909   32.4782 C   0  0  0  0  0  0  0  0  0  0  0  0
   19.2689    7.2446   32.7527 H   0  0  0  0  0  0  0  0  0  0  0  0
   24.0595    5.0912   30.5740 C   0  0  0  0  0  0  0  0  0  0  0  0
   23.8382    6.1861   29.7663 O   0  0  0  0  0  0  0  0  0  0  0  0
   24.9310    7.1026   29.5999 C   0  0  0  0  0  0  0  0  0  0  0  0
   24.6082    7.9566   28.9947 H   0  0  0  0  0  0  0  0  0  0  0  0
   25.7731    6.6166   29.0957 H   0  0  0  0  0  0  0  0  0  0  0  0
   25.2717    7.4739   30.5721 H   0  0  0  0  0  0  0  0  0  0  0  0
  1  2  1  0
  2  3  2  0
  3  4  1  0
  3  5  1  0
  5  6  1  0
  6  7  1  0
  7  8  1  0
  7  9  1  0
  7 10  1  0
  5 11  2  0
 11 12  1  0
 11 13  1  0
 13 14  1  0
 14 15  1  0
 14 16  1  0
 14 17  1  0
 17 18  2  0
 17 19  1  0
 19 20  1  0
 19 21  1  0
 21 22  2  0
 22 23  1  0
 23 24  1  0
 24 25  2  0
 25 26  1  0
 25 27  1  0
 27 28  1  0
 27 29  2  0
 29 30  1  0
 30 31  2  0
 31 32  1  0
 30 33  1  0
 33 34  1  0
 33 35  2  0
 35 36  1  0
 35 37  1  0
 37 38  1  0
 23 39  2  0
 39 40  1  0
 40 41  3  0
 39 42  1  0
 42 43  1  0
 43 44  1  0
 43 45  1  0
 42 46  2  0
 46 47  1  0
 13 48  2  0
 48 49  1  0
 49 50  1  0
 50 51  1  0
 50 52  1  0
 50 53  1  0
 48  2  1  0
 46 21  1  0
 31 24  1  0
 37 29  1  0
M  END
>  <score>  (355) 
7.71555

$$$$

     RDKit          3D

 47 49  0  0  0  0  0  0  0  0999 V2000
   24.7980   13.9978   30.1612 H   0  0  0  0  0  0  0  0  0  0  0  0
   24.0445   13.2648   30.4234 C   0  0  0  0  0  0  0  0  0  0  0  0
   23.8418   12.2153   29.6000 N   0  0  0  0  0  0  0  0  0  0  0  0
   22.9449   11.3052   30.0171 C   0  0  0  0  0  0  0  0  0  0  0  0
   22.7801   10.4167   29.4143 H   0  0  0  0  0  0  0  0  0  0  0  0
   22.2215   11.4562   31.2146 C   0  0  0  0  0  0  0  0  0  0  0  0
   21.3409   10.3274   31.6022 C   0  0  0  0  0  0  0  0  0  0  0  0
   21.6323    9.1123   31.1003 N   0  0  0  0  0  0  0  0  0  0  0  0
   20.9288    8.0627   31.4791 C   0  0  0  0  0  0  0  0  0  0  0  0
   21.4371    6.9261   30.9444 N   0  0  0  0  0  0  0  0  0  0  0  0
   22.3379    7.0269   30.4967 H   0  0  0  0  0  0  0  0  0  0  0  0
   20.9089    5.6793   31.0704 C   0  0  0  0  0  0  0  0  0  0  0  0
   19.8657    5.5028   31.6830 O   0  0  0  0  0  0  0  0  0  0  0  0
   21.5831    4.5393   30.3209 C   0  0  0  0  0  0  0  0  0  0  0  0
   21.6808    4.8265   29.2677 H   0  0  0  0  0  0  0  0  0  0  0  0
   20.9504    3.6530   30.3745 H   0  0  0  0  0  0  0  0  0  0  0  0
   22.9578    4.2547   30.8866 C   0  0  0  0  0  0  0  0  0  0  0  0
   23.1613    3.1478   31.7291 C   0  0  0  0  0  0  0  0  0  0  0  0
   22.3349    2.4872   31.9750 H   0  0  0  0  0  0  0  0  0  0  0  0
   24.4311    2.8651   32.2638 C   0  0  0  0  0  0  0  0  0  0  0  0
   24.6626    1.7948   33.0981 O   0  0  0  0  0  0  0  0  0  0  0  0
   23.6724    0.7548   33.1219 C   0  0  0  0  0  0  0  0  0  0  0  0
   22.7361    1.1188   33.5578 H   0  0  0  0  0  0  0  0  0  0  0  0
   24.0336   -0.0857   33.7266 H   0  0  0  0  0  0  0  0  0  0  0  0
   23.4757    0.3900   32.1081 H   0  0  0  0  0  0  0  0  0  0  0  0
   25.5062    3.7081   31.9394 C   0  0  0  0  0  0  0  0  0  0  0  0
   27.2589    3.3657   32.6311 Br  0  0  0  0  0  0  0  0  0  0  0  0
   25.3051    4.8055   31.0979 C   0  0  0  0  0  0  0  0  0  0  0  0
   26.1439    5.4415   30.8412 H   0  0  0  0  0  0  0  0  0  0  0  0
   24.0401    5.1015   30.5702 C   0  0  0  0  0  0  0  0  0  0  0  0
   23.8303    6.1891   29.7482 O   0  0  0  0  0  0  0  0  0  0  0  0
   24.9299    7.1018   29.5950 C   0  0  0  0  0  0  0  0  0  0  0  0
   25.7744    6.6163   29.0931 H   0  0  0  0  0  0  0  0  0  0  0  0
   24.6169    7.9613   28.9936 H   0  0  0  0  0  0  0  0  0  0  0  0
   25.2634    7.4653   30.5732 H   0  0  0  0  0  0  0  0  0  0  0  0
   19.8753    8.1353   32.3603 C   0  0  0  0  0  0  0  0  0  0  0  0
   19.3237    7.2620   32.6690 H   0  0  0  0  0  0  0  0  0  0  0  0
   19.5558    9.3677   32.8555 C   0  0  0  0  0  0  0  0  0  0  0  0
   18.5308    9.4607   33.7361 N   0  0  0  0  0  0  0  0  0  0  0  0
   18.1620   10.3900   33.9218 H   0  0  0  0  0  0  0  0  0  0  0  0
   17.9444    8.6418   33.8734 H   0  0  0  0  0  0  0  0  0  0  0  0
   20.2707   10.4844   32.4837 C   0  0  0  0  0  0  0  0  0  0  0  0
   19.9118   11.7779   32.9679 C   0  0  0  0  0  0  0  0  0  0  0  0
   19.6281   12.8557   33.3009 N   0  0  0  0  0  0  0  0  0  0  0  0
   22.3814   12.5581   32.0035 N   0  0  0  0  0  0  0  0  0  0  0  0
   23.3196   13.4419   31.6183 C   0  0  0  0  0  0  0  0  0  0  0  0
   23.5277   14.2978   32.2549 H   0  0  0  0  0  0  0  0  0  0  0  0
  1  2  1  0
  2  3  2  0
  3  4  1  0
  4  5  1  0
  4  6  2  0
  6  7  1  0
  7  8  2  0
  8  9  1  0
  9 10  1  0
 10 11  1  0
 10 12  1  0
 12 13  2  0
 12 14  1  0
 14 15  1  0
 14 16  1  0
 14 17  1  0
 17 18  2  0
 18 19  1  0
 18 20  1  0
 20 21  1  0
 21 22  1  0
 22 23  1  0
 22 24  1  0
 22 25  1  0
 20 26  2  0
 26 27  1  0
 26 28  1  0
 28 29  1  0
 28 30  2  0
 30 31  1  0
 31 32  1  0
 32 33  1  0
 32 34  1  0
 32 35  1  0
  9 36  2  0
 36 37  1  0
 36 38  1  0
 38 39  1  0
 39 40  1  0
 39 41  1  0
 38 42  2  0
 42 43  1  0
 43 44  3  0
  6 45  1  0
 45 46  2  0
 46 47  1  0
 46  2  1  0
 42  7  1  0
 30 17  1  0
M  END
>  <score>  (356) 
7.71595

$$$$

     RDKit          3D

 52 54  0  0  0  0  0  0  0  0999 V2000
   27.2309   14.0779   28.8378 H   0  0  0  0  0  0  0  0  0  0  0  0
   26.4704   13.4162   29.2452 C   0  0  0  0  0  0  0  0  0  0  0  0
   25.4354   13.9569   29.9072 N   0  0  0  0  0  0  0  0  0  0  0  0
   24.4921   13.1322   30.4099 C   0  0  0  0  0  0  0  0  0  0  0  0
   23.6520   13.5816   30.9283 H   0  0  0  0  0  0  0  0  0  0  0  0
   24.5474   11.7232   30.2921 C   0  0  0  0  0  0  0  0  0  0  0  0
   23.5633   10.8297   30.7589 N   0  0  0  0  0  0  0  0  0  0  0  0
   23.7034    9.8472   30.5347 H   0  0  0  0  0  0  0  0  0  0  0  0
   22.3356   11.1409   31.3588 C   0  0  0  0  0  0  0  0  0  0  0  0
   22.0856   12.3269   31.5867 O   0  0  0  0  0  0  0  0  0  0  0  0
   21.3853   10.0163   31.7841 C   0  0  0  0  0  0  0  0  0  0  0  0
   21.7037    8.7433   31.4507 N   0  0  0  0  0  0  0  0  0  0  0  0
   20.9770    7.7312   31.8718 C   0  0  0  0  0  0  0  0  0  0  0  0
   21.4947    6.6092   31.3622 N   0  0  0  0  0  0  0  0  0  0  0  0
   22.3659    6.7534   30.8759 H   0  0  0  0  0  0  0  0  0  0  0  0
   20.8232    5.4453   31.1387 C   0  0  0  0  0  0  0  0  0  0  0  0
   19.6691    5.3048   31.5068 O   0  0  0  0  0  0  0  0  0  0  0  0
   21.5333    4.3690   30.3298 C   0  0  0  0  0  0  0  0  0  0  0  0
   21.5612    4.6556   29.2763 H   0  0  0  0  0  0  0  0  0  0  0  0
   20.9755    3.4316   30.4076 H   0  0  0  0  0  0  0  0  0  0  0  0
   22.9417    4.1754   30.8479 C   0  0  0  0  0  0  0  0  0  0  0  0
   23.1766    3.0870   31.6919 C   0  0  0  0  0  0  0  0  0  0  0  0
   22.3624    2.4114   31.9353 H   0  0  0  0  0  0  0  0  0  0  0  0
   24.4417    2.8432   32.2508 C   0  0  0  0  0  0  0  0  0  0  0  0
   24.6762    1.7590   33.0637 O   0  0  0  0  0  0  0  0  0  0  0  0
   23.6310    0.7777   33.0916 C   0  0  0  0  0  0  0  0  0  0  0  0
   23.9365   -0.0742   33.7049 H   0  0  0  0  0  0  0  0  0  0  0  0
   22.7182    1.2089   33.5151 H   0  0  0  0  0  0  0  0  0  0  0  0
   23.4147    0.4225   32.0778 H   0  0  0  0  0  0  0  0  0  0  0  0
   25.4876    3.7328   31.9643 C   0  0  0  0  0  0  0  0  0  0  0  0
   27.2394    3.4687   32.6876 Br  0  0  0  0  0  0  0  0  0  0  0  0
   25.2590    4.8292   31.1310 C   0  0  0  0  0  0  0  0  0  0  0  0
   26.0766    5.5080   30.9117 H   0  0  0  0  0  0  0  0  0  0  0  0
   23.9951    5.0792   30.5717 C   0  0  0  0  0  0  0  0  0  0  0  0
   23.7759    6.2001   29.7989 O   0  0  0  0  0  0  0  0  0  0  0  0
   24.9115    7.0644   29.6121 C   0  0  0  0  0  0  0  0  0  0  0  0
   25.7224    6.5231   29.1141 H   0  0  0  0  0  0  0  0  0  0  0  0
   24.6414    7.9276   28.9968 H   0  0  0  0  0  0  0  0  0  0  0  0
   25.2784    7.4264   30.5784 H   0  0  0  0  0  0  0  0  0  0  0  0
   19.8723    7.8528   32.6553 C   0  0  0  0  0  0  0  0  0  0  0  0
   19.3146    6.9876   32.9741 H   0  0  0  0  0  0  0  0  0  0  0  0
   19.4938    9.1219   32.9790 C   0  0  0  0  0  0  0  0  0  0  0  0
   18.3705    9.2393   33.7267 N   0  0  0  0  0  0  0  0  0  0  0  0
   17.9403    8.3597   34.0058 H   0  0  0  0  0  0  0  0  0  0  0  0
   17.7550   10.0058   33.4652 H   0  0  0  0  0  0  0  0  0  0  0  0
   20.2172   10.2302   32.5486 C   0  0  0  0  0  0  0  0  0  0  0  0
   19.8055   11.5458   32.9240 C   0  0  0  0  0  0  0  0  0  0  0  0
   19.4760   12.6211   33.2311 N   0  0  0  0  0  0  0  0  0  0  0  0
   25.6390   11.1737   29.6222 C   0  0  0  0  0  0  0  0  0  0  0  0
   25.7295   10.0948   29.5336 H   0  0  0  0  0  0  0  0  0  0  0  0
   26.6055   12.0318   29.0847 C   0  0  0  0  0  0  0  0  0  0  0  0
   27.4619   11.6408   28.5452 H   0  0  0  0  0  0  0  0  0  0  0  0
  1  2  1  0
  2  3  2  0
  3  4  1  0
  4  5  1  0
  4  6  2  0
  6  7  1  0
  7  8  1  0
  7  9  1  0
  9 10  2  0
  9 11  1  0
 11 12  2  0
 12 13  1  0
 13 14  1  0
 14 15  1  0
 14 16  1  0
 16 17  2  0
 16 18  1  0
 18 19  1  0
 18 20  1  0
 18 21  1  0
 21 22  2  0
 22 23  1  0
 22 24  1  0
 24 25  1  0
 25 26  1  0
 26 27  1  0
 26 28  1  0
 26 29  1  0
 24 30  2  0
 30 31  1  0
 30 32  1  0
 32 33  1  0
 32 34  2  0
 34 35  1  0
 35 36  1  0
 36 37  1  0
 36 38  1  0
 36 39  1  0
 13 40  2  0
 40 41  1  0
 40 42  1  0
 42 43  1  0
 43 44  1  0
 43 45  1  0
 42 46  2  0
 46 47  1  0
 47 48  3  0
  6 49  1  0
 49 50  1  0
 49 51  2  0
 51 52  1  0
 51  2  1  0
 46 11  1  0
 34 21  1  0
M  END
>  <score>  (357) 
7.71974

$$$$

     RDKit          3D

 51 53  0  0  0  0  0  0  0  0999 V2000
   26.1464    5.4413   30.8442 H   0  0  0  0  0  0  0  0  0  0  0  0
   25.3041    4.8081   31.0985 C   0  0  0  0  0  0  0  0  0  0  0  0
   25.5043    3.7117   31.9408 C   0  0  0  0  0  0  0  0  0  0  0  0
   27.2587    3.3702   32.6309 Br  0  0  0  0  0  0  0  0  0  0  0  0
   24.4294    2.8670   32.2632 C   0  0  0  0  0  0  0  0  0  0  0  0
   24.6613    1.7949   33.0956 O   0  0  0  0  0  0  0  0  0  0  0  0
   23.6705    0.7564   33.1198 C   0  0  0  0  0  0  0  0  0  0  0  0
   24.0315   -0.0836   33.7249 H   0  0  0  0  0  0  0  0  0  0  0  0
   22.7352    1.1224   33.5553 H   0  0  0  0  0  0  0  0  0  0  0  0
   23.4729    0.3913   32.1065 H   0  0  0  0  0  0  0  0  0  0  0  0
   23.1596    3.1500   31.7273 C   0  0  0  0  0  0  0  0  0  0  0  0
   22.3295    2.4939   31.9731 H   0  0  0  0  0  0  0  0  0  0  0  0
   22.9568    4.2542   30.8832 C   0  0  0  0  0  0  0  0  0  0  0  0
   21.5830    4.5370   30.3208 C   0  0  0  0  0  0  0  0  0  0  0  0
   21.6755    4.8261   29.2694 H   0  0  0  0  0  0  0  0  0  0  0  0
   20.9491    3.6533   30.3763 H   0  0  0  0  0  0  0  0  0  0  0  0
   20.9130    5.6692   31.0863 C   0  0  0  0  0  0  0  0  0  0  0  0
   19.8662    5.4934   31.6853 O   0  0  0  0  0  0  0  0  0  0  0  0
   21.4709    6.9059   30.9976 N   0  0  0  0  0  0  0  0  0  0  0  0
   22.3419    7.0155   30.5019 H   0  0  0  0  0  0  0  0  0  0  0  0
   20.9782    8.0355   31.5456 C   0  0  0  0  0  0  0  0  0  0  0  0
   21.7237    9.0560   31.1932 N   0  0  0  0  0  0  0  0  0  0  0  0
   21.3989   10.2635   31.6515 C   0  0  0  0  0  0  0  0  0  0  0  0
   22.2553   11.4200   31.2116 C   0  0  1  0  0  0  0  0  0  0  0  0
   22.3124   12.1603   32.0131 H   0  0  0  0  0  0  0  0  0  0  0  0
   23.6636   10.9949   30.8429 C   0  0  0  0  0  0  0  0  0  0  0  0
   23.6551   10.0489   30.2879 H   0  0  0  0  0  0  0  0  0  0  0  0
   24.3037   10.8901   31.7267 H   0  0  0  0  0  0  0  0  0  0  0  0
   24.0957   12.0897   29.9804 N   0  0  0  0  0  0  0  0  0  0  0  0
   24.5487   12.8129   30.5335 H   0  0  0  0  0  0  0  0  0  0  0  0
   22.9514   12.6563   29.2539 C   0  0  0  0  0  0  0  0  0  0  0  0
   22.9637   12.3637   28.1997 H   0  0  0  0  0  0  0  0  0  0  0  0
   22.9584   13.7493   29.3221 H   0  0  0  0  0  0  0  0  0  0  0  0
   21.7227   12.0832   29.9408 C   0  0  0  0  0  0  0  0  0  0  0  0
   21.2654   11.3353   29.2846 H   0  0  0  0  0  0  0  0  0  0  0  0
   20.9799   12.8563   30.1685 H   0  0  0  0  0  0  0  0  0  0  0  0
   20.3065   10.4612   32.4858 C   0  0  0  0  0  0  0  0  0  0  0  0
   19.9632   11.7718   32.9238 C   0  0  0  0  0  0  0  0  0  0  0  0
   19.6958   12.8618   33.2356 N   0  0  0  0  0  0  0  0  0  0  0  0
   19.5732    9.3653   32.8602 C   0  0  0  0  0  0  0  0  0  0  0  0
   18.5346    9.4787   33.7187 N   0  0  0  0  0  0  0  0  0  0  0  0
   18.1676   10.4085   33.9065 H   0  0  0  0  0  0  0  0  0  0  0  0
   17.9520    8.6601   33.8639 H   0  0  0  0  0  0  0  0  0  0  0  0
   19.8887    8.1305   32.3764 C   0  0  0  0  0  0  0  0  0  0  0  0
   19.3086    7.2698   32.6619 H   0  0  0  0  0  0  0  0  0  0  0  0
   24.0392    5.1029   30.5696 C   0  0  0  0  0  0  0  0  0  0  0  0
   23.8300    6.1926   29.7513 O   0  0  0  0  0  0  0  0  0  0  0  0
   24.9292    7.1039   29.5956 C   0  0  0  0  0  0  0  0  0  0  0  0
   25.7753    6.6131   29.1027 H   0  0  0  0  0  0  0  0  0  0  0  0
   25.2576    7.4733   30.5726 H   0  0  0  0  0  0  0  0  0  0  0  0
   24.6184    7.9585   28.9859 H   0  0  0  0  0  0  0  0  0  0  0  0
  1  2  1  0
  2  3  2  0
  3  4  1  0
  3  5  1  0
  5  6  1  0
  6  7  1  0
  7  8  1  0
  7  9  1  0
  7 10  1  0
  5 11  2  0
 11 12  1  0
 11 13  1  0
 13 14  1  0
 14 15  1  0
 14 16  1  0
 14 17  1  0
 17 18  2  0
 17 19  1  0
 19 20  1  0
 19 21  1  0
 21 22  2  0
 22 23  1  0
 23 24  1  0
 24 25  1  1
 24 26  1  0
 26 27  1  0
 26 28  1  0
 26 29  1  0
 29 30  1  0
 29 31  1  0
 31 32  1  0
 31 33  1  0
 31 34  1  0
 34 35  1  0
 34 36  1  0
 23 37  2  0
 37 38  1  0
 38 39  3  0
 37 40  1  0
 40 41  1  0
 41 42  1  0
 41 43  1  0
 40 44  2  0
 44 45  1  0
 13 46  2  0
 46 47  1  0
 47 48  1  0
 48 49  1  0
 48 50  1  0
 48 51  1  0
 46  2  1  0
 44 21  1  0
 34 24  1  0
M  END
>  <score>  (358) 
7.71987

$$$$

     RDKit          3D

 57 59  0  0  0  0  0  0  0  0999 V2000
   23.4046   14.8956   27.8843 H   0  0  0  0  0  0  0  0  0  0  0  0
   23.9961   14.1407   28.3979 C   0  0  0  0  0  0  0  0  0  0  0  0
   23.3579   13.1728   29.1862 C   0  0  0  0  0  0  0  0  0  0  0  0
   22.2738   13.1941   29.2758 H   0  0  0  0  0  0  0  0  0  0  0  0
   24.1112   12.1721   29.8313 C   0  0  0  0  0  0  0  0  0  0  0  0
   23.4812   11.1227   30.6535 C   0  0  0  0  0  0  0  0  0  0  0  0
   24.0968   10.1052   30.9464 O   0  0  0  0  0  0  0  0  0  0  0  0
   22.2198   11.2963   31.1648 N   0  0  0  0  0  0  0  0  0  0  0  0
   21.7540   12.1769   31.0226 H   0  0  0  0  0  0  0  0  0  0  0  0
   21.5006   10.2663   31.7034 C   0  0  0  0  0  0  0  0  0  0  0  0
   21.9127    9.0612   31.3670 N   0  0  0  0  0  0  0  0  0  0  0  0
   21.1738    8.0465   31.7361 C   0  0  0  0  0  0  0  0  0  0  0  0
   21.6903    6.8926   31.2870 N   0  0  0  0  0  0  0  0  0  0  0  0
   22.5603    6.9882   30.7855 H   0  0  0  0  0  0  0  0  0  0  0  0
   20.9562    5.7544   31.1205 C   0  0  0  0  0  0  0  0  0  0  0  0
   19.7892    5.7118   31.4752 O   0  0  0  0  0  0  0  0  0  0  0  0
   21.5724    4.5755   30.3783 C   0  0  0  0  0  0  0  0  0  0  0  0
   20.9243    3.6996   30.4798 H   0  0  0  0  0  0  0  0  0  0  0  0
   21.6324    4.8321   29.3176 H   0  0  0  0  0  0  0  0  0  0  0  0
   22.9646    4.2664   30.8954 C   0  0  0  0  0  0  0  0  0  0  0  0
   23.1711    3.1550   31.7290 C   0  0  0  0  0  0  0  0  0  0  0  0
   22.3390    2.5044   31.9788 H   0  0  0  0  0  0  0  0  0  0  0  0
   24.4423    2.8619   32.2600 C   0  0  0  0  0  0  0  0  0  0  0  0
   24.6730    1.7811   33.0806 O   0  0  0  0  0  0  0  0  0  0  0  0
   23.6581    0.7692   33.1044 C   0  0  0  0  0  0  0  0  0  0  0  0
   23.9949   -0.0759   33.7118 H   0  0  0  0  0  0  0  0  0  0  0  0
   22.7331    1.1612   33.5373 H   0  0  0  0  0  0  0  0  0  0  0  0
   23.4537    0.4071   32.0917 H   0  0  0  0  0  0  0  0  0  0  0  0
   25.5168    3.7100   31.9459 C   0  0  0  0  0  0  0  0  0  0  0  0
   27.2710    3.4012   32.6476 Br  0  0  0  0  0  0  0  0  0  0  0  0
   25.3171    4.8115   31.1095 C   0  0  0  0  0  0  0  0  0  0  0  0
   26.1552    5.4554   30.8645 H   0  0  0  0  0  0  0  0  0  0  0  0
   24.0503    5.1081   30.5812 C   0  0  0  0  0  0  0  0  0  0  0  0
   23.8273    6.2076   29.7819 O   0  0  0  0  0  0  0  0  0  0  0  0
   24.9322    7.1053   29.6188 C   0  0  0  0  0  0  0  0  0  0  0  0
   25.7612    6.6014   29.1124 H   0  0  0  0  0  0  0  0  0  0  0  0
   25.2786    7.4668   30.5922 H   0  0  0  0  0  0  0  0  0  0  0  0
   24.6258    7.9654   29.0178 H   0  0  0  0  0  0  0  0  0  0  0  0
   20.0116    8.1532   32.4515 C   0  0  0  0  0  0  0  0  0  0  0  0
   19.4362    7.2827   32.7188 H   0  0  0  0  0  0  0  0  0  0  0  0
   19.6073    9.4032   32.8035 C   0  0  0  0  0  0  0  0  0  0  0  0
   18.4351    9.5212   33.4726 N   0  0  0  0  0  0  0  0  0  0  0  0
   18.0286    8.6741   33.8640 H   0  0  0  0  0  0  0  0  0  0  0  0
   18.2198   10.4175   33.8993 H   0  0  0  0  0  0  0  0  0  0  0  0
   20.3597   10.4951   32.4465 C   0  0  0  0  0  0  0  0  0  0  0  0
   19.9880   11.8156   32.8317 C   0  0  0  0  0  0  0  0  0  0  0  0
   19.7194   12.8981   33.1544 N   0  0  0  0  0  0  0  0  0  0  0  0
   25.5041   12.1796   29.6567 C   0  0  0  0  0  0  0  0  0  0  0  0
   26.1073   11.4002   30.1045 H   0  0  0  0  0  0  0  0  0  0  0  0
   26.1393   13.1727   28.9137 C   0  0  0  0  0  0  0  0  0  0  0  0
   27.2192   13.1734   28.8215 H   0  0  0  0  0  0  0  0  0  0  0  0
   25.3872   14.1632   28.2713 C   0  0  0  0  0  0  0  0  0  0  0  0
   25.9395   15.1561   27.5058 O   0  0  0  0  0  0  0  0  0  0  0  0
   27.3725   15.1891   27.4390 C   0  0  0  0  0  0  0  0  0  0  0  0
   27.7626   14.2324   27.0808 H   0  0  0  0  0  0  0  0  0  0  0  0
   27.8108   15.3914   28.4213 H   0  0  0  0  0  0  0  0  0  0  0  0
   27.6956   15.9756   26.7498 H   0  0  0  0  0  0  0  0  0  0  0  0
  1  2  1  0
  2  3  2  0
  3  4  1  0
  3  5  1  0
  5  6  1  0
  6  7  2  0
  6  8  1  0
  8  9  1  0
  8 10  1  0
 10 11  2  0
 11 12  1  0
 12 13  1  0
 13 14  1  0
 13 15  1  0
 15 16  2  0
 15 17  1  0
 17 18  1  0
 17 19  1  0
 17 20  1  0
 20 21  2  0
 21 22  1  0
 21 23  1  0
 23 24  1  0
 24 25  1  0
 25 26  1  0
 25 27  1  0
 25 28  1  0
 23 29  2  0
 29 30  1  0
 29 31  1  0
 31 32  1  0
 31 33  2  0
 33 34  1  0
 34 35  1  0
 35 36  1  0
 35 37  1  0
 35 38  1  0
 12 39  2  0
 39 40  1  0
 39 41  1  0
 41 42  1  0
 42 43  1  0
 42 44  1  0
 41 45  2  0
 45 46  1  0
 46 47  3  0
  5 48  2  0
 48 49  1  0
 48 50  1  0
 50 51  1  0
 50 52  2  0
 52 53  1  0
 53 54  1  0
 54 55  1  0
 54 56  1  0
 54 57  1  0
 52  2  1  0
 45 10  1  0
 33 20  1  0
M  END
>  <score>  (359) 
7.72235

$$$$

     RDKit          3D

 56 58  0  0  0  0  0  0  0  0999 V2000
   27.4728    9.7443   26.1401 H   0  0  0  0  0  0  0  0  0  0  0  0
   26.8376   10.2104   26.8859 C   0  0  0  0  0  0  0  0  0  0  0  0
   25.8848   11.1589   26.5050 C   0  0  0  0  0  0  0  0  0  0  0  0
   25.7673   11.4202   25.4591 H   0  0  0  0  0  0  0  0  0  0  0  0
   25.0823   11.7717   27.4747 C   0  0  0  0  0  0  0  0  0  0  0  0
   24.3502   12.5178   27.1831 H   0  0  0  0  0  0  0  0  0  0  0  0
   25.2082   11.4319   28.8308 C   0  0  0  0  0  0  0  0  0  0  0  0
   24.3140   12.0868   29.8608 C   0  0  0  0  0  0  0  0  0  0  0  0
   23.9222   13.0315   29.4646 H   0  0  0  0  0  0  0  0  0  0  0  0
   24.8946   12.3083   30.7639 H   0  0  0  0  0  0  0  0  0  0  0  0
   23.2294   11.1631   30.1721 N   0  0  0  0  0  0  0  0  0  0  0  0
   23.2700   10.2532   29.7216 H   0  0  0  0  0  0  0  0  0  0  0  0
   22.2905   11.3302   31.1894 C   0  0  0  0  0  0  0  0  0  0  0  0
   22.2206   12.4515   31.6906 O   0  0  0  0  0  0  0  0  0  0  0  0
   21.4164   10.1768   31.6747 C   0  0  0  0  0  0  0  0  0  0  0  0
   21.7387    8.9157   31.3024 N   0  0  0  0  0  0  0  0  0  0  0  0
   21.0406    7.8781   31.7225 C   0  0  0  0  0  0  0  0  0  0  0  0
   21.5730    6.7399   31.2455 N   0  0  0  0  0  0  0  0  0  0  0  0
   22.4181    6.8804   30.7140 H   0  0  0  0  0  0  0  0  0  0  0  0
   20.8909    5.5716   31.0779 C   0  0  0  0  0  0  0  0  0  0  0  0
   19.7357    5.4691   31.4580 O   0  0  0  0  0  0  0  0  0  0  0  0
   21.5728    4.4455   30.3208 C   0  0  0  0  0  0  0  0  0  0  0  0
   20.9688    3.5390   30.4021 H   0  0  0  0  0  0  0  0  0  0  0  0
   21.6333    4.7148   29.2650 H   0  0  0  0  0  0  0  0  0  0  0  0
   22.9620    4.2168   30.8700 C   0  0  0  0  0  0  0  0  0  0  0  0
   23.1756    3.1207   31.7140 C   0  0  0  0  0  0  0  0  0  0  0  0
   22.3548    2.4569   31.9674 H   0  0  0  0  0  0  0  0  0  0  0  0
   24.4415    2.8550   32.2594 C   0  0  0  0  0  0  0  0  0  0  0  0
   24.6768    1.7777   33.0803 O   0  0  0  0  0  0  0  0  0  0  0  0
   23.6538    0.7708   33.1040 C   0  0  0  0  0  0  0  0  0  0  0  0
   23.4442    0.4100   32.0904 H   0  0  0  0  0  0  0  0  0  0  0  0
   22.7286    1.1714   33.5322 H   0  0  0  0  0  0  0  0  0  0  0  0
   23.9813   -0.0784   33.7124 H   0  0  0  0  0  0  0  0  0  0  0  0
   25.5044    3.7190   31.9556 C   0  0  0  0  0  0  0  0  0  0  0  0
   27.2618    3.4167   32.6585 Br  0  0  0  0  0  0  0  0  0  0  0  0
   25.2907    4.8209   31.1212 C   0  0  0  0  0  0  0  0  0  0  0  0
   26.1143    5.4857   30.8843 H   0  0  0  0  0  0  0  0  0  0  0  0
   24.0264    5.0963   30.5763 C   0  0  0  0  0  0  0  0  0  0  0  0
   23.7992    6.2102   29.7936 O   0  0  0  0  0  0  0  0  0  0  0  0
   24.9234    7.0918   29.6111 C   0  0  0  0  0  0  0  0  0  0  0  0
   24.6347    7.9488   28.9941 H   0  0  0  0  0  0  0  0  0  0  0  0
   25.7471    6.5677   29.1110 H   0  0  0  0  0  0  0  0  0  0  0  0
   25.2842    7.4680   30.5769 H   0  0  0  0  0  0  0  0  0  0  0  0
   19.9598    7.9784   32.5448 C   0  0  0  0  0  0  0  0  0  0  0  0
   19.4319    7.1012   32.8952 H   0  0  0  0  0  0  0  0  0  0  0  0
   19.5983    9.2355   32.9220 C   0  0  0  0  0  0  0  0  0  0  0  0
   18.5226    9.3245   33.7358 N   0  0  0  0  0  0  0  0  0  0  0  0
   18.1525    8.4303   34.0598 H   0  0  0  0  0  0  0  0  0  0  0  0
   17.8630   10.0677   33.5187 H   0  0  0  0  0  0  0  0  0  0  0  0
   20.2969   10.3548   32.5031 C   0  0  0  0  0  0  0  0  0  0  0  0
   19.8811   11.6382   32.9599 C   0  0  0  0  0  0  0  0  0  0  0  0
   19.5272   12.6703   33.3668 N   0  0  0  0  0  0  0  0  0  0  0  0
   26.1668   10.4704   29.1990 C   0  0  0  0  0  0  0  0  0  0  0  0
   26.2768   10.1746   30.2367 H   0  0  0  0  0  0  0  0  0  0  0  0
   26.9844    9.8731   28.2337 C   0  0  0  0  0  0  0  0  0  0  0  0
   27.7280    9.1415   28.5346 H   0  0  0  0  0  0  0  0  0  0  0  0
  1  2  1  0
  2  3  2  0
  3  4  1  0
  3  5  1  0
  5  6  1  0
  5  7  2  0
  7  8  1  0
  8  9  1  0
  8 10  1  0
  8 11  1  0
 11 12  1  0
 11 13  1  0
 13 14  2  0
 13 15  1  0
 15 16  2  0
 16 17  1  0
 17 18  1  0
 18 19  1  0
 18 20  1  0
 20 21  2  0
 20 22  1  0
 22 23  1  0
 22 24  1  0
 22 25  1  0
 25 26  2  0
 26 27  1  0
 26 28  1  0
 28 29  1  0
 29 30  1  0
 30 31  1  0
 30 32  1  0
 30 33  1  0
 28 34  2  0
 34 35  1  0
 34 36  1  0
 36 37  1  0
 36 38  2  0
 38 39  1  0
 39 40  1  0
 40 41  1  0
 40 42  1  0
 40 43  1  0
 17 44  2  0
 44 45  1  0
 44 46  1  0
 46 47  1  0
 47 48  1  0
 47 49  1  0
 46 50  2  0
 50 51  1  0
 51 52  3  0
  7 53  1  0
 53 54  1  0
 53 55  2  0
 55 56  1  0
 55  2  1  0
 50 15  1  0
 38 25  1  0
M  END
>  <score>  (360) 
7.72266

$$$$

     RDKit          3D

 52 55  0  0  0  0  0  0  0  0999 V2000
   26.1771    5.4231   30.8474 H   0  0  0  0  0  0  0  0  0  0  0  0
   25.3354    4.7877   31.1020 C   0  0  0  0  0  0  0  0  0  0  0  0
   25.5245    3.6847   31.9457 C   0  0  0  0  0  0  0  0  0  0  0  0
   27.2749    3.3281   32.6377 Br  0  0  0  0  0  0  0  0  0  0  0  0
   24.4442    2.8481   32.2720 C   0  0  0  0  0  0  0  0  0  0  0  0
   24.6697    1.7842   33.1172 O   0  0  0  0  0  0  0  0  0  0  0  0
   23.6846    0.7409   33.1350 C   0  0  0  0  0  0  0  0  0  0  0  0
   22.7459    1.0931   33.5730 H   0  0  0  0  0  0  0  0  0  0  0  0
   24.0524   -0.0956   33.7369 H   0  0  0  0  0  0  0  0  0  0  0  0
   23.4891    0.3736   32.1226 H   0  0  0  0  0  0  0  0  0  0  0  0
   23.1799    3.1374   31.7307 C   0  0  0  0  0  0  0  0  0  0  0  0
   22.3456    2.4898   31.9826 H   0  0  0  0  0  0  0  0  0  0  0  0
   22.9883    4.2406   30.8825 C   0  0  0  0  0  0  0  0  0  0  0  0
   21.6081    4.5330   30.3363 C   0  0  0  0  0  0  0  0  0  0  0  0
   20.9944    3.6292   30.3444 H   0  0  0  0  0  0  0  0  0  0  0  0
   21.6957    4.8768   29.3038 H   0  0  0  0  0  0  0  0  0  0  0  0
   20.9195    5.6300   31.1316 C   0  0  0  0  0  0  0  0  0  0  0  0
   19.7291    5.5534   31.3858 O   0  0  0  0  0  0  0  0  0  0  0  0
   21.6064    6.7774   31.3848 N   0  0  0  0  0  0  0  0  0  0  0  0
   22.4546    6.9255   30.8658 H   0  0  0  0  0  0  0  0  0  0  0  0
   21.0333    7.9205   31.7797 C   0  0  0  0  0  0  0  0  0  0  0  0
   21.7860    8.9356   31.4373 N   0  0  0  0  0  0  0  0  0  0  0  0
   21.3946   10.1742   31.7446 C   0  0  0  0  0  0  0  0  0  0  0  0
   22.2476   11.2843   31.2740 C   0  0  0  0  0  0  0  0  0  0  0  0
   23.6417   11.2418   31.4825 C   0  0  0  0  0  0  0  0  0  0  0  0
   24.0749   10.4156   32.0397 H   0  0  0  0  0  0  0  0  0  0  0  0
   24.4822   12.2571   31.0110 C   0  0  0  0  0  0  0  0  0  0  0  0
   25.5478   12.2220   31.2179 H   0  0  0  0  0  0  0  0  0  0  0  0
   23.9346   13.2616   30.2101 C   0  0  0  0  0  0  0  0  0  0  0  0
   24.5198   14.3366   29.4275 C   0  0  0  0  0  0  0  0  0  0  0  0
   25.5785   14.5870   29.4055 H   0  0  0  0  0  0  0  0  0  0  0  0
   23.5862   14.9902   28.7664 N   0  0  0  0  0  0  0  0  0  0  0  0
   22.4071   14.3992   29.1327 N   0  0  0  0  0  0  0  0  0  0  0  0
   21.4896   14.7597   28.8681 H   0  0  0  0  0  0  0  0  0  0  0  0
   22.5756   13.3203   29.9862 C   0  0  0  0  0  0  0  0  0  0  0  0
   21.7095   12.3790   30.5607 C   0  0  0  0  0  0  0  0  0  0  0  0
   20.6418   12.4689   30.3848 H   0  0  0  0  0  0  0  0  0  0  0  0
   20.2360   10.3964   32.4688 C   0  0  0  0  0  0  0  0  0  0  0  0
   19.8887   11.7166   32.8807 C   0  0  0  0  0  0  0  0  0  0  0  0
   19.6485   12.8026   33.2122 N   0  0  0  0  0  0  0  0  0  0  0  0
   19.4876    9.3003   32.8169 C   0  0  0  0  0  0  0  0  0  0  0  0
   18.3934    9.3888   33.6010 N   0  0  0  0  0  0  0  0  0  0  0  0
   17.5603    9.0350   33.1424 H   0  0  0  0  0  0  0  0  0  0  0  0
   18.5619    8.9614   34.5065 H   0  0  0  0  0  0  0  0  0  0  0  0
   19.8534    8.0430   32.4562 C   0  0  0  0  0  0  0  0  0  0  0  0
   19.2544    7.1938   32.7348 H   0  0  0  0  0  0  0  0  0  0  0  0
   24.0725    5.0866   30.5695 C   0  0  0  0  0  0  0  0  0  0  0  0
   23.8490    6.1801   29.7585 O   0  0  0  0  0  0  0  0  0  0  0  0
   24.9307    7.1103   29.5927 C   0  0  0  0  0  0  0  0  0  0  0  0
   25.7782    6.6422   29.0822 H   0  0  0  0  0  0  0  0  0  0  0  0
   24.5951    7.9592   28.9898 H   0  0  0  0  0  0  0  0  0  0  0  0
   25.2676    7.4910   30.5620 H   0  0  0  0  0  0  0  0  0  0  0  0
  1  2  1  0
  2  3  2  0
  3  4  1  0
  3  5  1  0
  5  6  1  0
  6  7  1  0
  7  8  1  0
  7  9  1  0
  7 10  1  0
  5 11  2  0
 11 12  1  0
 11 13  1  0
 13 14  1  0
 14 15  1  0
 14 16  1  0
 14 17  1  0
 17 18  2  0
 17 19  1  0
 19 20  1  0
 19 21  1  0
 21 22  2  0
 22 23  1  0
 23 24  1  0
 24 25  2  0
 25 26  1  0
 25 27  1  0
 27 28  1  0
 27 29  2  0
 29 30  1  0
 30 31  1  0
 30 32  2  0
 32 33  1  0
 33 34  1  0
 33 35  1  0
 35 36  2  0
 36 37  1  0
 23 38  2  0
 38 39  1  0
 39 40  3  0
 38 41  1  0
 41 42  1  0
 42 43  1  0
 42 44  1  0
 41 45  2  0
 45 46  1  0
 13 47  2  0
 47 48  1  0
 48 49  1  0
 49 50  1  0
 49 51  1  0
 49 52  1  0
 47  2  1  0
 45 21  1  0
 36 24  1  0
 35 29  1  0
M  END
>  <score>  (361) 
7.72272

$$$$

     RDKit          3D

 44 46  0  0  0  0  0  0  0  0999 V2000
   26.1481    5.4360   30.8438 H   0  0  0  0  0  0  0  0  0  0  0  0
   25.3077    4.8017   31.0986 C   0  0  0  0  0  0  0  0  0  0  0  0
   25.5065    3.7037   31.9394 C   0  0  0  0  0  0  0  0  0  0  0  0
   27.2587    3.3592   32.6301 Br  0  0  0  0  0  0  0  0  0  0  0  0
   24.4307    2.8629   32.2645 C   0  0  0  0  0  0  0  0  0  0  0  0
   24.6625    1.7945   33.1004 O   0  0  0  0  0  0  0  0  0  0  0  0
   23.6746    0.7518   33.1243 C   0  0  0  0  0  0  0  0  0  0  0  0
   22.7378    1.1137   33.5627 H   0  0  0  0  0  0  0  0  0  0  0  0
   23.4794    0.3855   32.1098 H   0  0  0  0  0  0  0  0  0  0  0  0
   24.0392   -0.0873   33.7295 H   0  0  0  0  0  0  0  0  0  0  0  0
   23.1628    3.1465   31.7279 C   0  0  0  0  0  0  0  0  0  0  0  0
   22.3350    2.4886   31.9736 H   0  0  0  0  0  0  0  0  0  0  0  0
   22.9616    4.2518   30.8840 C   0  0  0  0  0  0  0  0  0  0  0  0
   21.5849    4.5244   30.3135 C   0  0  0  0  0  0  0  0  0  0  0  0
   20.9648    3.6289   30.3511 H   0  0  0  0  0  0  0  0  0  0  0  0
   21.6812    4.8267   29.2640 H   0  0  0  0  0  0  0  0  0  0  0  0
   20.8835    5.6329   31.0800 C   0  0  0  0  0  0  0  0  0  0  0  0
   19.8322    5.4334   31.6688 O   0  0  0  0  0  0  0  0  0  0  0  0
   21.4114    6.8814   31.0061 N   0  0  0  0  0  0  0  0  0  0  0  0
   22.2879    7.0105   30.5289 H   0  0  0  0  0  0  0  0  0  0  0  0
   20.9136    8.0012   31.5611 C   0  0  0  0  0  0  0  0  0  0  0  0
   21.6728    9.0120   31.2027 N   0  0  0  0  0  0  0  0  0  0  0  0
   21.3961   10.2427   31.6590 C   0  0  0  0  0  0  0  0  0  0  0  0
   22.3136   11.3404   31.2412 C   0  0  0  0  0  0  0  0  0  0  0  0
   22.3295   12.5710   31.6700 N   0  0  0  0  0  0  0  0  0  0  0  0
   23.3515   13.2123   31.0215 N   0  0  0  0  0  0  0  0  0  0  0  0
   23.9656   12.4326   30.2092 N   0  0  0  0  0  0  0  0  0  0  0  0
   23.3349   11.2528   30.3263 N   0  0  0  0  0  0  0  0  0  0  0  0
   23.5580   10.4269   29.7802 H   0  0  0  0  0  0  0  0  0  0  0  0
   20.2919   10.4498   32.4977 C   0  0  0  0  0  0  0  0  0  0  0  0
   19.9398   11.7578   32.9466 C   0  0  0  0  0  0  0  0  0  0  0  0
   19.6460   12.8354   33.2682 N   0  0  0  0  0  0  0  0  0  0  0  0
   19.5327    9.3536   32.8706 C   0  0  0  0  0  0  0  0  0  0  0  0
   18.4789    9.4587   33.7279 N   0  0  0  0  0  0  0  0  0  0  0  0
   17.9019    8.6347   33.9045 H   0  0  0  0  0  0  0  0  0  0  0  0
   18.1292   10.3891   33.9426 H   0  0  0  0  0  0  0  0  0  0  0  0
   19.8369    8.1090   32.4026 C   0  0  0  0  0  0  0  0  0  0  0  0
   19.2534    7.2537   32.7014 H   0  0  0  0  0  0  0  0  0  0  0  0
   24.0435    5.0996   30.5697 C   0  0  0  0  0  0  0  0  0  0  0  0
   23.8321    6.1883   29.7496 O   0  0  0  0  0  0  0  0  0  0  0  0
   24.9314    7.1019   29.5937 C   0  0  0  0  0  0  0  0  0  0  0  0
   24.6173    7.9569   28.9860 H   0  0  0  0  0  0  0  0  0  0  0  0
   25.2610    7.4737   30.5712 H   0  0  0  0  0  0  0  0  0  0  0  0
   25.7776    6.6152   29.0937 H   0  0  0  0  0  0  0  0  0  0  0  0
  1  2  1  0
  2  3  2  0
  3  4  1  0
  3  5  1  0
  5  6  1  0
  6  7  1  0
  7  8  1  0
  7  9  1  0
  7 10  1  0
  5 11  2  0
 11 12  1  0
 11 13  1  0
 13 14  1  0
 14 15  1  0
 14 16  1  0
 14 17  1  0
 17 18  2  0
 17 19  1  0
 19 20  1  0
 19 21  1  0
 21 22  2  0
 22 23  1  0
 23 24  1  0
 24 25  2  0
 25 26  1  0
 26 27  2  0
 27 28  1  0
 28 29  1  0
 23 30  2  0
 30 31  1  0
 31 32  3  0
 30 33  1  0
 33 34  1  0
 34 35  1  0
 34 36  1  0
 33 37  2  0
 37 38  1  0
 13 39  2  0
 39 40  1  0
 40 41  1  0
 41 42  1  0
 41 43  1  0
 41 44  1  0
 39  2  1  0
 37 21  1  0
 28 24  1  0
M  END
>  <score>  (362) 
7.72275

$$$$

     RDKit          3D

 57 59  0  0  0  0  0  0  0  0999 V2000
   25.5462   12.1967   31.1797 H   0  0  0  0  0  0  0  0  0  0  0  0
   24.4836   12.2438   30.9850 C   0  0  0  0  0  0  0  0  0  0  0  0
   23.6335   11.2409   31.4505 C   0  0  0  0  0  0  0  0  0  0  0  0
   24.0575   10.4061   32.0057 H   0  0  0  0  0  0  0  0  0  0  0  0
   22.2460   11.3156   31.2404 C   0  0  0  0  0  0  0  0  0  0  0  0
   21.3857   10.2045   31.7143 C   0  0  0  0  0  0  0  0  0  0  0  0
   21.8059    8.9663   31.4276 N   0  0  0  0  0  0  0  0  0  0  0  0
   21.0607    7.9421   31.7651 C   0  0  0  0  0  0  0  0  0  0  0  0
   21.6202    6.7919   31.3591 N   0  0  0  0  0  0  0  0  0  0  0  0
   22.4968    6.9207   30.8762 H   0  0  0  0  0  0  0  0  0  0  0  0
   20.9235    5.6439   31.1322 C   0  0  0  0  0  0  0  0  0  0  0  0
   19.7388    5.5706   31.4296 O   0  0  0  0  0  0  0  0  0  0  0  0
   21.6027    4.5374   30.3378 C   0  0  0  0  0  0  0  0  0  0  0  0
   20.9842    3.6392   30.3613 H   0  0  0  0  0  0  0  0  0  0  0  0
   21.6864    4.8633   29.2977 H   0  0  0  0  0  0  0  0  0  0  0  0
   22.9854    4.2438   30.8812 C   0  0  0  0  0  0  0  0  0  0  0  0
   23.1773    3.1400   31.7277 C   0  0  0  0  0  0  0  0  0  0  0  0
   22.3410    2.4953   31.9800 H   0  0  0  0  0  0  0  0  0  0  0  0
   24.4423    2.8493   32.2689 C   0  0  0  0  0  0  0  0  0  0  0  0
   24.6696    1.7830   33.1101 O   0  0  0  0  0  0  0  0  0  0  0  0
   23.6805    0.7444   33.1305 C   0  0  0  0  0  0  0  0  0  0  0  0
   24.0447   -0.0931   33.7341 H   0  0  0  0  0  0  0  0  0  0  0  0
   22.7444    1.1047   33.5678 H   0  0  0  0  0  0  0  0  0  0  0  0
   23.4830    0.3776   32.1180 H   0  0  0  0  0  0  0  0  0  0  0  0
   25.5221    3.6887   31.9469 C   0  0  0  0  0  0  0  0  0  0  0  0
   27.2748    3.3407   32.6393 Br  0  0  0  0  0  0  0  0  0  0  0  0
   25.3331    4.7902   31.1032 C   0  0  0  0  0  0  0  0  0  0  0  0
   26.1766    5.4256   30.8542 H   0  0  0  0  0  0  0  0  0  0  0  0
   24.0701    5.0891   30.5698 C   0  0  0  0  0  0  0  0  0  0  0  0
   23.8453    6.1856   29.7648 O   0  0  0  0  0  0  0  0  0  0  0  0
   24.9306    7.1092   29.5955 C   0  0  0  0  0  0  0  0  0  0  0  0
   25.2705    7.4876   30.5648 H   0  0  0  0  0  0  0  0  0  0  0  0
   24.5978    7.9584   28.9907 H   0  0  0  0  0  0  0  0  0  0  0  0
   25.7737    6.6313   29.0866 H   0  0  0  0  0  0  0  0  0  0  0  0
   19.8714    8.0497   32.4192 C   0  0  0  0  0  0  0  0  0  0  0  0
   19.2879    7.1892   32.7004 H   0  0  0  0  0  0  0  0  0  0  0  0
   19.4733    9.2992   32.7650 C   0  0  0  0  0  0  0  0  0  0  0  0
   18.3285    9.3563   33.4746 N   0  0  0  0  0  0  0  0  0  0  0  0
   17.6859    8.6077   33.2373 H   0  0  0  0  0  0  0  0  0  0  0  0
   18.4668    9.4910   34.4700 H   0  0  0  0  0  0  0  0  0  0  0  0
   20.2102   10.4110   32.4283 C   0  0  0  0  0  0  0  0  0  0  0  0
   19.8398   11.7228   32.8512 C   0  0  0  0  0  0  0  0  0  0  0  0
   19.6305   12.8063   33.2193 N   0  0  0  0  0  0  0  0  0  0  0  0
   21.7363   12.4429   30.5494 C   0  0  0  0  0  0  0  0  0  0  0  0
   20.6726   12.5494   30.3515 H   0  0  0  0  0  0  0  0  0  0  0  0
   22.6058   13.4363   30.0426 C   0  0  0  0  0  0  0  0  0  0  0  0
   22.1957   14.5304   29.3191 O   0  0  0  0  0  0  0  0  0  0  0  0
   20.8036   14.6829   29.0908 C   0  0  0  0  0  0  0  0  0  0  0  0
   20.6419   15.6384   28.5854 H   0  0  0  0  0  0  0  0  0  0  0  0
   20.2550   14.6880   30.0339 H   0  0  0  0  0  0  0  0  0  0  0  0
   20.4249   13.8743   28.4616 H   0  0  0  0  0  0  0  0  0  0  0  0
   23.9867   13.3154   30.2386 C   0  0  0  0  0  0  0  0  0  0  0  0
   24.8133   14.2495   29.6556 O   0  0  0  0  0  0  0  0  0  0  0  0
   26.1687   13.8573   29.4379 C   0  0  0  0  0  0  0  0  0  0  0  0
   26.2203   12.8294   29.0721 H   0  0  0  0  0  0  0  0  0  0  0  0
   26.6402   14.5195   28.7116 H   0  0  0  0  0  0  0  0  0  0  0  0
   26.7330   13.9406   30.3571 H   0  0  0  0  0  0  0  0  0  0  0  0
  1  2  1  0
  2  3  2  0
  3  4  1  0
  3  5  1  0
  5  6  1  0
  6  7  2  0
  7  8  1  0
  8  9  1  0
  9 10  1  0
  9 11  1  0
 11 12  2  0
 11 13  1  0
 13 14  1  0
 13 15  1  0
 13 16  1  0
 16 17  2  0
 17 18  1  0
 17 19  1  0
 19 20  1  0
 20 21  1  0
 21 22  1  0
 21 23  1  0
 21 24  1  0
 19 25  2  0
 25 26  1  0
 25 27  1  0
 27 28  1  0
 27 29  2  0
 29 30  1  0
 30 31  1  0
 31 32  1  0
 31 33  1  0
 31 34  1  0
  8 35  2  0
 35 36  1  0
 35 37  1  0
 37 38  1  0
 38 39  1  0
 38 40  1  0
 37 41  2  0
 41 42  1  0
 42 43  3  0
  5 44  2  0
 44 45  1  0
 44 46  1  0
 46 47  1  0
 47 48  1  0
 48 49  1  0
 48 50  1  0
 48 51  1  0
 46 52  2  0
 52 53  1  0
 53 54  1  0
 54 55  1  0
 54 56  1  0
 54 57  1  0
 52  2  1  0
 41  6  1  0
 29 16  1  0
M  END
>  <score>  (363) 
7.72452

$$$$

     RDKit          3D

 53 55  0  0  0  0  0  0  0  0999 V2000
   25.8878   14.9265   27.7640 H   0  0  0  0  0  0  0  0  0  0  0  0
   25.3863   14.1428   28.3266 C   0  0  0  0  0  0  0  0  0  0  0  0
   23.9886   14.1191   28.4206 C   0  0  0  0  0  0  0  0  0  0  0  0
   23.4037   14.8643   27.8947 H   0  0  0  0  0  0  0  0  0  0  0  0
   23.3433   13.1474   29.1955 C   0  0  0  0  0  0  0  0  0  0  0  0
   22.2590   13.1727   29.2684 H   0  0  0  0  0  0  0  0  0  0  0  0
   24.0913   12.1506   29.8538 C   0  0  0  0  0  0  0  0  0  0  0  0
   23.4558   11.1034   30.6802 C   0  0  0  0  0  0  0  0  0  0  0  0
   24.0777   10.0907   30.9878 O   0  0  0  0  0  0  0  0  0  0  0  0
   22.1916   11.2857   31.1831 N   0  0  0  0  0  0  0  0  0  0  0  0
   21.7367   12.1787   31.0578 H   0  0  0  0  0  0  0  0  0  0  0  0
   21.4766   10.2508   31.7179 C   0  0  0  0  0  0  0  0  0  0  0  0
   21.8958    9.0457   31.3814 N   0  0  0  0  0  0  0  0  0  0  0  0
   21.1533    8.0347   31.7481 C   0  0  0  0  0  0  0  0  0  0  0  0
   21.6769    6.8823   31.3004 N   0  0  0  0  0  0  0  0  0  0  0  0
   22.5459    6.9847   30.7950 H   0  0  0  0  0  0  0  0  0  0  0  0
   20.9490    5.7428   31.1236 C   0  0  0  0  0  0  0  0  0  0  0  0
   19.7746    5.7007   31.4589 O   0  0  0  0  0  0  0  0  0  0  0  0
   21.5809    4.5743   30.3724 C   0  0  0  0  0  0  0  0  0  0  0  0
   20.9300    3.6979   30.4611 H   0  0  0  0  0  0  0  0  0  0  0  0
   21.6453    4.8517   29.3158 H   0  0  0  0  0  0  0  0  0  0  0  0
   22.9730    4.2647   30.8952 C   0  0  0  0  0  0  0  0  0  0  0  0
   23.1721    3.1525   31.7296 C   0  0  0  0  0  0  0  0  0  0  0  0
   22.3402    2.5017   31.9809 H   0  0  0  0  0  0  0  0  0  0  0  0
   24.4410    2.8582   32.2622 C   0  0  0  0  0  0  0  0  0  0  0  0
   24.6740    1.7825   33.0876 O   0  0  0  0  0  0  0  0  0  0  0  0
   23.6649    0.7642   33.1107 C   0  0  0  0  0  0  0  0  0  0  0  0
   24.0063   -0.0810   33.7168 H   0  0  0  0  0  0  0  0  0  0  0  0
   22.7361    1.1488   33.5436 H   0  0  0  0  0  0  0  0  0  0  0  0
   23.4615    0.4017   32.0974 H   0  0  0  0  0  0  0  0  0  0  0  0
   25.5171    3.7035   31.9475 C   0  0  0  0  0  0  0  0  0  0  0  0
   27.2752    3.3907   32.6438 Br  0  0  0  0  0  0  0  0  0  0  0  0
   25.3227    4.8055   31.1086 C   0  0  0  0  0  0  0  0  0  0  0  0
   26.1598    5.4484   30.8600 H   0  0  0  0  0  0  0  0  0  0  0  0
   24.0583    5.1047   30.5776 C   0  0  0  0  0  0  0  0  0  0  0  0
   23.8292    6.2014   29.7756 O   0  0  0  0  0  0  0  0  0  0  0  0
   24.9307    7.1053   29.6146 C   0  0  0  0  0  0  0  0  0  0  0  0
   25.2764    7.4678   30.5896 H   0  0  0  0  0  0  0  0  0  0  0  0
   24.6183    7.9652   29.0145 H   0  0  0  0  0  0  0  0  0  0  0  0
   25.7652    6.6079   29.1073 H   0  0  0  0  0  0  0  0  0  0  0  0
   19.9849    8.1395   32.4586 C   0  0  0  0  0  0  0  0  0  0  0  0
   19.3976    7.2720   32.7130 H   0  0  0  0  0  0  0  0  0  0  0  0
   19.5921    9.3895   32.8208 C   0  0  0  0  0  0  0  0  0  0  0  0
   18.4233    9.5152   33.4978 N   0  0  0  0  0  0  0  0  0  0  0  0
   17.9935    8.6789   33.8804 H   0  0  0  0  0  0  0  0  0  0  0  0
   18.1975   10.4105   33.9145 H   0  0  0  0  0  0  0  0  0  0  0  0
   20.3380   10.4807   32.4596 C   0  0  0  0  0  0  0  0  0  0  0  0
   19.9660   11.8003   32.8471 C   0  0  0  0  0  0  0  0  0  0  0  0
   19.7198   12.8910   33.1649 N   0  0  0  0  0  0  0  0  0  0  0  0
   25.4887   12.1557   29.6891 C   0  0  0  0  0  0  0  0  0  0  0  0
   26.0722   11.3599   30.1311 H   0  0  0  0  0  0  0  0  0  0  0  0
   26.1416   13.1558   28.9649 C   0  0  0  0  0  0  0  0  0  0  0  0
   27.2295   13.1525   28.8986 H   0  0  0  0  0  0  0  0  0  0  0  0
  1  2  1  0
  2  3  2  0
  3  4  1  0
  3  5  1  0
  5  6  1  0
  5  7  2  0
  7  8  1  0
  8  9  2  0
  8 10  1  0
 10 11  1  0
 10 12  1  0
 12 13  2  0
 13 14  1  0
 14 15  1  0
 15 16  1  0
 15 17  1  0
 17 18  2  0
 17 19  1  0
 19 20  1  0
 19 21  1  0
 19 22  1  0
 22 23  2  0
 23 24  1  0
 23 25  1  0
 25 26  1  0
 26 27  1  0
 27 28  1  0
 27 29  1  0
 27 30  1  0
 25 31  2  0
 31 32  1  0
 31 33  1  0
 33 34  1  0
 33 35  2  0
 35 36  1  0
 36 37  1  0
 37 38  1  0
 37 39  1  0
 37 40  1  0
 14 41  2  0
 41 42  1  0
 41 43  1  0
 43 44  1  0
 44 45  1  0
 44 46  1  0
 43 47  2  0
 47 48  1  0
 48 49  3  0
  7 50  1  0
 50 51  1  0
 50 52  2  0
 52 53  1  0
 52  2  1  0
 47 12  1  0
 35 22  1  0
M  END
>  <score>  (364) 
7.72487

$$$$

     RDKit          3D

 53 56  0  0  0  0  0  0  0  0999 V2000
   24.5376   15.1964   27.8005 H   0  0  0  0  0  0  0  0  0  0  0  0
   24.4014   14.3696   28.4884 C   0  0  0  0  0  0  0  0  0  0  0  0
   25.5264   13.7093   28.9921 C   0  0  0  0  0  0  0  0  0  0  0  0
   26.5196   14.0372   28.6990 H   0  0  0  0  0  0  0  0  0  0  0  0
   25.3775   12.6377   29.8773 C   0  0  0  0  0  0  0  0  0  0  0  0
   26.2674   12.1405   30.2501 H   0  0  0  0  0  0  0  0  0  0  0  0
   24.0873   12.2383   30.2655 C   0  0  0  0  0  0  0  0  0  0  0  0
   22.9680   12.9126   29.7769 C   0  0  0  0  0  0  0  0  0  0  0  0
   23.1141   13.9818   28.8767 C   0  0  0  0  0  0  0  0  0  0  0  0
   22.2519   14.5219   28.4875 H   0  0  0  0  0  0  0  0  0  0  0  0
   21.8114   12.2612   30.3900 C   0  0  0  0  0  0  0  0  0  0  0  0
   20.6300   12.4754   30.1744 O   0  0  0  0  0  0  0  0  0  0  0  0
   22.2236   11.3279   31.2866 N   0  0  0  0  0  0  0  0  0  0  0  0
   21.4135   10.3083   31.6522 C   0  0  0  0  0  0  0  0  0  0  0  0
   21.7674    9.1325   31.1764 N   0  0  0  0  0  0  0  0  0  0  0  0
   21.0200    8.1067   31.5180 C   0  0  0  0  0  0  0  0  0  0  0  0
   21.5047    6.9745   30.9713 N   0  0  0  0  0  0  0  0  0  0  0  0
   22.3639    7.0718   30.4565 H   0  0  0  0  0  0  0  0  0  0  0  0
   20.9426    5.7360   31.0652 C   0  0  0  0  0  0  0  0  0  0  0  0
   19.8899    5.5798   31.6570 O   0  0  0  0  0  0  0  0  0  0  0  0
   21.5931    4.5769   30.3232 C   0  0  0  0  0  0  0  0  0  0  0  0
   20.9414    3.7021   30.3903 H   0  0  0  0  0  0  0  0  0  0  0  0
   21.6949    4.8474   29.2650 H   0  0  0  0  0  0  0  0  0  0  0  0
   22.9662    4.2689   30.8874 C   0  0  0  0  0  0  0  0  0  0  0  0
   23.1610    3.1566   31.7278 C   0  0  0  0  0  0  0  0  0  0  0  0
   22.3310    2.5022   31.9740 H   0  0  0  0  0  0  0  0  0  0  0  0
   24.4292    2.8623   32.2638 C   0  0  0  0  0  0  0  0  0  0  0  0
   24.6623    1.7933   33.1009 O   0  0  0  0  0  0  0  0  0  0  0  0
   23.6768    0.7491   33.1264 C   0  0  0  0  0  0  0  0  0  0  0  0
   22.7399    1.1060   33.5671 H   0  0  0  0  0  0  0  0  0  0  0  0
   23.4813    0.3794   32.1138 H   0  0  0  0  0  0  0  0  0  0  0  0
   24.0450   -0.0874   33.7315 H   0  0  0  0  0  0  0  0  0  0  0  0
   25.5100    3.6966   31.9384 C   0  0  0  0  0  0  0  0  0  0  0  0
   27.2601    3.3478   32.6306 Br  0  0  0  0  0  0  0  0  0  0  0  0
   25.3189    4.7992   31.0995 C   0  0  0  0  0  0  0  0  0  0  0  0
   26.1631    5.4287   30.8429 H   0  0  0  0  0  0  0  0  0  0  0  0
   24.0556    5.1036   30.5718 C   0  0  0  0  0  0  0  0  0  0  0  0
   23.8412    6.1873   29.7471 O   0  0  0  0  0  0  0  0  0  0  0  0
   24.9310    7.1105   29.5947 C   0  0  0  0  0  0  0  0  0  0  0  0
   25.2591    7.4816   30.5723 H   0  0  0  0  0  0  0  0  0  0  0  0
   25.7791    6.6359   29.0878 H   0  0  0  0  0  0  0  0  0  0  0  0
   24.6057    7.9648   28.9933 H   0  0  0  0  0  0  0  0  0  0  0  0
   19.9292    8.1905   32.3474 C   0  0  0  0  0  0  0  0  0  0  0  0
   19.3631    7.3277   32.6515 H   0  0  0  0  0  0  0  0  0  0  0  0
   19.5851    9.4232   32.8096 C   0  0  0  0  0  0  0  0  0  0  0  0
   18.5466    9.5102   33.6700 N   0  0  0  0  0  0  0  0  0  0  0  0
   17.9933    8.6742   33.8462 H   0  0  0  0  0  0  0  0  0  0  0  0
   18.1784   10.4307   33.8966 H   0  0  0  0  0  0  0  0  0  0  0  0
   20.3094   10.5282   32.4455 C   0  0  0  0  0  0  0  0  0  0  0  0
   19.9809   11.8461   32.8770 C   0  0  0  0  0  0  0  0  0  0  0  0
   19.7001   12.9238   33.2175 N   0  0  0  0  0  0  0  0  0  0  0  0
   23.5694   11.1849   31.1409 C   0  0  0  0  0  0  0  0  0  0  0  0
   24.2051   10.3187   31.7199 O   0  0  0  0  0  0  0  0  0  0  0  0
  1  2  1  0
  2  3  2  0
  3  4  1  0
  3  5  1  0
  5  6  1  0
  5  7  2  0
  7  8  1  0
  8  9  2  0
  9 10  1  0
  8 11  1  0
 11 12  2  0
 11 13  1  0
 13 14  1  0
 14 15  2  0
 15 16  1  0
 16 17  1  0
 17 18  1  0
 17 19  1  0
 19 20  2  0
 19 21  1  0
 21 22  1  0
 21 23  1  0
 21 24  1  0
 24 25  2  0
 25 26  1  0
 25 27  1  0
 27 28  1  0
 28 29  1  0
 29 30  1  0
 29 31  1  0
 29 32  1  0
 27 33  2  0
 33 34  1  0
 33 35  1  0
 35 36  1  0
 35 37  2  0
 37 38  1  0
 38 39  1  0
 39 40  1  0
 39 41  1  0
 39 42  1  0
 16 43  2  0
 43 44  1  0
 43 45  1  0
 45 46  1  0
 46 47  1  0
 46 48  1  0
 45 49  2  0
 49 50  1  0
 50 51  3  0
 13 52  1  0
 52 53  2  0
  9  2  1  0
 49 14  1  0
 52  7  1  0
 37 24  1  0
M  END
>  <score>  (365) 
7.72548

$$$$

     RDKit          3D

 55 57  0  0  0  0  0  0  0  0999 V2000
   26.0962    5.5195   30.8987 H   0  0  0  0  0  0  0  0  0  0  0  0
   25.2641    4.8681   31.1427 C   0  0  0  0  0  0  0  0  0  0  0  0
   25.4741    3.7508   31.9556 C   0  0  0  0  0  0  0  0  0  0  0  0
   27.2333    3.4215   32.6387 Br  0  0  0  0  0  0  0  0  0  0  0  0
   24.4058    2.8924   32.2563 C   0  0  0  0  0  0  0  0  0  0  0  0
   24.6410    1.7893   33.0437 O   0  0  0  0  0  0  0  0  0  0  0  0
   23.6018    0.8011   33.0735 C   0  0  0  0  0  0  0  0  0  0  0  0
   23.3888    0.4393   32.0629 H   0  0  0  0  0  0  0  0  0  0  0  0
   23.9142   -0.0496   33.6857 H   0  0  0  0  0  0  0  0  0  0  0  0
   22.6852    1.2176   33.5012 H   0  0  0  0  0  0  0  0  0  0  0  0
   23.1320    3.1977   31.7461 C   0  0  0  0  0  0  0  0  0  0  0  0
   22.3088    2.5310   31.9838 H   0  0  0  0  0  0  0  0  0  0  0  0
   22.9139    4.3294   30.9456 C   0  0  0  0  0  0  0  0  0  0  0  0
   21.5139    4.6152   30.4449 C   0  0  0  0  0  0  0  0  0  0  0  0
   20.8749    3.7432   30.6105 H   0  0  0  0  0  0  0  0  0  0  0  0
   21.5454    4.8130   29.3713 H   0  0  0  0  0  0  0  0  0  0  0  0
   20.8951    5.8142   31.1442 C   0  0  0  0  0  0  0  0  0  0  0  0
   19.7705    5.7268   31.6151 O   0  0  0  0  0  0  0  0  0  0  0  0
   21.5613    7.0028   31.1583 N   0  0  0  0  0  0  0  0  0  0  0  0
   22.4094    7.1144   30.6248 H   0  0  0  0  0  0  0  0  0  0  0  0
   21.0985    8.1225   31.7246 C   0  0  0  0  0  0  0  0  0  0  0  0
   21.8701    9.1233   31.4109 N   0  0  0  0  0  0  0  0  0  0  0  0
   21.5251   10.3352   31.8418 C   0  0  0  0  0  0  0  0  0  0  0  0
   22.3056   11.4045   31.5112 O   0  0  0  0  0  0  0  0  0  0  0  0
   23.3846   11.1412   30.6090 C   0  0  0  0  0  0  0  0  0  0  0  0
   23.9160   10.2254   30.8967 H   0  0  0  0  0  0  0  0  0  0  0  0
   24.3379   12.3309   30.7003 C   0  0  0  0  0  0  0  0  0  0  0  0
   24.6296   12.4857   31.7436 H   0  0  0  0  0  0  0  0  0  0  0  0
   25.2373   12.1206   30.1155 H   0  0  0  0  0  0  0  0  0  0  0  0
   23.6756   13.6031   30.1682 C   0  0  0  0  0  0  0  0  0  0  0  0
   24.4078   14.4173   30.1370 H   0  0  0  0  0  0  0  0  0  0  0  0
   22.8625   13.9063   30.8348 H   0  0  0  0  0  0  0  0  0  0  0  0
   23.1351   13.3549   28.8266 N   0  0  0  0  0  0  0  0  0  0  0  0
   23.8909   13.1615   28.1728 H   0  0  0  0  0  0  0  0  0  0  0  0
   22.1413   12.2768   28.7612 C   0  0  0  0  0  0  0  0  0  0  0  0
   21.3136   12.4894   29.4396 H   0  0  0  0  0  0  0  0  0  0  0  0
   21.7234   12.1886   27.7537 H   0  0  0  0  0  0  0  0  0  0  0  0
   22.8343   10.9887   29.1854 C   0  0  0  0  0  0  0  0  0  0  0  0
   23.6496   10.7759   28.4936 H   0  0  0  0  0  0  0  0  0  0  0  0
   22.1335   10.1539   29.1270 H   0  0  0  0  0  0  0  0  0  0  0  0
   20.4090   10.5453   32.6226 C   0  0  0  0  0  0  0  0  0  0  0  0
   20.0509   11.8716   33.0043 C   0  0  0  0  0  0  0  0  0  0  0  0
   19.8153   12.9822   33.2535 N   0  0  0  0  0  0  0  0  0  0  0  0
   19.6605    9.4529   32.9567 C   0  0  0  0  0  0  0  0  0  0  0  0
   18.5315    9.5140   33.6816 N   0  0  0  0  0  0  0  0  0  0  0  0
   17.8831    8.7439   33.5311 H   0  0  0  0  0  0  0  0  0  0  0  0
   18.1546   10.4303   33.8977 H   0  0  0  0  0  0  0  0  0  0  0  0
   19.9879    8.2215   32.5022 C   0  0  0  0  0  0  0  0  0  0  0  0
   19.3785    7.3669   32.7407 H   0  0  0  0  0  0  0  0  0  0  0  0
   23.9947    5.1797   30.6307 C   0  0  0  0  0  0  0  0  0  0  0  0
   23.7850    6.2924   29.8435 O   0  0  0  0  0  0  0  0  0  0  0  0
   24.9324    7.1265   29.6175 C   0  0  0  0  0  0  0  0  0  0  0  0
   25.3224    7.5028   30.5686 H   0  0  0  0  0  0  0  0  0  0  0  0
   24.6618    7.9806   28.9910 H   0  0  0  0  0  0  0  0  0  0  0  0
   25.7243    6.5627   29.1133 H   0  0  0  0  0  0  0  0  0  0  0  0
  1  2  1  0
  2  3  2  0
  3  4  1  0
  3  5  1  0
  5  6  1  0
  6  7  1  0
  7  8  1  0
  7  9  1  0
  7 10  1  0
  5 11  2  0
 11 12  1  0
 11 13  1  0
 13 14  1  0
 14 15  1  0
 14 16  1  0
 14 17  1  0
 17 18  2  0
 17 19  1  0
 19 20  1  0
 19 21  1  0
 21 22  2  0
 22 23  1  0
 23 24  1  0
 24 25  1  0
 25 26  1  0
 25 27  1  0
 27 28  1  0
 27 29  1  0
 27 30  1  0
 30 31  1  0
 30 32  1  0
 30 33  1  0
 33 34  1  0
 33 35  1  0
 35 36  1  0
 35 37  1  0
 35 38  1  0
 38 39  1  0
 38 40  1  0
 23 41  2  0
 41 42  1  0
 42 43  3  0
 41 44  1  0
 44 45  1  0
 45 46  1  0
 45 47  1  0
 44 48  2  0
 48 49  1  0
 13 50  2  0
 50 51  1  0
 51 52  1  0
 52 53  1  0
 52 54  1  0
 52 55  1  0
 50  2  1  0
 48 21  1  0
 38 25  1  0
M  END
>  <score>  (366) 
7.72592

$$$$

     RDKit          3D

 53 55  0  0  0  0  0  0  0  0999 V2000
   22.3523   14.2794   29.5526 H   0  0  0  0  0  0  0  0  0  0  0  0
   22.7248   13.4074   30.0806 C   0  0  0  0  0  0  0  0  0  0  0  0
   21.8385   12.4329   30.5545 C   0  0  0  0  0  0  0  0  0  0  0  0
   20.7722   12.5418   30.3670 H   0  0  0  0  0  0  0  0  0  0  0  0
   22.3261   11.2897   31.2064 C   0  0  0  0  0  0  0  0  0  0  0  0
   21.4200   10.2360   31.6752 C   0  0  0  0  0  0  0  0  0  0  0  0
   21.7528    8.9935   31.3328 N   0  0  0  0  0  0  0  0  0  0  0  0
   21.0018    8.0069   31.7506 C   0  0  0  0  0  0  0  0  0  0  0  0
   21.5128    6.8565   31.2948 N   0  0  0  0  0  0  0  0  0  0  0  0
   22.3609    6.9558   30.7573 H   0  0  0  0  0  0  0  0  0  0  0  0
   20.8223    5.6898   31.2000 C   0  0  0  0  0  0  0  0  0  0  0  0
   19.6750    5.6096   31.6112 O   0  0  0  0  0  0  0  0  0  0  0  0
   21.4749    4.5432   30.4473 C   0  0  0  0  0  0  0  0  0  0  0  0
   21.4989    4.8016   29.3860 H   0  0  0  0  0  0  0  0  0  0  0  0
   20.8658    3.6428   30.5691 H   0  0  0  0  0  0  0  0  0  0  0  0
   22.8881    4.2942   30.9418 C   0  0  0  0  0  0  0  0  0  0  0  0
   23.1273    3.1755   31.7510 C   0  0  0  0  0  0  0  0  0  0  0  0
   22.3122    2.5034   31.9989 H   0  0  0  0  0  0  0  0  0  0  0  0
   24.4080    2.8866   32.2563 C   0  0  0  0  0  0  0  0  0  0  0  0
   24.6576    1.7801   33.0338 O   0  0  0  0  0  0  0  0  0  0  0  0
   23.6102    0.8017   33.0678 C   0  0  0  0  0  0  0  0  0  0  0  0
   22.6998    1.2346   33.4941 H   0  0  0  0  0  0  0  0  0  0  0  0
   23.3907    0.4414   32.0566 H   0  0  0  0  0  0  0  0  0  0  0  0
   23.9141   -0.0497   33.6829 H   0  0  0  0  0  0  0  0  0  0  0  0
   25.4644    3.7573   31.9540 C   0  0  0  0  0  0  0  0  0  0  0  0
   27.2287    3.4692   32.6409 Br  0  0  0  0  0  0  0  0  0  0  0  0
   25.2355    4.8673   31.1416 C   0  0  0  0  0  0  0  0  0  0  0  0
   26.0622    5.5256   30.8955 H   0  0  0  0  0  0  0  0  0  0  0  0
   23.9609    5.1604   30.6297 C   0  0  0  0  0  0  0  0  0  0  0  0
   23.7540    6.2796   29.8519 O   0  0  0  0  0  0  0  0  0  0  0  0
   24.9181    7.0960   29.6286 C   0  0  0  0  0  0  0  0  0  0  0  0
   24.6720    7.9562   29.0001 H   0  0  0  0  0  0  0  0  0  0  0  0
   25.3138    7.4621   30.5825 H   0  0  0  0  0  0  0  0  0  0  0  0
   25.7010    6.5134   29.1306 H   0  0  0  0  0  0  0  0  0  0  0  0
   19.8939    8.1534   32.5298 C   0  0  0  0  0  0  0  0  0  0  0  0
   19.3344    7.2993   32.8831 H   0  0  0  0  0  0  0  0  0  0  0  0
   19.5513    9.4271   32.8747 C   0  0  0  0  0  0  0  0  0  0  0  0
   18.4432    9.5549   33.6436 N   0  0  0  0  0  0  0  0  0  0  0  0
   17.7883    8.7714   33.6072 H   0  0  0  0  0  0  0  0  0  0  0  0
   18.0833   10.4933   33.8169 H   0  0  0  0  0  0  0  0  0  0  0  0
   20.3034   10.5061   32.4559 C   0  0  0  0  0  0  0  0  0  0  0  0
   19.9957   11.8485   32.8344 C   0  0  0  0  0  0  0  0  0  0  0  0
   19.7891   12.9635   33.0976 N   0  0  0  0  0  0  0  0  0  0  0  0
   23.7093   11.1512   31.3900 C   0  0  0  0  0  0  0  0  0  0  0  0
   24.1082   10.2707   31.8863 H   0  0  0  0  0  0  0  0  0  0  0  0
   24.5768   12.1429   30.9420 C   0  0  0  0  0  0  0  0  0  0  0  0
   25.6390   12.0713   31.1049 H   0  0  0  0  0  0  0  0  0  0  0  0
   24.1023   13.2515   30.2490 C   0  0  0  0  0  0  0  0  0  0  0  0
   24.9876   14.1533   29.7242 O   0  0  0  0  0  0  0  0  0  0  0  0
   26.1281   13.5878   29.0455 C   0  0  0  0  0  0  0  0  0  0  0  0
   27.2812   14.0639   29.5894 F   0  0  0  0  0  0  0  0  0  0  0  0
   26.0575   13.9820   27.7523 F   0  0  0  0  0  0  0  0  0  0  0  0
   26.1804   12.2228   29.0426 F   0  0  0  0  0  0  0  0  0  0  0  0
  1  2  1  0
  2  3  2  0
  3  4  1  0
  3  5  1  0
  5  6  1  0
  6  7  2  0
  7  8  1  0
  8  9  1  0
  9 10  1  0
  9 11  1  0
 11 12  2  0
 11 13  1  0
 13 14  1  0
 13 15  1  0
 13 16  1  0
 16 17  2  0
 17 18  1  0
 17 19  1  0
 19 20  1  0
 20 21  1  0
 21 22  1  0
 21 23  1  0
 21 24  1  0
 19 25  2  0
 25 26  1  0
 25 27  1  0
 27 28  1  0
 27 29  2  0
 29 30  1  0
 30 31  1  0
 31 32  1  0
 31 33  1  0
 31 34  1  0
  8 35  2  0
 35 36  1  0
 35 37  1  0
 37 38  1  0
 38 39  1  0
 38 40  1  0
 37 41  2  0
 41 42  1  0
 42 43  3  0
  5 44  2  0
 44 45  1  0
 44 46  1  0
 46 47  1  0
 46 48  2  0
 48 49  1  0
 49 50  1  0
 50 51  1  0
 50 52  1  0
 50 53  1  0
 48  2  1  0
 41  6  1  0
 29 16  1  0
M  END
>  <score>  (367) 
7.72615

$$$$

     RDKit          3D

 53 55  0  0  0  0  0  0  0  0999 V2000
   26.0799    5.5103   30.8879 H   0  0  0  0  0  0  0  0  0  0  0  0
   25.2585    4.8397   31.1191 C   0  0  0  0  0  0  0  0  0  0  0  0
   25.4784    3.7362   31.9481 C   0  0  0  0  0  0  0  0  0  0  0  0
   27.2338    3.4740   32.6709 Br  0  0  0  0  0  0  0  0  0  0  0  0
   24.4208    2.8632   32.2447 C   0  0  0  0  0  0  0  0  0  0  0  0
   24.6583    1.7829   33.0614 O   0  0  0  0  0  0  0  0  0  0  0  0
   23.6246    0.7898   33.0865 C   0  0  0  0  0  0  0  0  0  0  0  0
   23.4152    0.4319   32.0739 H   0  0  0  0  0  0  0  0  0  0  0  0
   23.9385   -0.0608   33.6958 H   0  0  0  0  0  0  0  0  0  0  0  0
   22.7028    1.2001   33.5098 H   0  0  0  0  0  0  0  0  0  0  0  0
   23.1513    3.1347   31.7056 C   0  0  0  0  0  0  0  0  0  0  0  0
   22.3346    2.4623   31.9504 H   0  0  0  0  0  0  0  0  0  0  0  0
   22.9247    4.2444   30.8815 C   0  0  0  0  0  0  0  0  0  0  0  0
   21.5189    4.4895   30.3821 C   0  0  0  0  0  0  0  0  0  0  0  0
   20.9096    3.5894   30.5069 H   0  0  0  0  0  0  0  0  0  0  0  0
   21.5409    4.7380   29.3186 H   0  0  0  0  0  0  0  0  0  0  0  0
   20.8730    5.6384   31.1400 C   0  0  0  0  0  0  0  0  0  0  0  0
   19.8012    5.4943   31.7031 O   0  0  0  0  0  0  0  0  0  0  0  0
   21.4582    6.8695   31.0543 N   0  0  0  0  0  0  0  0  0  0  0  0
   22.3100    6.9706   30.5257 H   0  0  0  0  0  0  0  0  0  0  0  0
   20.9484    8.0168   31.5412 C   0  0  0  0  0  0  0  0  0  0  0  0
   21.6700    9.0644   31.1821 N   0  0  0  0  0  0  0  0  0  0  0  0
   21.3795   10.3110   31.6421 C   0  0  0  0  0  0  0  0  0  0  0  0
   22.2923   11.4922   31.2855 C   0  0  0  0  0  0  0  0  0  0  0  0
   22.1400   12.5961   31.8128 O   0  0  0  0  0  0  0  0  0  0  0  0
   23.3648   11.3826   30.3978 N   0  0  0  0  0  0  0  0  0  0  0  0
   23.3404   10.5949   29.7508 H   0  0  0  0  0  0  0  0  0  0  0  0
   24.2940   12.4763   30.1102 C   0  0  0  0  0  0  0  0  0  0  0  0
   24.9927   12.1531   29.3317 H   0  0  0  0  0  0  0  0  0  0  0  0
   24.8835   12.7531   30.9920 H   0  0  0  0  0  0  0  0  0  0  0  0
   23.5188   13.7015   29.6470 C   0  0  0  0  0  0  0  0  0  0  0  0
   23.0190   14.2434   30.4549 H   0  0  0  0  0  0  0  0  0  0  0  0
   24.0056   14.4819   28.4243 C   0  0  0  0  0  0  0  0  0  0  0  0
   24.9316   14.1276   27.9543 H   0  0  0  0  0  0  0  0  0  0  0  0
   23.8486   15.5661   28.3859 H   0  0  0  0  0  0  0  0  0  0  0  0
   22.7706   13.5973   28.3394 C   0  0  0  0  0  0  0  0  0  0  0  0
   21.7837   14.0625   28.3157 H   0  0  0  0  0  0  0  0  0  0  0  0
   22.8792   12.6505   27.8208 H   0  0  0  0  0  0  0  0  0  0  0  0
   20.2662   10.4576   32.4932 C   0  0  0  0  0  0  0  0  0  0  0  0
   19.8844   11.7216   33.0357 C   0  0  0  0  0  0  0  0  0  0  0  0
   19.5672   12.7459   33.4893 N   0  0  0  0  0  0  0  0  0  0  0  0
   19.5522    9.3326   32.8433 C   0  0  0  0  0  0  0  0  0  0  0  0
   18.5337    9.3808   33.7260 N   0  0  0  0  0  0  0  0  0  0  0  0
   17.9544    8.5506   33.7834 H   0  0  0  0  0  0  0  0  0  0  0  0
   18.1100   10.2884   33.8908 H   0  0  0  0  0  0  0  0  0  0  0  0
   19.8761    8.1060   32.3707 C   0  0  0  0  0  0  0  0  0  0  0  0
   19.3255    7.2416   32.6921 H   0  0  0  0  0  0  0  0  0  0  0  0
   23.9915    5.1164   30.5776 C   0  0  0  0  0  0  0  0  0  0  0  0
   23.7670    6.2265   29.7915 O   0  0  0  0  0  0  0  0  0  0  0  0
   24.9060    7.0823   29.6090 C   0  0  0  0  0  0  0  0  0  0  0  0
   25.7193    6.5388   29.1160 H   0  0  0  0  0  0  0  0  0  0  0  0
   25.2689    7.4428   30.5774 H   0  0  0  0  0  0  0  0  0  0  0  0
   24.6402    7.9454   28.9941 H   0  0  0  0  0  0  0  0  0  0  0  0
  1  2  1  0
  2  3  2  0
  3  4  1  0
  3  5  1  0
  5  6  1  0
  6  7  1  0
  7  8  1  0
  7  9  1  0
  7 10  1  0
  5 11  2  0
 11 12  1  0
 11 13  1  0
 13 14  1  0
 14 15  1  0
 14 16  1  0
 14 17  1  0
 17 18  2  0
 17 19  1  0
 19 20  1  0
 19 21  1  0
 21 22  2  0
 22 23  1  0
 23 24  1  0
 24 25  2  0
 24 26  1  0
 26 27  1  0
 26 28  1  0
 28 29  1  0
 28 30  1  0
 28 31  1  0
 31 32  1  0
 31 33  1  0
 33 34  1  0
 33 35  1  0
 33 36  1  0
 36 37  1  0
 36 38  1  0
 23 39  2  0
 39 40  1  0
 40 41  3  0
 39 42  1  0
 42 43  1  0
 43 44  1  0
 43 45  1  0
 42 46  2  0
 46 47  1  0
 13 48  2  0
 48 49  1  0
 49 50  1  0
 50 51  1  0
 50 52  1  0
 50 53  1  0
 48  2  1  0
 46 21  1  0
 36 31  1  0
M  END
>  <score>  (368) 
7.72754

$$$$

     RDKit          3D

 59 61  0  0  0  0  0  0  0  0999 V2000
   27.7183   15.6254   26.5536 H   0  0  0  0  0  0  0  0  0  0  0  0
   27.0147   14.9333   27.0078 C   0  0  0  0  0  0  0  0  0  0  0  0
   25.8021   15.4054   27.5230 C   0  0  0  0  0  0  0  0  0  0  0  0
   25.5692   16.4658   27.4763 H   0  0  0  0  0  0  0  0  0  0  0  0
   24.8978   14.5115   28.1090 C   0  0  0  0  0  0  0  0  0  0  0  0
   23.9632   14.8792   28.5185 H   0  0  0  0  0  0  0  0  0  0  0  0
   25.1964   13.1461   28.1865 C   0  0  0  0  0  0  0  0  0  0  0  0
   24.2434   12.1989   28.8613 C   0  0  0  0  0  0  0  0  0  0  0  0
   23.2097   12.5122   28.6893 H   0  0  0  0  0  0  0  0  0  0  0  0
   24.3579   11.1954   28.4419 H   0  0  0  0  0  0  0  0  0  0  0  0
   24.5353   12.1643   30.3559 C   0  0  0  0  0  0  0  0  0  0  0  0
   25.5935   11.9411   30.5217 H   0  0  0  0  0  0  0  0  0  0  0  0
   24.3279   13.1402   30.8085 H   0  0  0  0  0  0  0  0  0  0  0  0
   23.7127   11.1275   30.9618 N   0  0  0  0  0  0  0  0  0  0  0  0
   24.0543   10.1721   30.9073 H   0  0  0  0  0  0  0  0  0  0  0  0
   22.3965   11.3135   31.3877 C   0  0  0  0  0  0  0  0  0  0  0  0
   22.0085   12.4807   31.4469 O   0  0  0  0  0  0  0  0  0  0  0  0
   21.4807   10.1479   31.7782 C   0  0  0  0  0  0  0  0  0  0  0  0
   21.8299    8.8758   31.4570 N   0  0  0  0  0  0  0  0  0  0  0  0
   21.0478    7.8537   31.7414 C   0  0  0  0  0  0  0  0  0  0  0  0
   21.6158    6.6952   31.3447 N   0  0  0  0  0  0  0  0  0  0  0  0
   22.5256    6.7903   30.9103 H   0  0  0  0  0  0  0  0  0  0  0  0
   20.9126    5.5410   31.1452 C   0  0  0  0  0  0  0  0  0  0  0  0
   19.7496    5.4508   31.5093 O   0  0  0  0  0  0  0  0  0  0  0  0
   21.5641    4.4203   30.3476 C   0  0  0  0  0  0  0  0  0  0  0  0
   20.9739    3.5032   30.4487 H   0  0  0  0  0  0  0  0  0  0  0  0
   21.5908    4.6935   29.2890 H   0  0  0  0  0  0  0  0  0  0  0  0
   22.9662    4.1916   30.8535 C   0  0  0  0  0  0  0  0  0  0  0  0
   23.1864    3.0912   31.6858 C   0  0  0  0  0  0  0  0  0  0  0  0
   22.3657    2.4219   31.9243 H   0  0  0  0  0  0  0  0  0  0  0  0
   24.4462    2.8325   32.2433 C   0  0  0  0  0  0  0  0  0  0  0  0
   24.6705    1.7546   33.0673 O   0  0  0  0  0  0  0  0  0  0  0  0
   23.6276    0.7692   33.0972 C   0  0  0  0  0  0  0  0  0  0  0  0
   22.7110    1.1880   33.5225 H   0  0  0  0  0  0  0  0  0  0  0  0
   23.9354   -0.0812   33.7090 H   0  0  0  0  0  0  0  0  0  0  0  0
   23.4121    0.4075   32.0871 H   0  0  0  0  0  0  0  0  0  0  0  0
   25.4995    3.7165   31.9587 C   0  0  0  0  0  0  0  0  0  0  0  0
   27.2463    3.4446   32.6913 Br  0  0  0  0  0  0  0  0  0  0  0  0
   25.2810    4.8266   31.1344 C   0  0  0  0  0  0  0  0  0  0  0  0
   26.0932    5.5158   30.9247 H   0  0  0  0  0  0  0  0  0  0  0  0
   24.0198    5.0887   30.5770 C   0  0  0  0  0  0  0  0  0  0  0  0
   23.7810    6.2121   29.8134 O   0  0  0  0  0  0  0  0  0  0  0  0
   24.9087    7.0804   29.6100 C   0  0  0  0  0  0  0  0  0  0  0  0
   25.7164    6.5437   29.1019 H   0  0  0  0  0  0  0  0  0  0  0  0
   25.2859    7.4569   30.5670 H   0  0  0  0  0  0  0  0  0  0  0  0
   24.6227    7.9362   28.9937 H   0  0  0  0  0  0  0  0  0  0  0  0
   19.8425    7.9861   32.3663 C   0  0  0  0  0  0  0  0  0  0  0  0
   19.2092    7.1440   32.5783 H   0  0  0  0  0  0  0  0  0  0  0  0
   19.4826    9.2371   32.7438 C   0  0  0  0  0  0  0  0  0  0  0  0
   18.3298    9.3484   33.4431 N   0  0  0  0  0  0  0  0  0  0  0  0
   18.2828   10.1561   34.0561 H   0  0  0  0  0  0  0  0  0  0  0  0
   17.8919    8.4741   33.7351 H   0  0  0  0  0  0  0  0  0  0  0  0
   20.2672   10.3351   32.4608 C   0  0  0  0  0  0  0  0  0  0  0  0
   19.8122   11.6240   32.8779 C   0  0  0  0  0  0  0  0  0  0  0  0
   19.3935   12.6483   33.2292 N   0  0  0  0  0  0  0  0  0  0  0  0
   26.4107   12.6803   27.6640 C   0  0  0  0  0  0  0  0  0  0  0  0
   26.6562   11.6254   27.7273 H   0  0  0  0  0  0  0  0  0  0  0  0
   27.3186   13.5690   27.0743 C   0  0  0  0  0  0  0  0  0  0  0  0
   28.2624   13.2047   26.6766 H   0  0  0  0  0  0  0  0  0  0  0  0
  1  2  1  0
  2  3  2  0
  3  4  1  0
  3  5  1  0
  5  6  1  0
  5  7  2  0
  7  8  1  0
  8  9  1  0
  8 10  1  0
  8 11  1  0
 11 12  1  0
 11 13  1  0
 11 14  1  0
 14 15  1  0
 14 16  1  0
 16 17  2  0
 16 18  1  0
 18 19  2  0
 19 20  1  0
 20 21  1  0
 21 22  1  0
 21 23  1  0
 23 24  2  0
 23 25  1  0
 25 26  1  0
 25 27  1  0
 25 28  1  0
 28 29  2  0
 29 30  1  0
 29 31  1  0
 31 32  1  0
 32 33  1  0
 33 34  1  0
 33 35  1  0
 33 36  1  0
 31 37  2  0
 37 38  1  0
 37 39  1  0
 39 40  1  0
 39 41  2  0
 41 42  1  0
 42 43  1  0
 43 44  1  0
 43 45  1  0
 43 46  1  0
 20 47  2  0
 47 48  1  0
 47 49  1  0
 49 50  1  0
 50 51  1  0
 50 52  1  0
 49 53  2  0
 53 54  1  0
 54 55  3  0
  7 56  1  0
 56 57  1  0
 56 58  2  0
 58 59  1  0
 58  2  1  0
 53 18  1  0
 41 28  1  0
M  END
>  <score>  (369) 
7.72829

$$$$

     RDKit          3D

 44 45  0  0  0  0  0  0  0  0999 V2000
   26.1508    5.4370   30.8392 H   0  0  0  0  0  0  0  0  0  0  0  0
   25.3132    4.7989   31.0997 C   0  0  0  0  0  0  0  0  0  0  0  0
   25.5074    3.6955   31.9389 C   0  0  0  0  0  0  0  0  0  0  0  0
   27.2609    3.3519   32.6321 Br  0  0  0  0  0  0  0  0  0  0  0  0
   24.4292    2.8584   32.2654 C   0  0  0  0  0  0  0  0  0  0  0  0
   24.6655    1.7934   33.1047 O   0  0  0  0  0  0  0  0  0  0  0  0
   23.6786    0.7517   33.1267 C   0  0  0  0  0  0  0  0  0  0  0  0
   24.0405   -0.0871   33.7294 H   0  0  0  0  0  0  0  0  0  0  0  0
   22.7405    1.1067   33.5651 H   0  0  0  0  0  0  0  0  0  0  0  0
   23.4822    0.3830   32.1145 H   0  0  0  0  0  0  0  0  0  0  0  0
   23.1630    3.1487   31.7273 C   0  0  0  0  0  0  0  0  0  0  0  0
   22.3409    2.4848   31.9761 H   0  0  0  0  0  0  0  0  0  0  0  0
   22.9660    4.2563   30.8830 C   0  0  0  0  0  0  0  0  0  0  0  0
   21.5895    4.5404   30.3137 C   0  0  0  0  0  0  0  0  0  0  0  0
   21.6886    4.8334   29.2613 H   0  0  0  0  0  0  0  0  0  0  0  0
   20.9529    3.6510   30.3613 H   0  0  0  0  0  0  0  0  0  0  0  0
   20.9110    5.6714   31.0685 C   0  0  0  0  0  0  0  0  0  0  0  0
   19.8642    5.5005   31.6692 O   0  0  0  0  0  0  0  0  0  0  0  0
   21.4635    6.9136   31.0053 N   0  0  0  0  0  0  0  0  0  0  0  0
   22.3417    7.0309   30.5191 H   0  0  0  0  0  0  0  0  0  0  0  0
   20.9756    8.0255   31.5735 C   0  0  0  0  0  0  0  0  0  0  0  0
   21.7231    9.0567   31.2251 N   0  0  0  0  0  0  0  0  0  0  0  0
   21.3879   10.2851   31.6416 C   0  0  0  0  0  0  0  0  0  0  0  0
   22.2411   11.4064   31.2053 C   0  0  0  0  0  0  0  0  0  0  0  0
   21.8325   12.5731   31.1753 O   0  0  0  0  0  0  0  0  0  0  0  0
   23.6859   11.0470   30.8691 C   0  0  0  0  0  0  0  0  0  0  0  0
   23.7466   10.4361   29.6541 F   0  0  0  0  0  0  0  0  0  0  0  0
   24.4803   12.1576   30.8525 F   0  0  0  0  0  0  0  0  0  0  0  0
   24.1667   10.1881   31.8108 F   0  0  0  0  0  0  0  0  0  0  0  0
   20.2810   10.4727   32.4684 C   0  0  0  0  0  0  0  0  0  0  0  0
   19.9107   11.7745   32.9214 C   0  0  0  0  0  0  0  0  0  0  0  0
   19.6245   12.8485   33.2610 N   0  0  0  0  0  0  0  0  0  0  0  0
   19.5536    9.3617   32.8449 C   0  0  0  0  0  0  0  0  0  0  0  0
   18.5030    9.4597   33.6994 N   0  0  0  0  0  0  0  0  0  0  0  0
   18.1537   10.3892   33.9167 H   0  0  0  0  0  0  0  0  0  0  0  0
   17.9298    8.6365   33.8901 H   0  0  0  0  0  0  0  0  0  0  0  0
   19.8805    8.1220   32.3931 C   0  0  0  0  0  0  0  0  0  0  0  0
   19.2964    7.2653   32.6836 H   0  0  0  0  0  0  0  0  0  0  0  0
   24.0505    5.1005   30.5683 C   0  0  0  0  0  0  0  0  0  0  0  0
   23.8330    6.1853   29.7453 O   0  0  0  0  0  0  0  0  0  0  0  0
   24.9275    7.1048   29.5940 C   0  0  0  0  0  0  0  0  0  0  0  0
   25.2513    7.4867   30.5688 H   0  0  0  0  0  0  0  0  0  0  0  0
   25.7813    6.6282   29.0988 H   0  0  0  0  0  0  0  0  0  0  0  0
   24.6140    7.9550   28.9832 H   0  0  0  0  0  0  0  0  0  0  0  0
  1  2  1  0
  2  3  2  0
  3  4  1  0
  3  5  1  0
  5  6  1  0
  6  7  1  0
  7  8  1  0
  7  9  1  0
  7 10  1  0
  5 11  2  0
 11 12  1  0
 11 13  1  0
 13 14  1  0
 14 15  1  0
 14 16  1  0
 14 17  1  0
 17 18  2  0
 17 19  1  0
 19 20  1  0
 19 21  1  0
 21 22  2  0
 22 23  1  0
 23 24  1  0
 24 25  2  0
 24 26  1  0
 26 27  1  0
 26 28  1  0
 26 29  1  0
 23 30  2  0
 30 31  1  0
 31 32  3  0
 30 33  1  0
 33 34  1  0
 34 35  1  0
 34 36  1  0
 33 37  2  0
 37 38  1  0
 13 39  2  0
 39 40  1  0
 40 41  1  0
 41 42  1  0
 41 43  1  0
 41 44  1  0
 39  2  1  0
 37 21  1  0
M  END
>  <score>  (370) 
7.72895

$$$$

     RDKit          3D

 52 53  0  0  0  0  0  0  0  0999 V2000
   26.1499    5.4405   30.8430 H   0  0  0  0  0  0  0  0  0  0  0  0
   25.3063    4.8094   31.0985 C   0  0  0  0  0  0  0  0  0  0  0  0
   25.5051    3.7116   31.9389 C   0  0  0  0  0  0  0  0  0  0  0  0
   27.2592    3.3716   32.6304 Br  0  0  0  0  0  0  0  0  0  0  0  0
   24.4286    2.8683   32.2615 C   0  0  0  0  0  0  0  0  0  0  0  0
   24.6619    1.7955   33.0925 O   0  0  0  0  0  0  0  0  0  0  0  0
   23.6694    0.7586   33.1181 C   0  0  0  0  0  0  0  0  0  0  0  0
   22.7347    1.1249   33.5530 H   0  0  0  0  0  0  0  0  0  0  0  0
   24.0281   -0.0817   33.7229 H   0  0  0  0  0  0  0  0  0  0  0  0
   23.4704    0.3928   32.1061 H   0  0  0  0  0  0  0  0  0  0  0  0
   23.1578    3.1555   31.7272 C   0  0  0  0  0  0  0  0  0  0  0  0
   22.3273    2.4991   31.9728 H   0  0  0  0  0  0  0  0  0  0  0  0
   22.9577    4.2627   30.8854 C   0  0  0  0  0  0  0  0  0  0  0  0
   21.5866    4.5615   30.3261 C   0  0  0  0  0  0  0  0  0  0  0  0
   21.6766    4.8298   29.2684 H   0  0  0  0  0  0  0  0  0  0  0  0
   20.9306    3.6956   30.4079 H   0  0  0  0  0  0  0  0  0  0  0  0
   20.9505    5.7198   31.0741 C   0  0  0  0  0  0  0  0  0  0  0  0
   19.9036    5.5682   31.6803 O   0  0  0  0  0  0  0  0  0  0  0  0
   21.5126    6.9516   30.9587 N   0  0  0  0  0  0  0  0  0  0  0  0
   22.3932    7.0497   30.4743 H   0  0  0  0  0  0  0  0  0  0  0  0
   21.0252    8.0804   31.5007 C   0  0  0  0  0  0  0  0  0  0  0  0
   21.7634    9.1076   31.1626 N   0  0  0  0  0  0  0  0  0  0  0  0
   21.4092   10.2970   31.6463 C   0  0  0  0  0  0  0  0  0  0  0  0
   22.1350   11.4146   31.3587 O   0  0  0  0  0  0  0  0  0  0  0  0
   23.3053   11.3149   30.5437 C   0  0  0  0  0  0  0  0  0  0  0  0
   24.4121   10.4941   31.2030 C   0  0  0  0  0  0  0  0  0  0  0  0
   24.0932    9.4565   31.3389 H   0  0  0  0  0  0  0  0  0  0  0  0
   25.3061   10.5141   30.5709 H   0  0  0  0  0  0  0  0  0  0  0  0
   24.6741   10.9178   32.1740 H   0  0  0  0  0  0  0  0  0  0  0  0
   23.7823   12.7523   30.3872 C   0  0  0  0  0  0  0  0  0  0  0  0
   24.6942   12.7836   29.7834 H   0  0  0  0  0  0  0  0  0  0  0  0
   23.0084   13.3523   29.8953 H   0  0  0  0  0  0  0  0  0  0  0  0
   23.9902   13.1888   31.3705 H   0  0  0  0  0  0  0  0  0  0  0  0
   23.0067   10.7384   29.1619 C   0  0  0  0  0  0  0  0  0  0  0  0
   22.1864   11.2882   28.6914 H   0  0  0  0  0  0  0  0  0  0  0  0
   23.8976   10.8297   28.5307 H   0  0  0  0  0  0  0  0  0  0  0  0
   22.7327    9.6819   29.2350 H   0  0  0  0  0  0  0  0  0  0  0  0
   20.3156   10.4687   32.4648 C   0  0  0  0  0  0  0  0  0  0  0  0
   19.9657   11.7721   32.9231 C   0  0  0  0  0  0  0  0  0  0  0  0
   19.6900   12.8517   33.2471 N   0  0  0  0  0  0  0  0  0  0  0  0
   19.6028    9.3706   32.8216 C   0  0  0  0  0  0  0  0  0  0  0  0
   18.5794    9.4702   33.6928 N   0  0  0  0  0  0  0  0  0  0  0  0
   17.9934    8.6522   33.8307 H   0  0  0  0  0  0  0  0  0  0  0  0
   18.2096   10.3998   33.8723 H   0  0  0  0  0  0  0  0  0  0  0  0
   19.9348    8.1530   32.3301 C   0  0  0  0  0  0  0  0  0  0  0  0
   19.3711    7.2843   32.6132 H   0  0  0  0  0  0  0  0  0  0  0  0
   24.0416    5.1081   30.5717 C   0  0  0  0  0  0  0  0  0  0  0  0
   23.8313    6.1973   29.7540 O   0  0  0  0  0  0  0  0  0  0  0  0
   24.9334    7.1040   29.5972 C   0  0  0  0  0  0  0  0  0  0  0  0
   25.2832    7.4505   30.5743 H   0  0  0  0  0  0  0  0  0  0  0  0
   25.7663    6.6200   29.0766 H   0  0  0  0  0  0  0  0  0  0  0  0
   24.6164    7.9731   29.0139 H   0  0  0  0  0  0  0  0  0  0  0  0
  1  2  1  0
  2  3  2  0
  3  4  1  0
  3  5  1  0
  5  6  1  0
  6  7  1  0
  7  8  1  0
  7  9  1  0
  7 10  1  0
  5 11  2  0
 11 12  1  0
 11 13  1  0
 13 14  1  0
 14 15  1  0
 14 16  1  0
 14 17  1  0
 17 18  2  0
 17 19  1  0
 19 20  1  0
 19 21  1  0
 21 22  2  0
 22 23  1  0
 23 24  1  0
 24 25  1  0
 25 26  1  0
 26 27  1  0
 26 28  1  0
 26 29  1  0
 25 30  1  0
 30 31  1  0
 30 32  1  0
 30 33  1  0
 25 34  1  0
 34 35  1  0
 34 36  1  0
 34 37  1  0
 23 38  2  0
 38 39  1  0
 39 40  3  0
 38 41  1  0
 41 42  1  0
 42 43  1  0
 42 44  1  0
 41 45  2  0
 45 46  1  0
 13 47  2  0
 47 48  1  0
 48 49  1  0
 49 50  1  0
 49 51  1  0
 49 52  1  0
 47  2  1  0
 45 21  1  0
M  END
>  <score>  (371) 
7.73104

$$$$

     RDKit          3D

 52 55  0  0  0  0  0  0  0  0999 V2000
   21.9764   14.2644   29.4001 H   0  0  0  0  0  0  0  0  0  0  0  0
   22.4261   13.4328   29.9318 C   0  0  0  0  0  0  0  0  0  0  0  0
   21.6217   12.4443   30.5125 C   0  0  0  0  0  0  0  0  0  0  0  0
   20.5429   12.5084   30.4089 H   0  0  0  0  0  0  0  0  0  0  0  0
   22.2009   11.3533   31.1873 C   0  0  0  0  0  0  0  0  0  0  0  0
   21.3564   10.2488   31.6623 C   0  0  0  0  0  0  0  0  0  0  0  0
   21.6971    9.0361   31.2349 N   0  0  0  0  0  0  0  0  0  0  0  0
   20.9500    8.0157   31.5766 C   0  0  0  0  0  0  0  0  0  0  0  0
   21.4544    6.8944   31.0330 N   0  0  0  0  0  0  0  0  0  0  0  0
   22.3218    7.0188   30.5267 H   0  0  0  0  0  0  0  0  0  0  0  0
   20.9051    5.6536   31.0895 C   0  0  0  0  0  0  0  0  0  0  0  0
   19.8483    5.4668   31.6728 O   0  0  0  0  0  0  0  0  0  0  0  0
   21.5829    4.5315   30.3195 C   0  0  0  0  0  0  0  0  0  0  0  0
   21.6751    4.8251   29.2682 H   0  0  0  0  0  0  0  0  0  0  0  0
   20.9538    3.6414   30.3711 H   0  0  0  0  0  0  0  0  0  0  0  0
   22.9607    4.2521   30.8801 C   0  0  0  0  0  0  0  0  0  0  0  0
   23.1609    3.1482   31.7265 C   0  0  0  0  0  0  0  0  0  0  0  0
   22.3321    2.4915   31.9730 H   0  0  0  0  0  0  0  0  0  0  0  0
   24.4298    2.8632   32.2639 C   0  0  0  0  0  0  0  0  0  0  0  0
   24.6637    1.7932   33.0987 O   0  0  0  0  0  0  0  0  0  0  0  0
   23.6727    0.7560   33.1215 C   0  0  0  0  0  0  0  0  0  0  0  0
   23.4746    0.3900   32.1094 H   0  0  0  0  0  0  0  0  0  0  0  0
   22.7371    1.1193   33.5569 H   0  0  0  0  0  0  0  0  0  0  0  0
   24.0320   -0.0838   33.7253 H   0  0  0  0  0  0  0  0  0  0  0  0
   25.5054    3.7059   31.9409 C   0  0  0  0  0  0  0  0  0  0  0  0
   27.2608    3.3680   32.6321 Br  0  0  0  0  0  0  0  0  0  0  0  0
   25.3076    4.8051   31.0992 C   0  0  0  0  0  0  0  0  0  0  0  0
   26.1497    5.4389   30.8447 H   0  0  0  0  0  0  0  0  0  0  0  0
   24.0431    5.1002   30.5680 C   0  0  0  0  0  0  0  0  0  0  0  0
   23.8307    6.1888   29.7488 O   0  0  0  0  0  0  0  0  0  0  0  0
   24.9284    7.1018   29.5958 C   0  0  0  0  0  0  0  0  0  0  0  0
   25.2619    7.4680   30.5719 H   0  0  0  0  0  0  0  0  0  0  0  0
   25.7735    6.6186   29.0948 H   0  0  0  0  0  0  0  0  0  0  0  0
   24.6149    7.9592   28.9938 H   0  0  0  0  0  0  0  0  0  0  0  0
   19.8483    8.1130   32.3883 C   0  0  0  0  0  0  0  0  0  0  0  0
   19.2746    7.2521   32.6827 H   0  0  0  0  0  0  0  0  0  0  0  0
   19.5198    9.3520   32.8502 C   0  0  0  0  0  0  0  0  0  0  0  0
   18.4871    9.4668   33.7186 N   0  0  0  0  0  0  0  0  0  0  0  0
   17.9075    8.6512   33.9005 H   0  0  0  0  0  0  0  0  0  0  0  0
   18.1351   10.3992   33.9209 H   0  0  0  0  0  0  0  0  0  0  0  0
   20.2468   10.4509   32.4679 C   0  0  0  0  0  0  0  0  0  0  0  0
   19.9100   11.7644   32.9026 C   0  0  0  0  0  0  0  0  0  0  0  0
   19.6692   12.8560   33.2180 N   0  0  0  0  0  0  0  0  0  0  0  0
   23.6010   11.3120   31.3279 C   0  0  0  0  0  0  0  0  0  0  0  0
   24.0876   10.5153   31.8861 H   0  0  0  0  0  0  0  0  0  0  0  0
   24.3828   12.3090   30.7444 C   0  0  0  0  0  0  0  0  0  0  0  0
   23.8137   13.3376   30.0350 C   0  0  0  0  0  0  0  0  0  0  0  0
   24.7792   14.1476   29.5263 O   0  0  0  0  0  0  0  0  0  0  0  0
   26.0144   13.4628   29.7871 C   0  0  0  0  0  0  0  0  0  0  0  0
   26.3964   12.9942   28.8746 H   0  0  0  0  0  0  0  0  0  0  0  0
   26.7800   14.1564   30.1548 H   0  0  0  0  0  0  0  0  0  0  0  0
   25.7295   12.4450   30.7527 O   0  0  0  0  0  0  0  0  0  0  0  0
  1  2  1  0
  2  3  2  0
  3  4  1  0
  3  5  1  0
  5  6  1  0
  6  7  2  0
  7  8  1  0
  8  9  1  0
  9 10  1  0
  9 11  1  0
 11 12  2  0
 11 13  1  0
 13 14  1  0
 13 15  1  0
 13 16  1  0
 16 17  2  0
 17 18  1  0
 17 19  1  0
 19 20  1  0
 20 21  1  0
 21 22  1  0
 21 23  1  0
 21 24  1  0
 19 25  2  0
 25 26  1  0
 25 27  1  0
 27 28  1  0
 27 29  2  0
 29 30  1  0
 30 31  1  0
 31 32  1  0
 31 33  1  0
 31 34  1  0
  8 35  2  0
 35 36  1  0
 35 37  1  0
 37 38  1  0
 38 39  1  0
 38 40  1  0
 37 41  2  0
 41 42  1  0
 42 43  3  0
  5 44  2  0
 44 45  1  0
 44 46  1  0
 46 47  2  0
 47 48  1  0
 48 49  1  0
 49 50  1  0
 49 51  1  0
 49 52  1  0
 47  2  1  0
 41  6  1  0
 52 46  1  0
 29 16  1  0
M  END
>  <score>  (372) 
7.73144

$$$$

     RDKit          3D

 46 48  0  0  0  0  0  0  0  0999 V2000
   23.3526   14.4178   31.0315 H   0  0  0  0  0  0  0  0  0  0  0  0
   23.1734   13.3471   30.9834 C   0  0  0  0  0  0  0  0  0  0  0  0
   22.1444   12.6685   31.6039 O   0  0  0  0  0  0  0  0  0  0  0  0
   22.2833   11.3243   31.2807 C   0  0  0  0  0  0  0  0  0  0  0  0
   21.4051   10.1919   31.7203 C   0  0  0  0  0  0  0  0  0  0  0  0
   21.7521    8.9360   31.3819 N   0  0  0  0  0  0  0  0  0  0  0  0
   21.0017    7.9181   31.7484 C   0  0  0  0  0  0  0  0  0  0  0  0
   21.5803    6.7695   31.3785 N   0  0  0  0  0  0  0  0  0  0  0  0
   22.4570    6.9138   30.9020 H   0  0  0  0  0  0  0  0  0  0  0  0
   20.9057    5.6136   31.1260 C   0  0  0  0  0  0  0  0  0  0  0  0
   19.7156    5.5176   31.3824 O   0  0  0  0  0  0  0  0  0  0  0  0
   21.6117    4.5274   30.3291 C   0  0  0  0  0  0  0  0  0  0  0  0
   21.0056    3.6181   30.3236 H   0  0  0  0  0  0  0  0  0  0  0  0
   21.7046    4.8772   29.2991 H   0  0  0  0  0  0  0  0  0  0  0  0
   22.9920    4.2419   30.8811 C   0  0  0  0  0  0  0  0  0  0  0  0
   23.1800    3.1393   31.7303 C   0  0  0  0  0  0  0  0  0  0  0  0
   22.3439    2.4944   31.9809 H   0  0  0  0  0  0  0  0  0  0  0  0
   24.4420    2.8456   32.2729 C   0  0  0  0  0  0  0  0  0  0  0  0
   24.6669    1.7838   33.1205 O   0  0  0  0  0  0  0  0  0  0  0  0
   23.6876    0.7359   33.1389 C   0  0  0  0  0  0  0  0  0  0  0  0
   23.4944    0.3661   32.1267 H   0  0  0  0  0  0  0  0  0  0  0  0
   24.0625   -0.0970   33.7413 H   0  0  0  0  0  0  0  0  0  0  0  0
   22.7485    1.0828   33.5805 H   0  0  0  0  0  0  0  0  0  0  0  0
   25.5244    3.6788   31.9457 C   0  0  0  0  0  0  0  0  0  0  0  0
   27.2735    3.3156   32.6361 Br  0  0  0  0  0  0  0  0  0  0  0  0
   25.3403    4.7830   31.1021 C   0  0  0  0  0  0  0  0  0  0  0  0
   26.1843    5.4158   30.8484 H   0  0  0  0  0  0  0  0  0  0  0  0
   24.0786    5.0861   30.5684 C   0  0  0  0  0  0  0  0  0  0  0  0
   23.8550    6.1782   29.7561 O   0  0  0  0  0  0  0  0  0  0  0  0
   24.9311    7.1142   29.5894 C   0  0  0  0  0  0  0  0  0  0  0  0
   25.7825    6.6494   29.0819 H   0  0  0  0  0  0  0  0  0  0  0  0
   24.5901    7.9565   28.9803 H   0  0  0  0  0  0  0  0  0  0  0  0
   25.2601    7.5042   30.5580 H   0  0  0  0  0  0  0  0  0  0  0  0
   19.8372    8.0440   32.4427 C   0  0  0  0  0  0  0  0  0  0  0  0
   19.2344    7.1962   32.7323 H   0  0  0  0  0  0  0  0  0  0  0  0
   19.4908    9.3035   32.8174 C   0  0  0  0  0  0  0  0  0  0  0  0
   18.3666    9.3756   33.5622 N   0  0  0  0  0  0  0  0  0  0  0  0
   18.5506    9.1792   34.5416 H   0  0  0  0  0  0  0  0  0  0  0  0
   17.6246    8.7907   33.1895 H   0  0  0  0  0  0  0  0  0  0  0  0
   20.2613   10.4034   32.4854 C   0  0  0  0  0  0  0  0  0  0  0  0
   19.9044   11.7198   32.9054 C   0  0  0  0  0  0  0  0  0  0  0  0
   19.6463   12.8077   33.2286 N   0  0  0  0  0  0  0  0  0  0  0  0
   23.3837   11.1757   30.4716 C   0  0  0  0  0  0  0  0  0  0  0  0
   23.7446   10.2416   30.0507 H   0  0  0  0  0  0  0  0  0  0  0  0
   23.9594   12.4784   30.2821 C   0  0  0  0  0  0  0  0  0  0  0  0
   24.8402   12.7259   29.6939 H   0  0  0  0  0  0  0  0  0  0  0  0
  1  2  1  0
  2  3  1  0
  3  4  1  0
  4  5  1  0
  5  6  2  0
  6  7  1  0
  7  8  1  0
  8  9  1  0
  8 10  1  0
 10 11  2  0
 10 12  1  0
 12 13  1  0
 12 14  1  0
 12 15  1  0
 15 16  2  0
 16 17  1  0
 16 18  1  0
 18 19  1  0
 19 20  1  0
 20 21  1  0
 20 22  1  0
 20 23  1  0
 18 24  2  0
 24 25  1  0
 24 26  1  0
 26 27  1  0
 26 28  2  0
 28 29  1  0
 29 30  1  0
 30 31  1  0
 30 32  1  0
 30 33  1  0
  7 34  2  0
 34 35  1  0
 34 36  1  0
 36 37  1  0
 37 38  1  0
 37 39  1  0
 36 40  2  0
 40 41  1  0
 41 42  3  0
  4 43  2  0
 43 44  1  0
 43 45  1  0
 45 46  1  0
 45  2  2  0
 40  5  1  0
 28 15  1  0
M  END
>  <score>  (373) 
7.73194

$$$$

     RDKit          3D

 54 56  0  0  0  0  0  0  0  0999 V2000
   26.1134    5.5180   30.9206 H   0  0  0  0  0  0  0  0  0  0  0  0
   25.2913    4.8419   31.1370 C   0  0  0  0  0  0  0  0  0  0  0  0
   25.5011    3.7315   31.9632 C   0  0  0  0  0  0  0  0  0  0  0  0
   27.2480    3.4403   32.6907 Br  0  0  0  0  0  0  0  0  0  0  0  0
   24.4429    2.8535   32.2461 C   0  0  0  0  0  0  0  0  0  0  0  0
   24.6670    1.7672   33.0613 O   0  0  0  0  0  0  0  0  0  0  0  0
   23.6200    0.7873   33.0850 C   0  0  0  0  0  0  0  0  0  0  0  0
   23.4049    0.4306   32.0721 H   0  0  0  0  0  0  0  0  0  0  0  0
   23.9255   -0.0649   33.6964 H   0  0  0  0  0  0  0  0  0  0  0  0
   22.7041    1.2113   33.5085 H   0  0  0  0  0  0  0  0  0  0  0  0
   23.1825    3.1211   31.6893 C   0  0  0  0  0  0  0  0  0  0  0  0
   22.3602    2.4546   31.9279 H   0  0  0  0  0  0  0  0  0  0  0  0
   22.9679    4.2255   30.8577 C   0  0  0  0  0  0  0  0  0  0  0  0
   21.5700    4.4730   30.3521 C   0  0  0  0  0  0  0  0  0  0  0  0
   21.5943    4.6745   29.2791 H   0  0  0  0  0  0  0  0  0  0  0  0
   20.9570    3.5821   30.5180 H   0  0  0  0  0  0  0  0  0  0  0  0
   20.9592    5.6585   31.0874 C   0  0  0  0  0  0  0  0  0  0  0  0
   19.8170    5.5899   31.5138 O   0  0  0  0  0  0  0  0  0  0  0  0
   21.6845    6.8097   31.2097 N   0  0  0  0  0  0  0  0  0  0  0  0
   22.5160    6.9192   30.6498 H   0  0  0  0  0  0  0  0  0  0  0  0
   21.1861    7.9614   31.6719 C   0  0  0  0  0  0  0  0  0  0  0  0
   21.8431    8.9803   31.1832 N   0  0  0  0  0  0  0  0  0  0  0  0
   21.4191   10.1874   31.5235 C   0  0  0  0  0  0  0  0  0  0  0  0
   22.1791   11.2560   31.0866 N   0  0  0  0  0  0  0  0  0  0  0  0
   21.6563   12.0851   29.9863 C   0  0  0  0  0  0  0  0  0  0  0  0
   21.3212   11.4357   29.1691 H   0  0  0  0  0  0  0  0  0  0  0  0
   20.8065   12.6980   30.3123 H   0  0  0  0  0  0  0  0  0  0  0  0
   22.7638   13.0091   29.4664 C   0  0  0  0  0  0  0  0  0  0  0  0
   23.0956   13.6808   30.2679 H   0  0  0  0  0  0  0  0  0  0  0  0
   22.3844   13.6188   28.6412 H   0  0  0  0  0  0  0  0  0  0  0  0
   23.9538   12.1647   28.9909 C   0  0  0  0  0  0  0  0  0  0  0  0
   23.6391   11.5544   28.1395 H   0  0  0  0  0  0  0  0  0  0  0  0
   24.7632   12.8180   28.6482 H   0  0  0  0  0  0  0  0  0  0  0  0
   24.4727   11.2288   30.0988 C   0  0  0  0  0  0  0  0  0  0  0  0
   25.4992   11.5143   30.3499 H   0  0  0  0  0  0  0  0  0  0  0  0
   24.4899   10.1973   29.7349 H   0  0  0  0  0  0  0  0  0  0  0  0
   23.6271   11.2913   31.3734 C   0  0  0  0  0  0  0  0  0  0  0  0
   23.9021   10.4811   32.0569 H   0  0  0  0  0  0  0  0  0  0  0  0
   23.8563   12.2388   31.8706 H   0  0  0  0  0  0  0  0  0  0  0  0
   20.3218   10.4047   32.3218 C   0  0  0  0  0  0  0  0  0  0  0  0
   19.9484   11.7255   32.6994 C   0  0  0  0  0  0  0  0  0  0  0  0
   19.6718   12.8134   33.0006 N   0  0  0  0  0  0  0  0  0  0  0  0
   19.6907    9.3035   32.8237 C   0  0  0  0  0  0  0  0  0  0  0  0
   18.6224    9.3968   33.6318 N   0  0  0  0  0  0  0  0  0  0  0  0
   18.1123    8.5230   33.7495 H   0  0  0  0  0  0  0  0  0  0  0  0
   18.0673   10.2399   33.5098 H   0  0  0  0  0  0  0  0  0  0  0  0
   20.1180    8.0561   32.5128 C   0  0  0  0  0  0  0  0  0  0  0  0
   19.6456    7.1875   32.9376 H   0  0  0  0  0  0  0  0  0  0  0  0
   24.0321    5.1083   30.5773 C   0  0  0  0  0  0  0  0  0  0  0  0
   23.8105    6.2256   29.8002 O   0  0  0  0  0  0  0  0  0  0  0  0
   24.9359    7.0998   29.6147 C   0  0  0  0  0  0  0  0  0  0  0  0
   25.2980    7.4675   30.5799 H   0  0  0  0  0  0  0  0  0  0  0  0
   25.7528    6.5700   29.1150 H   0  0  0  0  0  0  0  0  0  0  0  0
   24.6535    7.9596   29.0002 H   0  0  0  0  0  0  0  0  0  0  0  0
  1  2  1  0
  2  3  2  0
  3  4  1  0
  3  5  1  0
  5  6  1  0
  6  7  1  0
  7  8  1  0
  7  9  1  0
  7 10  1  0
  5 11  2  0
 11 12  1  0
 11 13  1  0
 13 14  1  0
 14 15  1  0
 14 16  1  0
 14 17  1  0
 17 18  2  0
 17 19  1  0
 19 20  1  0
 19 21  1  0
 21 22  2  0
 22 23  1  0
 23 24  1  0
 24 25  1  0
 25 26  1  0
 25 27  1  0
 25 28  1  0
 28 29  1  0
 28 30  1  0
 28 31  1  0
 31 32  1  0
 31 33  1  0
 31 34  1  0
 34 35  1  0
 34 36  1  0
 34 37  1  0
 37 38  1  0
 37 39  1  0
 23 40  2  0
 40 41  1  0
 41 42  3  0
 40 43  1  0
 43 44  1  0
 44 45  1  0
 44 46  1  0
 43 47  2  0
 47 48  1  0
 13 49  2  0
 49 50  1  0
 50 51  1  0
 51 52  1  0
 51 53  1  0
 51 54  1  0
 49  2  1  0
 47 21  1  0
 37 24  1  0
M  END
>  <score>  (374) 
7.7327

$$$$

     RDKit          3D

 51 53  0  0  0  0  0  0  0  0999 V2000
   20.6524   12.4125   30.4257 H   0  0  0  0  0  0  0  0  0  0  0  0
   21.7302   12.3232   30.5353 C   0  0  0  0  0  0  0  0  0  0  0  0
   22.5072   13.2551   29.9628 N   0  0  0  0  0  0  0  0  0  0  0  0
   23.8375   13.1838   30.1295 C   0  0  0  0  0  0  0  0  0  0  0  0
   24.7440   14.1166   29.3873 C   0  0  0  0  0  0  0  0  0  0  0  0
   25.3957   14.6409   30.0817 H   0  0  0  0  0  0  0  0  0  0  0  0
   24.1703   14.8506   28.8087 H   0  0  0  0  0  0  0  0  0  0  0  0
   25.3805   13.5333   28.7147 H   0  0  0  0  0  0  0  0  0  0  0  0
   24.4230   12.1965   30.9214 C   0  0  0  0  0  0  0  0  0  0  0  0
   25.4933   12.1963   31.0686 H   0  0  0  0  0  0  0  0  0  0  0  0
   23.6428   11.1907   31.4644 C   0  0  0  0  0  0  0  0  0  0  0  0
   24.0887   10.3865   32.0524 H   0  0  0  0  0  0  0  0  0  0  0  0
   22.2675   11.2579   31.2487 C   0  0  0  0  0  0  0  0  0  0  0  0
   21.4002   10.2060   31.7018 C   0  0  0  0  0  0  0  0  0  0  0  0
   21.7907    8.9809   31.3772 N   0  0  0  0  0  0  0  0  0  0  0  0
   21.0486    7.9629   31.7386 C   0  0  0  0  0  0  0  0  0  0  0  0
   21.6247    6.8118   31.3535 N   0  0  0  0  0  0  0  0  0  0  0  0
   22.4831    6.9414   30.8440 H   0  0  0  0  0  0  0  0  0  0  0  0
   20.9267    5.6583   31.1320 C   0  0  0  0  0  0  0  0  0  0  0  0
   19.7372    5.5966   31.3890 O   0  0  0  0  0  0  0  0  0  0  0  0
   21.6066    4.5479   30.3463 C   0  0  0  0  0  0  0  0  0  0  0  0
   20.9832    3.6512   30.3703 H   0  0  0  0  0  0  0  0  0  0  0  0
   21.6896    4.8816   29.3094 H   0  0  0  0  0  0  0  0  0  0  0  0
   22.9872    4.2456   30.8867 C   0  0  0  0  0  0  0  0  0  0  0  0
   23.1789    3.1401   31.7316 C   0  0  0  0  0  0  0  0  0  0  0  0
   22.3437    2.4928   31.9833 H   0  0  0  0  0  0  0  0  0  0  0  0
   24.4448    2.8505   32.2705 C   0  0  0  0  0  0  0  0  0  0  0  0
   24.6707    1.7853   33.1137 O   0  0  0  0  0  0  0  0  0  0  0  0
   23.6820    0.7445   33.1320 C   0  0  0  0  0  0  0  0  0  0  0  0
   22.7437    1.1008   33.5681 H   0  0  0  0  0  0  0  0  0  0  0  0
   24.0461   -0.0944   33.7342 H   0  0  0  0  0  0  0  0  0  0  0  0
   23.4852    0.3787   32.1192 H   0  0  0  0  0  0  0  0  0  0  0  0
   25.5251    3.6886   31.9454 C   0  0  0  0  0  0  0  0  0  0  0  0
   27.2757    3.3346   32.6395 Br  0  0  0  0  0  0  0  0  0  0  0  0
   25.3353    4.7899   31.1010 C   0  0  0  0  0  0  0  0  0  0  0  0
   26.1773    5.4250   30.8480 H   0  0  0  0  0  0  0  0  0  0  0  0
   24.0722    5.0886   30.5697 C   0  0  0  0  0  0  0  0  0  0  0  0
   23.8488    6.1804   29.7571 O   0  0  0  0  0  0  0  0  0  0  0  0
   24.9325    7.1086   29.5935 C   0  0  0  0  0  0  0  0  0  0  0  0
   24.5998    7.9591   28.9907 H   0  0  0  0  0  0  0  0  0  0  0  0
   25.7801    6.6375   29.0855 H   0  0  0  0  0  0  0  0  0  0  0  0
   25.2693    7.4860   30.5643 H   0  0  0  0  0  0  0  0  0  0  0  0
   19.8797    8.0855   32.4338 C   0  0  0  0  0  0  0  0  0  0  0  0
   19.2983    7.2268   32.7309 H   0  0  0  0  0  0  0  0  0  0  0  0
   19.5080    9.3420   32.7956 C   0  0  0  0  0  0  0  0  0  0  0  0
   18.4365    9.4214   33.6082 N   0  0  0  0  0  0  0  0  0  0  0  0
   17.5790    9.1606   33.1354 H   0  0  0  0  0  0  0  0  0  0  0  0
   18.5916    8.8907   34.4581 H   0  0  0  0  0  0  0  0  0  0  0  0
   20.2496   10.4362   32.4310 C   0  0  0  0  0  0  0  0  0  0  0  0
   19.8967   11.7456   32.8637 C   0  0  0  0  0  0  0  0  0  0  0  0
   19.6471   12.8219   33.2225 N   0  0  0  0  0  0  0  0  0  0  0  0
  1  2  1  0
  2  3  2  0
  3  4  1  0
  4  5  1  0
  5  6  1  0
  5  7  1  0
  5  8  1  0
  4  9  2  0
  9 10  1  0
  9 11  1  0
 11 12  1  0
 11 13  2  0
 13 14  1  0
 14 15  2  0
 15 16  1  0
 16 17  1  0
 17 18  1  0
 17 19  1  0
 19 20  2  0
 19 21  1  0
 21 22  1  0
 21 23  1  0
 21 24  1  0
 24 25  2  0
 25 26  1  0
 25 27  1  0
 27 28  1  0
 28 29  1  0
 29 30  1  0
 29 31  1  0
 29 32  1  0
 27 33  2  0
 33 34  1  0
 33 35  1  0
 35 36  1  0
 35 37  2  0
 37 38  1  0
 38 39  1  0
 39 40  1  0
 39 41  1  0
 39 42  1  0
 16 43  2  0
 43 44  1  0
 43 45  1  0
 45 46  1  0
 46 47  1  0
 46 48  1  0
 45 49  2  0
 49 50  1  0
 50 51  3  0
 13  2  1  0
 49 14  1  0
 37 24  1  0
M  END
>  <score>  (375) 
7.73285

$$$$

     RDKit          3D

 56 58  0  0  0  0  0  0  0  0999 V2000
   25.5247   12.2953   31.2179 H   0  0  0  0  0  0  0  0  0  0  0  0
   24.4654   12.3283   30.9915 C   0  0  0  0  0  0  0  0  0  0  0  0
   23.6302   11.2968   31.4164 C   0  0  0  0  0  0  0  0  0  0  0  0
   24.0619   10.4640   31.9642 H   0  0  0  0  0  0  0  0  0  0  0  0
   22.2439   11.3427   31.1916 C   0  0  0  0  0  0  0  0  0  0  0  0
   21.4012   10.2125   31.6705 C   0  0  0  0  0  0  0  0  0  0  0  0
   21.8106    8.9662   31.3917 N   0  0  0  0  0  0  0  0  0  0  0  0
   21.0650    7.9487   31.7631 C   0  0  0  0  0  0  0  0  0  0  0  0
   21.6299    6.7901   31.3762 N   0  0  0  0  0  0  0  0  0  0  0  0
   22.4784    6.9216   30.8409 H   0  0  0  0  0  0  0  0  0  0  0  0
   20.9300    5.6431   31.1415 C   0  0  0  0  0  0  0  0  0  0  0  0
   19.7361    5.5831   31.3980 O   0  0  0  0  0  0  0  0  0  0  0  0
   21.6043    4.5386   30.3457 C   0  0  0  0  0  0  0  0  0  0  0  0
   20.9845    3.6415   30.3703 H   0  0  0  0  0  0  0  0  0  0  0  0
   21.6832    4.8782   29.3101 H   0  0  0  0  0  0  0  0  0  0  0  0
   22.9844    4.2428   30.8862 C   0  0  0  0  0  0  0  0  0  0  0  0
   23.1776    3.1396   31.7320 C   0  0  0  0  0  0  0  0  0  0  0  0
   22.3425    2.4926   31.9832 H   0  0  0  0  0  0  0  0  0  0  0  0
   24.4439    2.8521   32.2696 C   0  0  0  0  0  0  0  0  0  0  0  0
   24.6700    1.7859   33.1107 O   0  0  0  0  0  0  0  0  0  0  0  0
   23.6792    0.7473   33.1291 C   0  0  0  0  0  0  0  0  0  0  0  0
   24.0406   -0.0929   33.7319 H   0  0  0  0  0  0  0  0  0  0  0  0
   22.7419    1.1078   33.5645 H   0  0  0  0  0  0  0  0  0  0  0  0
   23.4822    0.3827   32.1156 H   0  0  0  0  0  0  0  0  0  0  0  0
   25.5224    3.6919   31.9461 C   0  0  0  0  0  0  0  0  0  0  0  0
   27.2745    3.3421   32.6392 Br  0  0  0  0  0  0  0  0  0  0  0  0
   25.3293    4.7911   31.1010 C   0  0  0  0  0  0  0  0  0  0  0  0
   26.1696    5.4283   30.8484 H   0  0  0  0  0  0  0  0  0  0  0  0
   24.0662    5.0892   30.5702 C   0  0  0  0  0  0  0  0  0  0  0  0
   23.8449    6.1830   29.7589 O   0  0  0  0  0  0  0  0  0  0  0  0
   24.9313    7.1080   29.5950 C   0  0  0  0  0  0  0  0  0  0  0  0
   25.7769    6.6318   29.0882 H   0  0  0  0  0  0  0  0  0  0  0  0
   25.2686    7.4831   30.5667 H   0  0  0  0  0  0  0  0  0  0  0  0
   24.6021    7.9599   28.9914 H   0  0  0  0  0  0  0  0  0  0  0  0
   19.8749    8.0762   32.4342 C   0  0  0  0  0  0  0  0  0  0  0  0
   19.2845    7.2191   32.7118 H   0  0  0  0  0  0  0  0  0  0  0  0
   19.4937    9.3299   32.7809 C   0  0  0  0  0  0  0  0  0  0  0  0
   18.3933    9.4113   33.5589 N   0  0  0  0  0  0  0  0  0  0  0  0
   17.6028    8.9159   33.1624 H   0  0  0  0  0  0  0  0  0  0  0  0
   18.5916    9.1190   34.5100 H   0  0  0  0  0  0  0  0  0  0  0  0
   20.2434   10.4209   32.4154 C   0  0  0  0  0  0  0  0  0  0  0  0
   19.8788   11.7275   32.8508 C   0  0  0  0  0  0  0  0  0  0  0  0
   19.6253   12.7984   33.2228 N   0  0  0  0  0  0  0  0  0  0  0  0
   21.7204   12.4707   30.5023 C   0  0  0  0  0  0  0  0  0  0  0  0
   20.6575   12.5699   30.3033 H   0  0  0  0  0  0  0  0  0  0  0  0
   22.5680   13.4717   29.9998 C   0  0  0  0  0  0  0  0  0  0  0  0
   22.0548   14.5379   29.2515 N   0  0  0  0  0  0  0  0  0  0  0  0
   21.0924   14.8192   29.4033 H   0  0  0  0  0  0  0  0  0  0  0  0
   22.7758   15.2357   28.2929 C   0  0  0  0  0  0  0  0  0  0  0  0
   23.8709   14.8451   27.9199 O   0  0  0  0  0  0  0  0  0  0  0  0
   22.2735   16.5713   27.7598 C   0  0  0  0  0  0  0  0  0  0  0  0
   21.8026   17.1405   28.5684 H   0  0  0  0  0  0  0  0  0  0  0  0
   21.5533   16.4348   26.9522 H   0  0  0  0  0  0  0  0  0  0  0  0
   23.1151   17.1459   27.3567 H   0  0  0  0  0  0  0  0  0  0  0  0
   23.9396   13.3967   30.2627 C   0  0  0  0  0  0  0  0  0  0  0  0
   24.5892   14.1806   29.8872 H   0  0  0  0  0  0  0  0  0  0  0  0
  1  2  1  0
  2  3  2  0
  3  4  1  0
  3  5  1  0
  5  6  1  0
  6  7  2  0
  7  8  1  0
  8  9  1  0
  9 10  1  0
  9 11  1  0
 11 12  2  0
 11 13  1  0
 13 14  1  0
 13 15  1  0
 13 16  1  0
 16 17  2  0
 17 18  1  0
 17 19  1  0
 19 20  1  0
 20 21  1  0
 21 22  1  0
 21 23  1  0
 21 24  1  0
 19 25  2  0
 25 26  1  0
 25 27  1  0
 27 28  1  0
 27 29  2  0
 29 30  1  0
 30 31  1  0
 31 32  1  0
 31 33  1  0
 31 34  1  0
  8 35  2  0
 35 36  1  0
 35 37  1  0
 37 38  1  0
 38 39  1  0
 38 40  1  0
 37 41  2  0
 41 42  1  0
 42 43  3  0
  5 44  2  0
 44 45  1  0
 44 46  1  0
 46 47  1  0
 47 48  1  0
 47 49  1  0
 49 50  2  0
 49 51  1  0
 51 52  1  0
 51 53  1  0
 51 54  1  0
 46 55  2  0
 55 56  1  0
 55  2  1  0
 41  6  1  0
 29 16  1  0
M  END
>  <score>  (376) 
7.73341

$$$$

     RDKit          3D

 49 51  0  0  0  0  0  0  0  0999 V2000
   22.3956   14.6855   30.7735 H   0  0  0  0  0  0  0  0  0  0  0  0
   22.7000   13.6417   30.8318 C   0  0  0  0  0  0  0  0  0  0  0  0
   21.7725   12.6680   31.2100 C   0  0  0  0  0  0  0  0  0  0  0  0
   20.7644   12.9962   31.4592 H   0  0  0  0  0  0  0  0  0  0  0  0
   22.1623   11.3089   31.2727 C   0  0  0  0  0  0  0  0  0  0  0  0
   21.2139   10.2349   31.5974 C   0  0  0  0  0  0  0  0  0  0  0  0
   21.5005    9.0272   31.1082 N   0  0  0  0  0  0  0  0  0  0  0  0
   20.7646    8.0023   31.4429 C   0  0  0  0  0  0  0  0  0  0  0  0
   21.3107    6.8907   30.9137 N   0  0  0  0  0  0  0  0  0  0  0  0
   22.1729    7.0349   30.4071 H   0  0  0  0  0  0  0  0  0  0  0  0
   20.8168    5.6313   31.0576 C   0  0  0  0  0  0  0  0  0  0  0  0
   19.7493    5.4717   31.6253 O   0  0  0  0  0  0  0  0  0  0  0  0
   21.5207    4.4741   30.3594 C   0  0  0  0  0  0  0  0  0  0  0  0
   20.9192    3.5701   30.4825 H   0  0  0  0  0  0  0  0  0  0  0  0
   21.5739    4.6887   29.2907 H   0  0  0  0  0  0  0  0  0  0  0  0
   22.9185    4.2513   30.8969 C   0  0  0  0  0  0  0  0  0  0  0  0
   23.1470    3.1429   31.7229 C   0  0  0  0  0  0  0  0  0  0  0  0
   22.3292    2.4682   31.9564 H   0  0  0  0  0  0  0  0  0  0  0  0
   24.4178    2.8740   32.2581 C   0  0  0  0  0  0  0  0  0  0  0  0
   24.6630    1.7822   33.0584 O   0  0  0  0  0  0  0  0  0  0  0  0
   23.6526    0.7636   33.0668 C   0  0  0  0  0  0  0  0  0  0  0  0
   23.9953   -0.0931   33.6546 H   0  0  0  0  0  0  0  0  0  0  0  0
   23.4426    0.4209   32.0482 H   0  0  0  0  0  0  0  0  0  0  0  0
   22.7267    1.1429   33.5104 H   0  0  0  0  0  0  0  0  0  0  0  0
   25.4726    3.7514   31.9636 C   0  0  0  0  0  0  0  0  0  0  0  0
   27.2293    3.4603   32.6696 Br  0  0  0  0  0  0  0  0  0  0  0  0
   25.2529    4.8525   31.1318 C   0  0  0  0  0  0  0  0  0  0  0  0
   26.0808    5.5117   30.8938 H   0  0  0  0  0  0  0  0  0  0  0  0
   23.9856    5.1228   30.5893 C   0  0  0  0  0  0  0  0  0  0  0  0
   23.7639    6.2141   29.7773 O   0  0  0  0  0  0  0  0  0  0  0  0
   24.8960    7.0705   29.5579 C   0  0  0  0  0  0  0  0  0  0  0  0
   24.6355    7.8653   28.8538 H   0  0  0  0  0  0  0  0  0  0  0  0
   25.2154    7.5257   30.5002 H   0  0  0  0  0  0  0  0  0  0  0  0
   25.7379    6.5050   29.1456 H   0  0  0  0  0  0  0  0  0  0  0  0
   19.6884    8.0884   32.2845 C   0  0  0  0  0  0  0  0  0  0  0  0
   19.1425    7.2128   32.5920 H   0  0  0  0  0  0  0  0  0  0  0  0
   19.3806    9.3284   32.7682 C   0  0  0  0  0  0  0  0  0  0  0  0
   18.3719    9.4389   33.6564 N   0  0  0  0  0  0  0  0  0  0  0  0
   18.0784   10.3832   33.8956 H   0  0  0  0  0  0  0  0  0  0  0  0
   17.6876    8.6901   33.6621 H   0  0  0  0  0  0  0  0  0  0  0  0
   20.1127   10.4349   32.4163 C   0  0  0  0  0  0  0  0  0  0  0  0
   19.8124   11.7206   32.9536 C   0  0  0  0  0  0  0  0  0  0  0  0
   19.5882   12.7864   33.3640 N   0  0  0  0  0  0  0  0  0  0  0  0
   23.5020   10.9565   31.0099 C   0  0  0  0  0  0  0  0  0  0  0  0
   24.0350    9.2897   31.1449 Cl  0  0  0  0  0  0  0  0  0  0  0  0
   24.4077   11.9359   30.6121 C   0  0  0  0  0  0  0  0  0  0  0  0
   25.4260   11.6654   30.3496 H   0  0  0  0  0  0  0  0  0  0  0  0
   24.0071   13.2633   30.4923 C   0  0  0  0  0  0  0  0  0  0  0  0
   25.1630   14.3963   29.8736 Cl  0  0  0  0  0  0  0  0  0  0  0  0
  1  2  1  0
  2  3  2  0
  3  4  1  0
  3  5  1  0
  5  6  1  0
  6  7  2  0
  7  8  1  0
  8  9  1  0
  9 10  1  0
  9 11  1  0
 11 12  2  0
 11 13  1  0
 13 14  1  0
 13 15  1  0
 13 16  1  0
 16 17  2  0
 17 18  1  0
 17 19  1  0
 19 20  1  0
 20 21  1  0
 21 22  1  0
 21 23  1  0
 21 24  1  0
 19 25  2  0
 25 26  1  0
 25 27  1  0
 27 28  1  0
 27 29  2  0
 29 30  1  0
 30 31  1  0
 31 32  1  0
 31 33  1  0
 31 34  1  0
  8 35  2  0
 35 36  1  0
 35 37  1  0
 37 38  1  0
 38 39  1  0
 38 40  1  0
 37 41  2  0
 41 42  1  0
 42 43  3  0
  5 44  2  0
 44 45  1  0
 44 46  1  0
 46 47  1  0
 46 48  2  0
 48 49  1  0
 48  2  1  0
 41  6  1  0
 29 16  1  0
M  END
>  <score>  (377) 
7.73346

$$$$

     RDKit          3D

 57 58  0  0  0  0  0  0  0  0999 V2000
   26.1878    5.4138   30.8444 H   0  0  0  0  0  0  0  0  0  0  0  0
   25.3436    4.7806   31.1011 C   0  0  0  0  0  0  0  0  0  0  0  0
   25.5234    3.6747   31.9456 C   0  0  0  0  0  0  0  0  0  0  0  0
   27.2726    3.3045   32.6357 Br  0  0  0  0  0  0  0  0  0  0  0  0
   24.4386    2.8435   32.2730 C   0  0  0  0  0  0  0  0  0  0  0  0
   24.6643    1.7832   33.1226 O   0  0  0  0  0  0  0  0  0  0  0  0
   23.6894    0.7332   33.1413 C   0  0  0  0  0  0  0  0  0  0  0  0
   24.0689   -0.0964   33.7432 H   0  0  0  0  0  0  0  0  0  0  0  0
   22.7504    1.0751   33.5842 H   0  0  0  0  0  0  0  0  0  0  0  0
   23.4972    0.3618   32.1306 H   0  0  0  0  0  0  0  0  0  0  0  0
   23.1774    3.1443   31.7311 C   0  0  0  0  0  0  0  0  0  0  0  0
   22.3433    2.4971   31.9815 H   0  0  0  0  0  0  0  0  0  0  0  0
   22.9921    4.2509   30.8847 C   0  0  0  0  0  0  0  0  0  0  0  0
   21.6132    4.5477   30.3360 C   0  0  0  0  0  0  0  0  0  0  0  0
   21.0042    3.6382   30.3260 H   0  0  0  0  0  0  0  0  0  0  0  0
   21.7144    4.8856   29.3030 H   0  0  0  0  0  0  0  0  0  0  0  0
   20.9122    5.6493   31.1295 C   0  0  0  0  0  0  0  0  0  0  0  0
   19.7242    5.5675   31.3886 O   0  0  0  0  0  0  0  0  0  0  0  0
   21.5817    6.8137   31.3786 N   0  0  0  0  0  0  0  0  0  0  0  0
   22.4712    6.9389   30.9212 H   0  0  0  0  0  0  0  0  0  0  0  0
   21.0061    7.9780   31.7339 C   0  0  0  0  0  0  0  0  0  0  0  0
   21.7563    8.9903   31.3432 N   0  0  0  0  0  0  0  0  0  0  0  0
   21.3950   10.2331   31.6774 C   0  0  0  0  0  0  0  0  0  0  0  0
   22.2673   11.3744   31.1977 C   0  0  0  0  0  0  0  0  0  0  0  0
   23.2766   10.9933   31.0235 H   0  0  0  0  0  0  0  0  0  0  0  0
   22.3262   12.1351   31.9819 H   0  0  0  0  0  0  0  0  0  0  0  0
   21.7194   12.0151   29.9073 C   0  0  0  0  0  0  0  0  0  0  0  0
   21.7006   11.2662   29.1089 H   0  0  0  0  0  0  0  0  0  0  0  0
   20.6873   12.3352   30.0867 H   0  0  0  0  0  0  0  0  0  0  0  0
   22.5333   13.2366   29.4350 C   0  0  0  0  0  0  0  0  0  0  0  0
   21.9673   13.7543   28.6549 H   0  0  0  0  0  0  0  0  0  0  0  0
   22.6644   13.9354   30.2669 H   0  0  0  0  0  0  0  0  0  0  0  0
   23.9028   12.8461   28.8662 C   0  0  0  0  0  0  0  0  0  0  0  0
   24.4770   12.3395   29.6456 H   0  0  0  0  0  0  0  0  0  0  0  0
   23.7699   12.1412   28.0411 H   0  0  0  0  0  0  0  0  0  0  0  0
   24.6983   14.0626   28.3662 C   0  0  0  0  0  0  0  0  0  0  0  0
   25.7260   13.7536   28.1583 H   0  0  0  0  0  0  0  0  0  0  0  0
   24.7399   14.8259   29.1462 H   0  0  0  0  0  0  0  0  0  0  0  0
   24.1079   14.6685   27.0911 C   0  0  0  0  0  0  0  0  0  0  0  0
   24.0199   13.9108   26.3097 H   0  0  0  0  0  0  0  0  0  0  0  0
   24.7542   15.4675   26.7176 H   0  0  0  0  0  0  0  0  0  0  0  0
   23.1190   15.0905   27.2810 H   0  0  0  0  0  0  0  0  0  0  0  0
   20.2771   10.4712   32.4648 C   0  0  0  0  0  0  0  0  0  0  0  0
   19.9497   11.7974   32.8795 C   0  0  0  0  0  0  0  0  0  0  0  0
   19.7081   12.8925   33.1927 N   0  0  0  0  0  0  0  0  0  0  0  0
   19.5285    9.3780   32.8406 C   0  0  0  0  0  0  0  0  0  0  0  0
   18.4593    9.4970   33.6558 N   0  0  0  0  0  0  0  0  0  0  0  0
   18.1499   10.4180   33.9441 H   0  0  0  0  0  0  0  0  0  0  0  0
   17.9229    8.6678   33.8944 H   0  0  0  0  0  0  0  0  0  0  0  0
   19.8550    8.1150   32.4564 C   0  0  0  0  0  0  0  0  0  0  0  0
   19.2482    7.2742   32.7574 H   0  0  0  0  0  0  0  0  0  0  0  0
   24.0828    5.0884   30.5683 C   0  0  0  0  0  0  0  0  0  0  0  0
   23.8612    6.1779   29.7531 O   0  0  0  0  0  0  0  0  0  0  0  0
   24.9318    7.1181   29.5870 C   0  0  0  0  0  0  0  0  0  0  0  0
   25.2643    7.5027   30.5551 H   0  0  0  0  0  0  0  0  0  0  0  0
   24.5831    7.9623   28.9863 H   0  0  0  0  0  0  0  0  0  0  0  0
   25.7808    6.6606   29.0716 H   0  0  0  0  0  0  0  0  0  0  0  0
  1  2  1  0
  2  3  2  0
  3  4  1  0
  3  5  1  0
  5  6  1  0
  6  7  1  0
  7  8  1  0
  7  9  1  0
  7 10  1  0
  5 11  2  0
 11 12  1  0
 11 13  1  0
 13 14  1  0
 14 15  1  0
 14 16  1  0
 14 17  1  0
 17 18  2  0
 17 19  1  0
 19 20  1  0
 19 21  1  0
 21 22  2  0
 22 23  1  0
 23 24  1  0
 24 25  1  0
 24 26  1  0
 24 27  1  0
 27 28  1  0
 27 29  1  0
 27 30  1  0
 30 31  1  0
 30 32  1  0
 30 33  1  0
 33 34  1  0
 33 35  1  0
 33 36  1  0
 36 37  1  0
 36 38  1  0
 36 39  1  0
 39 40  1  0
 39 41  1  0
 39 42  1  0
 23 43  2  0
 43 44  1  0
 44 45  3  0
 43 46  1  0
 46 47  1  0
 47 48  1  0
 47 49  1  0
 46 50  2  0
 50 51  1  0
 13 52  2  0
 52 53  1  0
 53 54  1  0
 54 55  1  0
 54 56  1  0
 54 57  1  0
 52  2  1  0
 50 21  1  0
M  END
>  <score>  (378) 
7.73472

$$$$

     RDKit          3D

 52 55  0  0  0  0  0  0  0  0999 V2000
   26.1418    5.4452   30.8450 H   0  0  0  0  0  0  0  0  0  0  0  0
   25.3018    4.8086   31.0978 C   0  0  0  0  0  0  0  0  0  0  0  0
   25.5030    3.7137   31.9419 C   0  0  0  0  0  0  0  0  0  0  0  0
   27.2586    3.3784   32.6323 Br  0  0  0  0  0  0  0  0  0  0  0  0
   24.4301    2.8660   32.2626 C   0  0  0  0  0  0  0  0  0  0  0  0
   24.6625    1.7942   33.0950 O   0  0  0  0  0  0  0  0  0  0  0  0
   23.6683    0.7592   33.1178 C   0  0  0  0  0  0  0  0  0  0  0  0
   24.0259   -0.0822   33.7231 H   0  0  0  0  0  0  0  0  0  0  0  0
   23.4701    0.3956   32.1037 H   0  0  0  0  0  0  0  0  0  0  0  0
   22.7337    1.1293   33.5520 H   0  0  0  0  0  0  0  0  0  0  0  0
   23.1605    3.1455   31.7250 C   0  0  0  0  0  0  0  0  0  0  0  0
   22.3308    2.4900   31.9726 H   0  0  0  0  0  0  0  0  0  0  0  0
   22.9575    4.2482   30.8796 C   0  0  0  0  0  0  0  0  0  0  0  0
   21.5790    4.5270   30.3240 C   0  0  0  0  0  0  0  0  0  0  0  0
   20.9495    3.6398   30.3782 H   0  0  0  0  0  0  0  0  0  0  0  0
   21.6645    4.8199   29.2726 H   0  0  0  0  0  0  0  0  0  0  0  0
   20.9074    5.6504   31.0931 C   0  0  0  0  0  0  0  0  0  0  0  0
   19.8507    5.4783   31.6825 O   0  0  0  0  0  0  0  0  0  0  0  0
   21.4614    6.8873   31.0283 N   0  0  0  0  0  0  0  0  0  0  0  0
   22.3390    7.0145   30.5453 H   0  0  0  0  0  0  0  0  0  0  0  0
   20.9584    8.0047   31.5805 C   0  0  0  0  0  0  0  0  0  0  0  0
   21.7270    9.0101   31.2565 N   0  0  0  0  0  0  0  0  0  0  0  0
   21.3941   10.2310   31.6732 C   0  0  0  0  0  0  0  0  0  0  0  0
   22.2787   11.3092   31.2181 C   0  0  0  0  0  0  0  0  0  0  0  0
   23.6730   11.2255   31.4400 C   0  0  0  0  0  0  0  0  0  0  0  0
   24.0849   10.4039   32.0292 H   0  0  0  0  0  0  0  0  0  0  0  0
   24.5200   12.2331   30.9660 C   0  0  0  0  0  0  0  0  0  0  0  0
   25.5766   12.2060   31.1962 H   0  0  0  0  0  0  0  0  0  0  0  0
   23.9853   13.2407   30.1666 C   0  0  0  0  0  0  0  0  0  0  0  0
   22.6295   13.3191   29.9423 C   0  0  0  0  0  0  0  0  0  0  0  0
   22.4526   14.4458   29.0567 C   0  0  0  0  0  0  0  0  0  0  0  0
   21.4941   14.7860   28.6822 H   0  0  0  0  0  0  0  0  0  0  0  0
   23.6056   14.9978   28.7501 N   0  0  0  0  0  0  0  0  0  0  0  0
   24.5398   14.2876   29.4548 N   0  0  0  0  0  0  0  0  0  0  0  0
   25.5369   14.5077   29.4766 H   0  0  0  0  0  0  0  0  0  0  0  0
   21.7475   12.4040   30.5169 C   0  0  0  0  0  0  0  0  0  0  0  0
   20.6720   12.4957   30.3783 H   0  0  0  0  0  0  0  0  0  0  0  0
   20.2717   10.4495   32.4705 C   0  0  0  0  0  0  0  0  0  0  0  0
   19.9271   11.7631   32.9048 C   0  0  0  0  0  0  0  0  0  0  0  0
   19.6781   12.8547   33.2204 N   0  0  0  0  0  0  0  0  0  0  0  0
   19.5313    9.3539   32.8439 C   0  0  0  0  0  0  0  0  0  0  0  0
   18.4904    9.4741   33.7016 N   0  0  0  0  0  0  0  0  0  0  0  0
   18.1449   10.4082   33.9127 H   0  0  0  0  0  0  0  0  0  0  0  0
   17.9198    8.6528   33.8893 H   0  0  0  0  0  0  0  0  0  0  0  0
   19.8497    8.1121   32.3794 C   0  0  0  0  0  0  0  0  0  0  0  0
   19.2707    7.2530   32.6621 H   0  0  0  0  0  0  0  0  0  0  0  0
   24.0373    5.0989   30.5661 C   0  0  0  0  0  0  0  0  0  0  0  0
   23.8270    6.1908   29.7508 O   0  0  0  0  0  0  0  0  0  0  0  0
   24.9284    7.1001   29.5969 C   0  0  0  0  0  0  0  0  0  0  0  0
   25.2623    7.4614   30.5755 H   0  0  0  0  0  0  0  0  0  0  0  0
   25.7714    6.6086   29.0987 H   0  0  0  0  0  0  0  0  0  0  0  0
   24.6188    7.9603   28.9936 H   0  0  0  0  0  0  0  0  0  0  0  0
  1  2  1  0
  2  3  2  0
  3  4  1  0
  3  5  1  0
  5  6  1  0
  6  7  1  0
  7  8  1  0
  7  9  1  0
  7 10  1  0
  5 11  2  0
 11 12  1  0
 11 13  1  0
 13 14  1  0
 14 15  1  0
 14 16  1  0
 14 17  1  0
 17 18  2  0
 17 19  1  0
 19 20  1  0
 19 21  1  0
 21 22  2  0
 22 23  1  0
 23 24  1  0
 24 25  2  0
 25 26  1  0
 25 27  1  0
 27 28  1  0
 27 29  2  0
 29 30  1  0
 30 31  1  0
 31 32  1  0
 31 33  2  0
 33 34  1  0
 34 35  1  0
 30 36  2  0
 36 37  1  0
 23 38  2  0
 38 39  1  0
 39 40  3  0
 38 41  1  0
 41 42  1  0
 42 43  1  0
 42 44  1  0
 41 45  2  0
 45 46  1  0
 13 47  2  0
 47 48  1  0
 48 49  1  0
 49 50  1  0
 49 51  1  0
 49 52  1  0
 47  2  1  0
 45 21  1  0
 36 24  1  0
 34 29  1  0
M  END
>  <score>  (379) 
7.73473

$$$$

     RDKit          3D

 58 60  0  0  0  0  0  0  0  0999 V2000
   25.1632   13.3223   27.2049 H   0  0  0  0  0  0  0  0  0  0  0  0
   24.9735   12.4294   26.8772 O   0  0  0  0  0  0  0  0  0  0  0  0
   25.0221   11.4923   27.9546 C   0  0  0  0  0  0  0  0  0  0  0  0
   26.0544   11.4153   28.3163 H   0  0  0  0  0  0  0  0  0  0  0  0
   24.7212   10.4981   27.6058 H   0  0  0  0  0  0  0  0  0  0  0  0
   24.1337   11.9143   29.1359 C   0  0  0  0  0  0  0  0  0  0  0  0
   24.3835   12.9397   29.4413 H   0  0  0  0  0  0  0  0  0  0  0  0
   22.6099   11.8335   28.8585 C   0  0  0  0  0  0  0  0  0  0  0  0
   22.3245   12.5350   28.0672 H   0  0  0  0  0  0  0  0  0  0  0  0
   22.3549   10.8203   28.5250 H   0  0  0  0  0  0  0  0  0  0  0  0
   21.7860   12.1588   30.1211 C   0  0  0  0  0  0  0  0  0  0  0  0
   21.9398   13.2040   30.4191 H   0  0  0  0  0  0  0  0  0  0  0  0
   20.7178   12.0243   29.9083 H   0  0  0  0  0  0  0  0  0  0  0  0
   22.2007   11.2913   31.2296 N   0  0  0  0  0  0  0  0  0  0  0  0
   21.3762   10.2509   31.6040 C   0  0  0  0  0  0  0  0  0  0  0  0
   21.7405    9.0592   31.1675 N   0  0  0  0  0  0  0  0  0  0  0  0
   20.9944    8.0538   31.5316 C   0  0  0  0  0  0  0  0  0  0  0  0
   21.5035    6.9293   31.0128 N   0  0  0  0  0  0  0  0  0  0  0  0
   22.3678    7.0542   30.5036 H   0  0  0  0  0  0  0  0  0  0  0  0
   20.9408    5.6964   31.0945 C   0  0  0  0  0  0  0  0  0  0  0  0
   19.8805    5.5439   31.6824 O   0  0  0  0  0  0  0  0  0  0  0  0
   21.5823    4.5513   30.3333 C   0  0  0  0  0  0  0  0  0  0  0  0
   20.9355    3.6784   30.4075 H   0  0  0  0  0  0  0  0  0  0  0  0
   21.6638    4.8260   29.2771 H   0  0  0  0  0  0  0  0  0  0  0  0
   22.9591    4.2583   30.8803 C   0  0  0  0  0  0  0  0  0  0  0  0
   23.1573    3.1539   31.7242 C   0  0  0  0  0  0  0  0  0  0  0  0
   22.3234    2.5033   31.9711 H   0  0  0  0  0  0  0  0  0  0  0  0
   24.4269    2.8692   32.2605 C   0  0  0  0  0  0  0  0  0  0  0  0
   24.6604    1.7951   33.0898 O   0  0  0  0  0  0  0  0  0  0  0  0
   23.6655    0.7623   33.1143 C   0  0  0  0  0  0  0  0  0  0  0  0
   23.4652    0.3972   32.1024 H   0  0  0  0  0  0  0  0  0  0  0  0
   22.7326    1.1335   33.5479 H   0  0  0  0  0  0  0  0  0  0  0  0
   24.0228   -0.0776   33.7197 H   0  0  0  0  0  0  0  0  0  0  0  0
   25.5014    3.7177   31.9431 C   0  0  0  0  0  0  0  0  0  0  0  0
   27.2584    3.3822   32.6325 Br  0  0  0  0  0  0  0  0  0  0  0  0
   25.3040    4.8133   31.0985 C   0  0  0  0  0  0  0  0  0  0  0  0
   26.1476    5.4464   30.8464 H   0  0  0  0  0  0  0  0  0  0  0  0
   24.0405    5.1062   30.5670 C   0  0  0  0  0  0  0  0  0  0  0  0
   23.8294    6.1987   29.7537 O   0  0  0  0  0  0  0  0  0  0  0  0
   24.9310    7.1037   29.5959 C   0  0  0  0  0  0  0  0  0  0  0  0
   25.2503    7.4833   30.5705 H   0  0  0  0  0  0  0  0  0  0  0  0
   25.7800    6.6016   29.1219 H   0  0  0  0  0  0  0  0  0  0  0  0
   24.6287    7.9502   28.9715 H   0  0  0  0  0  0  0  0  0  0  0  0
   19.8926    8.1466   32.3490 C   0  0  0  0  0  0  0  0  0  0  0  0
   19.3297    7.2788   32.6440 H   0  0  0  0  0  0  0  0  0  0  0  0
   19.5671    9.3814   32.8178 C   0  0  0  0  0  0  0  0  0  0  0  0
   18.5467    9.4873   33.7037 N   0  0  0  0  0  0  0  0  0  0  0  0
   18.1600   10.4089   33.8933 H   0  0  0  0  0  0  0  0  0  0  0  0
   17.9683    8.6656   33.8501 H   0  0  0  0  0  0  0  0  0  0  0  0
   20.2847   10.4709   32.4212 C   0  0  0  0  0  0  0  0  0  0  0  0
   19.9618   11.7815   32.8702 C   0  0  0  0  0  0  0  0  0  0  0  0
   19.7188   12.8648   33.2136 N   0  0  0  0  0  0  0  0  0  0  0  0
   23.6420   11.2039   31.5095 C   0  0  0  0  0  0  0  0  0  0  0  0
   23.8407   10.4125   32.2401 H   0  0  0  0  0  0  0  0  0  0  0  0
   23.9609   12.1584   31.9383 H   0  0  0  0  0  0  0  0  0  0  0  0
   24.4735   10.9353   30.2678 C   0  0  0  0  0  0  0  0  0  0  0  0
   25.5330   11.0194   30.5245 H   0  0  0  0  0  0  0  0  0  0  0  0
   24.2926    9.9088   29.9352 H   0  0  0  0  0  0  0  0  0  0  0  0
  1  2  1  0
  2  3  1  0
  3  4  1  0
  3  5  1  0
  3  6  1  0
  6  7  1  0
  6  8  1  0
  8  9  1  0
  8 10  1  0
  8 11  1  0
 11 12  1  0
 11 13  1  0
 11 14  1  0
 14 15  1  0
 15 16  2  0
 16 17  1  0
 17 18  1  0
 18 19  1  0
 18 20  1  0
 20 21  2  0
 20 22  1  0
 22 23  1  0
 22 24  1  0
 22 25  1  0
 25 26  2  0
 26 27  1  0
 26 28  1  0
 28 29  1  0
 29 30  1  0
 30 31  1  0
 30 32  1  0
 30 33  1  0
 28 34  2  0
 34 35  1  0
 34 36  1  0
 36 37  1  0
 36 38  2  0
 38 39  1  0
 39 40  1  0
 40 41  1  0
 40 42  1  0
 40 43  1  0
 17 44  2  0
 44 45  1  0
 44 46  1  0
 46 47  1  0
 47 48  1  0
 47 49  1  0
 46 50  2  0
 50 51  1  0
 51 52  3  0
 14 53  1  0
 53 54  1  0
 53 55  1  0
 53 56  1  0
 56 57  1  0
 56 58  1  0
 56  6  1  0
 50 15  1  0
 38 25  1  0
M  END
>  <score>  (380) 
7.73499

$$$$

     RDKit          3D

 52 54  0  0  0  0  0  0  0  0999 V2000
   21.9152   14.4078   29.5052 H   0  0  0  0  0  0  0  0  0  0  0  0
   22.3815   13.5524   29.9821 C   0  0  0  0  0  0  0  0  0  0  0  0
   23.7659   13.5129   30.1632 C   0  0  0  0  0  0  0  0  0  0  0  0
   24.3800   14.3543   29.8674 H   0  0  0  0  0  0  0  0  0  0  0  0
   24.3655   12.3746   30.7038 C   0  0  0  0  0  0  0  0  0  0  0  0
   25.4403   12.3339   30.8262 H   0  0  0  0  0  0  0  0  0  0  0  0
   23.5858   11.2864   31.1033 C   0  0  0  0  0  0  0  0  0  0  0  0
   24.2417   10.0544   31.6647 C   0  0  0  0  0  0  0  0  0  0  0  0
   24.3131    9.2704   30.9082 H   0  0  0  0  0  0  0  0  0  0  0  0
   25.2497   10.2785   32.0238 H   0  0  0  0  0  0  0  0  0  0  0  0
   23.6433    9.6700   32.4959 H   0  0  0  0  0  0  0  0  0  0  0  0
   22.1857   11.3421   30.9831 C   0  0  0  0  0  0  0  0  0  0  0  0
   21.3664   10.2306   31.4948 C   0  0  0  0  0  0  0  0  0  0  0  0
   21.7860    8.9929   31.2208 N   0  0  0  0  0  0  0  0  0  0  0  0
   21.1127    7.9793   31.6975 C   0  0  0  0  0  0  0  0  0  0  0  0
   21.6576    6.8135   31.3151 N   0  0  0  0  0  0  0  0  0  0  0  0
   22.5088    6.9024   30.7748 H   0  0  0  0  0  0  0  0  0  0  0  0
   20.9119    5.6845   31.1590 C   0  0  0  0  0  0  0  0  0  0  0  0
   19.7420    5.6482   31.5225 O   0  0  0  0  0  0  0  0  0  0  0  0
   21.5276    4.5185   30.4048 C   0  0  0  0  0  0  0  0  0  0  0  0
   21.5523    4.7705   29.3417 H   0  0  0  0  0  0  0  0  0  0  0  0
   20.8967    3.6350   30.5276 H   0  0  0  0  0  0  0  0  0  0  0  0
   22.9377    4.2464   30.9014 C   0  0  0  0  0  0  0  0  0  0  0  0
   23.1736    3.1384   31.7226 C   0  0  0  0  0  0  0  0  0  0  0  0
   22.3528    2.4734   31.9673 H   0  0  0  0  0  0  0  0  0  0  0  0
   24.4492    2.8635   32.2486 C   0  0  0  0  0  0  0  0  0  0  0  0
   24.6831    1.7721   33.0526 O   0  0  0  0  0  0  0  0  0  0  0  0
   23.6371    0.7911   33.0821 C   0  0  0  0  0  0  0  0  0  0  0  0
   23.9408   -0.0620   33.6950 H   0  0  0  0  0  0  0  0  0  0  0  0
   23.4222    0.4339   32.0682 H   0  0  0  0  0  0  0  0  0  0  0  0
   22.7256    1.2217   33.5099 H   0  0  0  0  0  0  0  0  0  0  0  0
   25.5060    3.7359   31.9473 C   0  0  0  0  0  0  0  0  0  0  0  0
   27.2618    3.4729   32.6654 Br  0  0  0  0  0  0  0  0  0  0  0  0
   25.2807    4.8322   31.1179 C   0  0  0  0  0  0  0  0  0  0  0  0
   26.1093    5.4911   30.8838 H   0  0  0  0  0  0  0  0  0  0  0  0
   24.0090    5.1109   30.5949 C   0  0  0  0  0  0  0  0  0  0  0  0
   23.7932    6.2238   29.8149 O   0  0  0  0  0  0  0  0  0  0  0  0
   24.9339    7.0762   29.6314 C   0  0  0  0  0  0  0  0  0  0  0  0
   24.6680    7.9459   29.0255 H   0  0  0  0  0  0  0  0  0  0  0  0
   25.7359    6.5288   29.1247 H   0  0  0  0  0  0  0  0  0  0  0  0
   25.3031    7.4264   30.6018 H   0  0  0  0  0  0  0  0  0  0  0  0
   19.9858    8.0954   32.4552 C   0  0  0  0  0  0  0  0  0  0  0  0
   19.4851    7.2259   32.8427 H   0  0  0  0  0  0  0  0  0  0  0  0
   19.5496    9.3500   32.7285 C   0  0  0  0  0  0  0  0  0  0  0  0
   18.4205    9.4800   33.4538 N   0  0  0  0  0  0  0  0  0  0  0  0
   18.1945   10.4089   33.7952 H   0  0  0  0  0  0  0  0  0  0  0  0
   18.0116    8.6492   33.8806 H   0  0  0  0  0  0  0  0  0  0  0  0
   20.2473   10.4501   32.2914 C   0  0  0  0  0  0  0  0  0  0  0  0
   19.8908   11.7678   32.7079 C   0  0  0  0  0  0  0  0  0  0  0  0
   19.6400   12.8362   33.0890 N   0  0  0  0  0  0  0  0  0  0  0  0
   21.5975   12.4680   30.3800 C   0  0  0  0  0  0  0  0  0  0  0  0
   20.5284   12.4928   30.1920 H   0  0  0  0  0  0  0  0  0  0  0  0
  1  2  1  0
  2  3  2  0
  3  4  1  0
  3  5  1  0
  5  6  1  0
  5  7  2  0
  7  8  1  0
  8  9  1  0
  8 10  1  0
  8 11  1  0
  7 12  1  0
 12 13  1  0
 13 14  2  0
 14 15  1  0
 15 16  1  0
 16 17  1  0
 16 18  1  0
 18 19  2  0
 18 20  1  0
 20 21  1  0
 20 22  1  0
 20 23  1  0
 23 24  2  0
 24 25  1  0
 24 26  1  0
 26 27  1  0
 27 28  1  0
 28 29  1  0
 28 30  1  0
 28 31  1  0
 26 32  2  0
 32 33  1  0
 32 34  1  0
 34 35  1  0
 34 36  2  0
 36 37  1  0
 37 38  1  0
 38 39  1  0
 38 40  1  0
 38 41  1  0
 15 42  2  0
 42 43  1  0
 42 44  1  0
 44 45  1  0
 45 46  1  0
 45 47  1  0
 44 48  2  0
 48 49  1  0
 49 50  3  0
 12 51  2  0
 51 52  1  0
 51  2  1  0
 48 13  1  0
 36 23  1  0
M  END
>  <score>  (381) 
7.73821

$$$$

     RDKit          3D

 51 53  0  0  0  0  0  0  0  0999 V2000
   26.0613    5.5410   30.9153 H   0  0  0  0  0  0  0  0  0  0  0  0
   25.2380    4.8750   31.1500 C   0  0  0  0  0  0  0  0  0  0  0  0
   25.4607    3.7576   31.9580 C   0  0  0  0  0  0  0  0  0  0  0  0
   27.2198    3.4526   32.6480 Br  0  0  0  0  0  0  0  0  0  0  0  0
   24.4043    2.8826   32.2502 C   0  0  0  0  0  0  0  0  0  0  0  0
   24.6436    1.7760   33.0299 O   0  0  0  0  0  0  0  0  0  0  0  0
   23.5934    0.7996   33.0634 C   0  0  0  0  0  0  0  0  0  0  0  0
   23.3722    0.4383   32.0531 H   0  0  0  0  0  0  0  0  0  0  0  0
   23.8966   -0.0515   33.6790 H   0  0  0  0  0  0  0  0  0  0  0  0
   22.6831    1.2324   33.4896 H   0  0  0  0  0  0  0  0  0  0  0  0
   23.1313    3.1708   31.7393 C   0  0  0  0  0  0  0  0  0  0  0  0
   22.3078    2.5083   31.9877 H   0  0  0  0  0  0  0  0  0  0  0  0
   22.9045    4.2902   30.9346 C   0  0  0  0  0  0  0  0  0  0  0  0
   21.4939    4.5468   30.4731 C   0  0  0  0  0  0  0  0  0  0  0  0
   20.8865    3.6479   30.5995 H   0  0  0  0  0  0  0  0  0  0  0  0
   21.4859    4.8129   29.4155 H   0  0  0  0  0  0  0  0  0  0  0  0
   20.8787    5.6764   31.2793 C   0  0  0  0  0  0  0  0  0  0  0  0
   19.7214    5.6135   31.6528 O   0  0  0  0  0  0  0  0  0  0  0  0
   21.6100    6.8140   31.4674 N   0  0  0  0  0  0  0  0  0  0  0  0
   22.4821    6.8962   30.9646 H   0  0  0  0  0  0  0  0  0  0  0  0
   21.0787    7.9876   31.8543 C   0  0  0  0  0  0  0  0  0  0  0  0
   21.8391    8.9869   31.4711 N   0  0  0  0  0  0  0  0  0  0  0  0
   21.4397   10.2425   31.7023 C   0  0  0  0  0  0  0  0  0  0  0  0
   22.3159   11.3095   31.1687 C   0  0  0  0  0  0  0  0  0  0  0  0
   21.7908   12.4101   30.4633 C   0  0  0  0  0  0  0  0  0  0  0  0
   20.7157   12.5156   30.3353 H   0  0  0  0  0  0  0  0  0  0  0  0
   22.6419   13.3438   29.8578 C   0  0  0  0  0  0  0  0  0  0  0  0
   22.2061   14.1626   29.2908 H   0  0  0  0  0  0  0  0  0  0  0  0
   24.0416   13.2081   29.9331 C   0  0  0  0  0  0  0  0  0  0  0  0
   24.9171   14.1084   29.2883 N   0  0  0  0  0  4  0  0  0  0  0  0
   26.1339   13.9559   29.4574 O   0  0  0  0  0  0  0  0  0  0  0  0
   24.4242   14.9990   28.5852 O   0  0  0  0  0  1  0  0  0  0  0  0
   24.5510   12.1189   30.6593 C   0  0  0  0  0  0  0  0  0  0  0  0
   25.6225   11.9888   30.7282 H   0  0  0  0  0  0  0  0  0  0  0  0
   23.7134   11.1792   31.2554 C   0  0  0  0  0  0  0  0  0  0  0  0
   24.1561   10.3291   31.7732 H   0  0  0  0  0  0  0  0  0  0  0  0
   20.2473   10.5052   32.3713 C   0  0  0  0  0  0  0  0  0  0  0  0
   19.8297   11.8390   32.6521 C   0  0  0  0  0  0  0  0  0  0  0  0
   19.5001   12.9267   32.8988 N   0  0  0  0  0  0  0  0  0  0  0  0
   19.5005    9.4241   32.7803 C   0  0  0  0  0  0  0  0  0  0  0  0
   18.3389    9.5547   33.4560 N   0  0  0  0  0  0  0  0  0  0  0  0
   18.0278    8.7256   33.9507 H   0  0  0  0  0  0  0  0  0  0  0  0
   18.1241   10.4709   33.8384 H   0  0  0  0  0  0  0  0  0  0  0  0
   19.8942    8.1517   32.5168 C   0  0  0  0  0  0  0  0  0  0  0  0
   19.2778    7.3220   32.8229 H   0  0  0  0  0  0  0  0  0  0  0  0
   23.9684    5.1678   30.6320 C   0  0  0  0  0  0  0  0  0  0  0  0
   23.7520    6.2999   29.8741 O   0  0  0  0  0  0  0  0  0  0  0  0
   24.9157    7.1093   29.6262 C   0  0  0  0  0  0  0  0  0  0  0  0
   25.6885    6.5199   29.1211 H   0  0  0  0  0  0  0  0  0  0  0  0
   24.6639    7.9635   28.9919 H   0  0  0  0  0  0  0  0  0  0  0  0
   25.3271    7.4854   30.5692 H   0  0  0  0  0  0  0  0  0  0  0  0
  1  2  1  0
  2  3  2  0
  3  4  1  0
  3  5  1  0
  5  6  1  0
  6  7  1  0
  7  8  1  0
  7  9  1  0
  7 10  1  0
  5 11  2  0
 11 12  1  0
 11 13  1  0
 13 14  1  0
 14 15  1  0
 14 16  1  0
 14 17  1  0
 17 18  2  0
 17 19  1  0
 19 20  1  0
 19 21  1  0
 21 22  2  0
 22 23  1  0
 23 24  1  0
 24 25  2  0
 25 26  1  0
 25 27  1  0
 27 28  1  0
 27 29  2  0
 29 30  1  0
 30 31  2  0
 30 32  1  0
 29 33  1  0
 33 34  1  0
 33 35  2  0
 35 36  1  0
 23 37  2  0
 37 38  1  0
 38 39  3  0
 37 40  1  0
 40 41  1  0
 41 42  1  0
 41 43  1  0
 40 44  2  0
 44 45  1  0
 13 46  2  0
 46 47  1  0
 47 48  1  0
 48 49  1  0
 48 50  1  0
 48 51  1  0
 46  2  1  0
 44 21  1  0
 35 24  1  0
M  CHG  2  30   1  32  -1
M  END
>  <score>  (382) 
7.73949

$$$$

     RDKit          3D

 49 51  0  0  0  0  0  0  0  0999 V2000
   21.6083   14.3143   29.5264 H   0  0  0  0  0  0  0  0  0  0  0  0
   22.1436   13.5168   30.0288 C   0  0  0  0  0  0  0  0  0  0  0  0
   23.5289   13.5935   30.1901 C   0  0  0  0  0  0  0  0  0  0  0  0
   24.0834   14.4530   29.8324 H   0  0  0  0  0  0  0  0  0  0  0  0
   24.2163   12.5507   30.8071 C   0  0  0  0  0  0  0  0  0  0  0  0
   25.5555   12.6146   30.9604 F   0  0  0  0  0  0  0  0  0  0  0  0
   23.5163   11.4270   31.2511 C   0  0  0  0  0  0  0  0  0  0  0  0
   24.0932   10.6276   31.7052 H   0  0  0  0  0  0  0  0  0  0  0  0
   22.1134   11.3409   31.1185 C   0  0  0  0  0  0  0  0  0  0  0  0
   21.3457   10.1873   31.6243 C   0  0  0  0  0  0  0  0  0  0  0  0
   21.7869    8.9690   31.3021 N   0  0  0  0  0  0  0  0  0  0  0  0
   21.1257    7.9292   31.7436 C   0  0  0  0  0  0  0  0  0  0  0  0
   21.6637    6.7885   31.2946 N   0  0  0  0  0  0  0  0  0  0  0  0
   22.5261    6.9011   30.7797 H   0  0  0  0  0  0  0  0  0  0  0  0
   20.9423    5.6397   31.1282 C   0  0  0  0  0  0  0  0  0  0  0  0
   19.8008    5.5448   31.5449 O   0  0  0  0  0  0  0  0  0  0  0  0
   21.5435    4.4694   30.3735 C   0  0  0  0  0  0  0  0  0  0  0  0
   20.9161    3.5823   30.5278 H   0  0  0  0  0  0  0  0  0  0  0  0
   21.5568    4.6931   29.3044 H   0  0  0  0  0  0  0  0  0  0  0  0
   22.9457    4.2244   30.8760 C   0  0  0  0  0  0  0  0  0  0  0  0
   23.1726    3.1204   31.7029 C   0  0  0  0  0  0  0  0  0  0  0  0
   22.3558    2.4466   31.9415 H   0  0  0  0  0  0  0  0  0  0  0  0
   24.4419    2.8537   32.2429 C   0  0  0  0  0  0  0  0  0  0  0  0
   24.6770    1.7652   33.0482 O   0  0  0  0  0  0  0  0  0  0  0  0
   23.6259    0.7912   33.0792 C   0  0  0  0  0  0  0  0  0  0  0  0
   22.7144    1.2227   33.5034 H   0  0  0  0  0  0  0  0  0  0  0  0
   23.4065    0.4331   32.0683 H   0  0  0  0  0  0  0  0  0  0  0  0
   23.9258   -0.0605   33.6924 H   0  0  0  0  0  0  0  0  0  0  0  0
   25.4958    3.7333   31.9556 C   0  0  0  0  0  0  0  0  0  0  0  0
   27.2455    3.4712   32.6888 Br  0  0  0  0  0  0  0  0  0  0  0  0
   25.2731    4.8385   31.1323 C   0  0  0  0  0  0  0  0  0  0  0  0
   26.0943    5.5102   30.9049 H   0  0  0  0  0  0  0  0  0  0  0  0
   24.0075    5.1085   30.5885 C   0  0  0  0  0  0  0  0  0  0  0  0
   23.7868    6.2232   29.8089 O   0  0  0  0  0  0  0  0  0  0  0  0
   24.9266    7.0779   29.6219 C   0  0  0  0  0  0  0  0  0  0  0  0
   25.2931    7.4395   30.5881 H   0  0  0  0  0  0  0  0  0  0  0  0
   24.6616    7.9403   29.0064 H   0  0  0  0  0  0  0  0  0  0  0  0
   25.7362    6.5335   29.1252 H   0  0  0  0  0  0  0  0  0  0  0  0
   20.0390    8.0017   32.5605 C   0  0  0  0  0  0  0  0  0  0  0  0
   19.5645    7.1103   32.9312 H   0  0  0  0  0  0  0  0  0  0  0  0
   19.5860    9.2420   32.8811 C   0  0  0  0  0  0  0  0  0  0  0  0
   18.4824    9.3204   33.6491 N   0  0  0  0  0  0  0  0  0  0  0  0
   17.7907    9.9818   33.2970 H   0  0  0  0  0  0  0  0  0  0  0  0
   18.1370    8.4262   33.9894 H   0  0  0  0  0  0  0  0  0  0  0  0
   20.2136   10.3704   32.4133 C   0  0  0  0  0  0  0  0  0  0  0  0
   19.7821   11.6749   32.7988 C   0  0  0  0  0  0  0  0  0  0  0  0
   19.4565   12.7502   33.1090 N   0  0  0  0  0  0  0  0  0  0  0  0
   21.4415   12.4025   30.4924 C   0  0  0  0  0  0  0  0  0  0  0  0
   20.3695   12.3457   30.3250 H   0  0  0  0  0  0  0  0  0  0  0  0
  1  2  1  0
  2  3  2  0
  3  4  1  0
  3  5  1  0
  5  6  1  0
  5  7  2  0
  7  8  1  0
  7  9  1  0
  9 10  1  0
 10 11  2  0
 11 12  1  0
 12 13  1  0
 13 14  1  0
 13 15  1  0
 15 16  2  0
 15 17  1  0
 17 18  1  0
 17 19  1  0
 17 20  1  0
 20 21  2  0
 21 22  1  0
 21 23  1  0
 23 24  1  0
 24 25  1  0
 25 26  1  0
 25 27  1  0
 25 28  1  0
 23 29  2  0
 29 30  1  0
 29 31  1  0
 31 32  1  0
 31 33  2  0
 33 34  1  0
 34 35  1  0
 35 36  1  0
 35 37  1  0
 35 38  1  0
 12 39  2  0
 39 40  1  0
 39 41  1  0
 41 42  1  0
 42 43  1  0
 42 44  1  0
 41 45  2  0
 45 46  1  0
 46 47  3  0
  9 48  2  0
 48 49  1  0
 48  2  1  0
 45 10  1  0
 33 20  1  0
M  END
>  <score>  (383) 
7.73999

$$$$

     RDKit          3D

 48 50  0  0  0  0  0  0  0  0999 V2000
   26.5528   11.3403   29.2048 H   0  0  0  0  0  0  0  0  0  0  0  0
   25.6196   11.2064   29.7424 C   0  0  0  0  0  0  0  0  0  0  0  0
   24.3051   12.3770   29.7271 S   0  0  0  0  0  0  0  0  0  0  0  0
   23.3514   11.3165   30.7636 C   0  0  0  0  0  0  0  0  0  0  0  0
   21.9507   11.5423   31.1549 C   0  0  0  0  0  0  0  0  0  0  0  0
   21.5082   12.6961   31.0933 O   0  0  0  0  0  0  0  0  0  0  0  0
   21.1136   10.3521   31.6128 C   0  0  0  0  0  0  0  0  0  0  0  0
   21.4729    9.1114   31.1955 N   0  0  0  0  0  0  0  0  0  0  0  0
   20.8325    8.0349   31.6029 C   0  0  0  0  0  0  0  0  0  0  0  0
   21.4230    6.9162   31.1184 N   0  0  0  0  0  0  0  0  0  0  0  0
   22.2519    7.0871   30.5694 H   0  0  0  0  0  0  0  0  0  0  0  0
   20.8824    5.6621   31.1524 C   0  0  0  0  0  0  0  0  0  0  0  0
   19.8022    5.4879   31.6909 O   0  0  0  0  0  0  0  0  0  0  0  0
   21.5550    4.5350   30.3692 C   0  0  0  0  0  0  0  0  0  0  0  0
   21.6009    4.8226   29.3170 H   0  0  0  0  0  0  0  0  0  0  0  0
   20.9481    3.6290   30.4349 H   0  0  0  0  0  0  0  0  0  0  0  0
   22.9491    4.2591   30.8831 C   0  0  0  0  0  0  0  0  0  0  0  0
   23.1596    3.1494   31.7134 C   0  0  0  0  0  0  0  0  0  0  0  0
   22.3278    2.4961   31.9567 H   0  0  0  0  0  0  0  0  0  0  0  0
   24.4279    2.8683   32.2505 C   0  0  0  0  0  0  0  0  0  0  0  0
   24.6588    1.7919   33.0757 O   0  0  0  0  0  0  0  0  0  0  0  0
   23.6459    0.7769   33.0988 C   0  0  0  0  0  0  0  0  0  0  0  0
   22.7186    1.1664   33.5309 H   0  0  0  0  0  0  0  0  0  0  0  0
   23.4420    0.4120   32.0860 H   0  0  0  0  0  0  0  0  0  0  0  0
   23.9861   -0.0661   33.7076 H   0  0  0  0  0  0  0  0  0  0  0  0
   25.4955    3.7257   31.9422 C   0  0  0  0  0  0  0  0  0  0  0  0
   27.2488    3.4227   32.6506 Br  0  0  0  0  0  0  0  0  0  0  0  0
   25.2906    4.8244   31.1037 C   0  0  0  0  0  0  0  0  0  0  0  0
   26.1240    5.4764   30.8677 H   0  0  0  0  0  0  0  0  0  0  0  0
   24.0251    5.1114   30.5697 C   0  0  0  0  0  0  0  0  0  0  0  0
   23.8035    6.2151   29.7753 O   0  0  0  0  0  0  0  0  0  0  0  0
   24.9213    7.0992   29.6087 C   0  0  0  0  0  0  0  0  0  0  0  0
   25.2797    7.4473   30.5833 H   0  0  0  0  0  0  0  0  0  0  0  0
   24.6291    7.9702   29.0159 H   0  0  0  0  0  0  0  0  0  0  0  0
   25.7395    6.5855   29.0933 H   0  0  0  0  0  0  0  0  0  0  0  0
   19.7737    8.0819   32.4601 C   0  0  0  0  0  0  0  0  0  0  0  0
   19.2921    7.1870   32.8095 H   0  0  0  0  0  0  0  0  0  0  0  0
   19.3943    9.3071   32.9180 C   0  0  0  0  0  0  0  0  0  0  0  0
   18.3873    9.3269   33.8230 N   0  0  0  0  0  0  0  0  0  0  0  0
   17.8255    8.4799   33.8974 H   0  0  0  0  0  0  0  0  0  0  0  0
   17.9537   10.2333   33.9870 H   0  0  0  0  0  0  0  0  0  0  0  0
   20.0321   10.4632   32.5038 C   0  0  0  0  0  0  0  0  0  0  0  0
   19.6406   11.7260   33.0431 C   0  0  0  0  0  0  0  0  0  0  0  0
   19.3631   12.7562   33.5060 N   0  0  0  0  0  0  0  0  0  0  0  0
   24.0302   10.1696   31.1151 C   0  0  0  0  0  0  0  0  0  0  0  0
   23.6164    9.3799   31.7415 H   0  0  0  0  0  0  0  0  0  0  0  0
   25.3521   10.1130   30.5266 C   0  0  0  0  0  0  0  0  0  0  0  0
   26.0463    9.2921   30.6816 H   0  0  0  0  0  0  0  0  0  0  0  0
  1  2  1  0
  2  3  1  0
  3  4  1  0
  4  5  1  0
  5  6  2  0
  5  7  1  0
  7  8  2  0
  8  9  1  0
  9 10  1  0
 10 11  1  0
 10 12  1  0
 12 13  2  0
 12 14  1  0
 14 15  1  0
 14 16  1  0
 14 17  1  0
 17 18  2  0
 18 19  1  0
 18 20  1  0
 20 21  1  0
 21 22  1  0
 22 23  1  0
 22 24  1  0
 22 25  1  0
 20 26  2  0
 26 27  1  0
 26 28  1  0
 28 29  1  0
 28 30  2  0
 30 31  1  0
 31 32  1  0
 32 33  1  0
 32 34  1  0
 32 35  1  0
  9 36  2  0
 36 37  1  0
 36 38  1  0
 38 39  1  0
 39 40  1  0
 39 41  1  0
 38 42  2  0
 42 43  1  0
 43 44  3  0
  4 45  2  0
 45 46  1  0
 45 47  1  0
 47 48  1  0
 47  2  2  0
 42  7  1  0
 30 17  1  0
M  END
>  <score>  (384) 
7.74169

$$$$

     RDKit          3D

 54 56  0  0  0  0  0  0  0  0999 V2000
   26.1929    5.4094   30.8460 H   0  0  0  0  0  0  0  0  0  0  0  0
   25.3464    4.7790   31.1005 C   0  0  0  0  0  0  0  0  0  0  0  0
   25.5244    3.6732   31.9458 C   0  0  0  0  0  0  0  0  0  0  0  0
   27.2725    3.2971   32.6355 Br  0  0  0  0  0  0  0  0  0  0  0  0
   24.4388    2.8432   32.2732 C   0  0  0  0  0  0  0  0  0  0  0  0
   24.6624    1.7829   33.1241 O   0  0  0  0  0  0  0  0  0  0  0  0
   23.6911    0.7300   33.1437 C   0  0  0  0  0  0  0  0  0  0  0  0
   23.4993    0.3578   32.1330 H   0  0  0  0  0  0  0  0  0  0  0  0
   22.7515    1.0698   33.5875 H   0  0  0  0  0  0  0  0  0  0  0  0
   24.0749   -0.0978   33.7459 H   0  0  0  0  0  0  0  0  0  0  0  0
   23.1776    3.1445   31.7309 C   0  0  0  0  0  0  0  0  0  0  0  0
   22.3410    2.5004   31.9802 H   0  0  0  0  0  0  0  0  0  0  0  0
   22.9930    4.2505   30.8830 C   0  0  0  0  0  0  0  0  0  0  0  0
   21.6152    4.5440   30.3292 C   0  0  0  0  0  0  0  0  0  0  0  0
   21.7214    4.8818   29.2966 H   0  0  0  0  0  0  0  0  0  0  0  0
   21.0127    3.6304   30.3135 H   0  0  0  0  0  0  0  0  0  0  0  0
   20.9030    5.6404   31.1249 C   0  0  0  0  0  0  0  0  0  0  0  0
   19.7180    5.5451   31.3921 O   0  0  0  0  0  0  0  0  0  0  0  0
   21.5617    6.8079   31.3745 N   0  0  0  0  0  0  0  0  0  0  0  0
   22.4704    6.9342   30.9469 H   0  0  0  0  0  0  0  0  0  0  0  0
   20.9864    7.9708   31.7279 C   0  0  0  0  0  0  0  0  0  0  0  0
   21.7368    8.9813   31.3374 N   0  0  0  0  0  0  0  0  0  0  0  0
   21.3990   10.2325   31.6844 C   0  0  0  0  0  0  0  0  0  0  0  0
   22.2774   11.3997   31.2117 C   0  0  0  0  0  0  0  0  0  0  0  0
   22.2500   12.1644   31.9964 H   0  0  0  0  0  0  0  0  0  0  0  0
   23.7587   11.0066   30.9882 C   0  0  0  0  0  0  0  0  0  0  0  0
   23.7922   10.2573   30.1912 H   0  0  0  0  0  0  0  0  0  0  0  0
   24.1767   10.5495   31.8894 H   0  0  0  0  0  0  0  0  0  0  0  0
   24.6393   12.1972   30.5680 C   0  0  0  0  0  0  0  0  0  0  0  0
   25.1290   12.6273   31.4462 H   0  0  0  0  0  0  0  0  0  0  0  0
   25.4248   11.8350   29.8956 H   0  0  0  0  0  0  0  0  0  0  0  0
   23.8507   13.2454   29.8983 N   0  0  0  0  0  0  0  0  0  0  0  0
   23.4620   13.8908   30.5858 H   0  0  0  0  0  0  0  0  0  0  0  0
   22.7793   12.7311   29.0373 C   0  0  0  0  0  0  0  0  0  0  0  0
   23.1954   12.0198   28.3150 H   0  0  0  0  0  0  0  0  0  0  0  0
   22.3177   13.5453   28.4700 H   0  0  0  0  0  0  0  0  0  0  0  0
   21.7203   12.0315   29.9049 C   0  0  0  0  0  0  0  0  0  0  0  0
   21.2653   11.2545   29.2861 H   0  0  0  0  0  0  0  0  0  0  0  0
   20.9421   12.7544   30.1693 H   0  0  0  0  0  0  0  0  0  0  0  0
   20.2758   10.4674   32.4740 C   0  0  0  0  0  0  0  0  0  0  0  0
   19.9456   11.7944   32.8864 C   0  0  0  0  0  0  0  0  0  0  0  0
   19.7096   12.8954   33.1884 N   0  0  0  0  0  0  0  0  0  0  0  0
   19.5203    9.3752   32.8469 C   0  0  0  0  0  0  0  0  0  0  0  0
   18.4530    9.4966   33.6624 N   0  0  0  0  0  0  0  0  0  0  0  0
   17.9178    8.6673   33.8983 H   0  0  0  0  0  0  0  0  0  0  0  0
   18.1437   10.4175   33.9518 H   0  0  0  0  0  0  0  0  0  0  0  0
   19.8436    8.1092   32.4596 C   0  0  0  0  0  0  0  0  0  0  0  0
   19.2391    7.2694   32.7693 H   0  0  0  0  0  0  0  0  0  0  0  0
   24.0853    5.0875   30.5679 C   0  0  0  0  0  0  0  0  0  0  0  0
   23.8649    6.1780   29.7530 O   0  0  0  0  0  0  0  0  0  0  0  0
   24.9312    7.1219   29.5851 C   0  0  0  0  0  0  0  0  0  0  0  0
   25.7835    6.6647   29.0750 H   0  0  0  0  0  0  0  0  0  0  0  0
   24.5794    7.9611   28.9783 H   0  0  0  0  0  0  0  0  0  0  0  0
   25.2588    7.5129   30.5523 H   0  0  0  0  0  0  0  0  0  0  0  0
  1  2  1  0
  2  3  2  0
  3  4  1  0
  3  5  1  0
  5  6  1  0
  6  7  1  0
  7  8  1  0
  7  9  1  0
  7 10  1  0
  5 11  2  0
 11 12  1  0
 11 13  1  0
 13 14  1  0
 14 15  1  0
 14 16  1  0
 14 17  1  0
 17 18  2  0
 17 19  1  0
 19 20  1  0
 19 21  1  0
 21 22  2  0
 22 23  1  0
 23 24  1  0
 24 25  1  0
 24 26  1  0
 26 27  1  0
 26 28  1  0
 26 29  1  0
 29 30  1  0
 29 31  1  0
 29 32  1  0
 32 33  1  0
 32 34  1  0
 34 35  1  0
 34 36  1  0
 34 37  1  0
 37 38  1  0
 37 39  1  0
 23 40  2  0
 40 41  1  0
 41 42  3  0
 40 43  1  0
 43 44  1  0
 44 45  1  0
 44 46  1  0
 43 47  2  0
 47 48  1  0
 13 49  2  0
 49 50  1  0
 50 51  1  0
 51 52  1  0
 51 53  1  0
 51 54  1  0
 49  2  1  0
 47 21  1  0
 37 24  1  0
M  END
>  <score>  (385) 
7.74267

$$$$

     RDKit          3D

 53 55  0  0  0  0  0  0  0  0999 V2000
   25.6501   12.0959   31.2271 H   0  0  0  0  0  0  0  0  0  0  0  0
   24.5916   12.1503   31.0519 C   0  0  0  0  0  0  0  0  0  0  0  0
   24.0843   13.2781   30.4259 C   0  0  0  0  0  0  0  0  0  0  0  0
   24.7581   14.0564   30.0816 H   0  0  0  0  0  0  0  0  0  0  0  0
   22.7195   13.4051   30.2177 C   0  0  0  0  0  0  0  0  0  0  0  0
   22.3365   14.5366   29.5570 O   0  0  0  0  0  0  0  0  0  0  0  0
   20.9437   14.8165   29.4504 C   0  0  0  0  0  0  0  0  0  0  0  0
   20.3877   15.0072   30.6786 F   0  0  0  0  0  0  0  0  0  0  0  0
   20.8650   15.9559   28.7183 F   0  0  0  0  0  0  0  0  0  0  0  0
   20.2821   13.8199   28.8061 F   0  0  0  0  0  0  0  0  0  0  0  0
   21.8480   12.4036   30.6765 C   0  0  0  0  0  0  0  0  0  0  0  0
   20.7844   12.5445   30.5144 H   0  0  0  0  0  0  0  0  0  0  0  0
   22.3536   11.2391   31.2901 C   0  0  0  0  0  0  0  0  0  0  0  0
   21.4640   10.1472   31.7025 C   0  0  0  0  0  0  0  0  0  0  0  0
   21.8649    8.9138   31.3866 N   0  0  0  0  0  0  0  0  0  0  0  0
   21.0768    7.9157   31.6957 C   0  0  0  0  0  0  0  0  0  0  0  0
   21.6294    6.7597   31.2962 N   0  0  0  0  0  0  0  0  0  0  0  0
   22.5486    6.8424   30.8840 H   0  0  0  0  0  0  0  0  0  0  0  0
   20.9313    5.5992   31.1279 C   0  0  0  0  0  0  0  0  0  0  0  0
   19.7714    5.5118   31.4975 O   0  0  0  0  0  0  0  0  0  0  0  0
   21.5751    4.4593   30.3484 C   0  0  0  0  0  0  0  0  0  0  0  0
   21.6030    4.7105   29.2818 H   0  0  0  0  0  0  0  0  0  0  0  0
   20.9627    3.5602   30.4724 H   0  0  0  0  0  0  0  0  0  0  0  0
   22.9752    4.2110   30.8602 C   0  0  0  0  0  0  0  0  0  0  0  0
   23.1895    3.1170   31.7031 C   0  0  0  0  0  0  0  0  0  0  0  0
   22.3595    2.4599   31.9470 H   0  0  0  0  0  0  0  0  0  0  0  0
   24.4547    2.8511   32.2487 C   0  0  0  0  0  0  0  0  0  0  0  0
   24.6741    1.7684   33.0674 O   0  0  0  0  0  0  0  0  0  0  0  0
   23.6315    0.7829   33.0900 C   0  0  0  0  0  0  0  0  0  0  0  0
   23.9401   -0.0701   33.7011 H   0  0  0  0  0  0  0  0  0  0  0  0
   22.7146    1.2044   33.5145 H   0  0  0  0  0  0  0  0  0  0  0  0
   23.4218    0.4285   32.0749 H   0  0  0  0  0  0  0  0  0  0  0  0
   25.5139    3.7231   31.9510 C   0  0  0  0  0  0  0  0  0  0  0  0
   27.2589    3.4449   32.6815 Br  0  0  0  0  0  0  0  0  0  0  0  0
   25.2991    4.8248   31.1204 C   0  0  0  0  0  0  0  0  0  0  0  0
   26.1229    5.4922   30.8974 H   0  0  0  0  0  0  0  0  0  0  0  0
   24.0366    5.0949   30.5745 C   0  0  0  0  0  0  0  0  0  0  0  0
   23.8099    6.2090   29.7960 O   0  0  0  0  0  0  0  0  0  0  0  0
   24.9327    7.0840   29.6146 C   0  0  0  0  0  0  0  0  0  0  0  0
   24.6489    7.9439   29.0012 H   0  0  0  0  0  0  0  0  0  0  0  0
   25.2899    7.4478   30.5832 H   0  0  0  0  0  0  0  0  0  0  0  0
   25.7499    6.5530   29.1168 H   0  0  0  0  0  0  0  0  0  0  0  0
   19.8779    8.0433   32.3359 C   0  0  0  0  0  0  0  0  0  0  0  0
   19.2749    7.1888   32.5915 H   0  0  0  0  0  0  0  0  0  0  0  0
   19.4950    9.2930   32.6840 C   0  0  0  0  0  0  0  0  0  0  0  0
   18.3515    9.3954   33.3930 N   0  0  0  0  0  0  0  0  0  0  0  0
   17.9314    8.5015   33.6549 H   0  0  0  0  0  0  0  0  0  0  0  0
   18.3447   10.1494   34.0754 H   0  0  0  0  0  0  0  0  0  0  0  0
   20.2695   10.3821   32.3818 C   0  0  0  0  0  0  0  0  0  0  0  0
   19.8476   11.6875   32.7769 C   0  0  0  0  0  0  0  0  0  0  0  0
   19.4633   12.7351   33.1054 N   0  0  0  0  0  0  0  0  0  0  0  0
   23.7449   11.1196   31.4519 C   0  0  0  0  0  0  0  0  0  0  0  0
   24.1650   10.2323   31.9179 H   0  0  0  0  0  0  0  0  0  0  0  0
  1  2  1  0
  2  3  2  0
  3  4  1  0
  3  5  1  0
  5  6  1  0
  6  7  1  0
  7  8  1  0
  7  9  1  0
  7 10  1  0
  5 11  2  0
 11 12  1  0
 11 13  1  0
 13 14  1  0
 14 15  2  0
 15 16  1  0
 16 17  1  0
 17 18  1  0
 17 19  1  0
 19 20  2  0
 19 21  1  0
 21 22  1  0
 21 23  1  0
 21 24  1  0
 24 25  2  0
 25 26  1  0
 25 27  1  0
 27 28  1  0
 28 29  1  0
 29 30  1  0
 29 31  1  0
 29 32  1  0
 27 33  2  0
 33 34  1  0
 33 35  1  0
 35 36  1  0
 35 37  2  0
 37 38  1  0
 38 39  1  0
 39 40  1  0
 39 41  1  0
 39 42  1  0
 16 43  2  0
 43 44  1  0
 43 45  1  0
 45 46  1  0
 46 47  1  0
 46 48  1  0
 45 49  2  0
 49 50  1  0
 50 51  3  0
 13 52  2  0
 52 53  1  0
 52  2  1  0
 49 14  1  0
 37 24  1  0
M  END
>  <score>  (386) 
7.7435

$$$$

     RDKit          3D

 51 53  0  0  0  0  0  0  0  0999 V2000
   21.4412   14.5792   29.7370 H   0  0  0  0  0  0  0  0  0  0  0  0
   21.9729   13.6748   30.0213 C   0  0  0  0  0  0  0  0  0  0  0  0
   21.2866   12.6224   30.5005 N   0  0  0  0  0  0  0  0  0  0  0  0
   21.9231   11.4822   30.8572 C   0  0  0  0  0  0  0  0  0  0  0  0
   21.1196   10.2814   31.3496 C   0  0  0  0  0  0  0  0  0  0  0  0
   21.5593    9.0479   31.0252 N   0  0  0  0  0  0  0  0  0  0  0  0
   20.9631    7.9819   31.5128 C   0  0  0  0  0  0  0  0  0  0  0  0
   21.5164    6.8374   31.0726 N   0  0  0  0  0  0  0  0  0  0  0  0
   22.3115    6.9586   30.4631 H   0  0  0  0  0  0  0  0  0  0  0  0
   20.8788    5.6314   31.0881 C   0  0  0  0  0  0  0  0  0  0  0  0
   19.7670    5.5128   31.5846 O   0  0  0  0  0  0  0  0  0  0  0  0
   21.5272    4.4477   30.3842 C   0  0  0  0  0  0  0  0  0  0  0  0
   20.8950    3.5712   30.5490 H   0  0  0  0  0  0  0  0  0  0  0  0
   21.5584    4.6426   29.3076 H   0  0  0  0  0  0  0  0  0  0  0  0
   22.9303    4.1975   30.9132 C   0  0  0  0  0  0  0  0  0  0  0  0
   23.1593    3.0641   31.7054 C   0  0  0  0  0  0  0  0  0  0  0  0
   22.3480    2.3728   31.9069 H   0  0  0  0  0  0  0  0  0  0  0  0
   24.4188    2.7922   32.2629 C   0  0  0  0  0  0  0  0  0  0  0  0
   24.6447    1.6869   33.0525 O   0  0  0  0  0  0  0  0  0  0  0  0
   23.5875    0.7177   33.1170 C   0  0  0  0  0  0  0  0  0  0  0  0
   23.3505    0.3426   32.1168 H   0  0  0  0  0  0  0  0  0  0  0  0
   23.8960   -0.1260   33.7399 H   0  0  0  0  0  0  0  0  0  0  0  0
   22.6839    1.1553   33.5518 H   0  0  0  0  0  0  0  0  0  0  0  0
   25.4695    3.6931   32.0175 C   0  0  0  0  0  0  0  0  0  0  0  0
   27.2138    3.4157   32.7627 Br  0  0  0  0  0  0  0  0  0  0  0  0
   25.2561    4.8162   31.2095 C   0  0  0  0  0  0  0  0  0  0  0  0
   26.0802    5.4959   31.0194 H   0  0  0  0  0  0  0  0  0  0  0  0
   23.9963    5.0846   30.6469 C   0  0  0  0  0  0  0  0  0  0  0  0
   23.7653    6.1870   29.8531 O   0  0  0  0  0  0  0  0  0  0  0  0
   24.9115    6.9673   29.4779 C   0  0  0  0  0  0  0  0  0  0  0  0
   25.3657    7.4285   30.3609 H   0  0  0  0  0  0  0  0  0  0  0  0
   24.6067    7.7593   28.7868 H   0  0  0  0  0  0  0  0  0  0  0  0
   25.6644    6.3493   28.9770 H   0  0  0  0  0  0  0  0  0  0  0  0
   19.9209    8.0406   32.3844 C   0  0  0  0  0  0  0  0  0  0  0  0
   19.5002    7.1435   32.8022 H   0  0  0  0  0  0  0  0  0  0  0  0
   19.4536    9.2638   32.7279 C   0  0  0  0  0  0  0  0  0  0  0  0
   18.4314    9.2741   33.6170 N   0  0  0  0  0  0  0  0  0  0  0  0
   18.0340    8.3659   33.8406 H   0  0  0  0  0  0  0  0  0  0  0  0
   17.8113   10.0812   33.6075 H   0  0  0  0  0  0  0  0  0  0  0  0
   20.0075   10.4101   32.1926 C   0  0  0  0  0  0  0  0  0  0  0  0
   19.5190   11.7043   32.5272 C   0  0  0  0  0  0  0  0  0  0  0  0
   19.1763   12.7868   32.7854 N   0  0  0  0  0  0  0  0  0  0  0  0
   23.3378   11.4383   30.7970 C   0  0  0  0  0  0  0  0  0  0  0  0
   24.0510   10.2309   31.3288 C   0  0  0  0  0  0  0  0  0  0  0  0
   24.1791    9.3360   30.3194 F   0  0  0  0  0  0  0  0  0  0  0  0
   23.3505    9.7006   32.3609 F   0  0  0  0  0  0  0  0  0  0  0  0
   25.2592   10.5443   31.8416 F   0  0  0  0  0  0  0  0  0  0  0  0
   24.0598   12.5100   30.2572 C   0  0  0  0  0  0  0  0  0  0  0  0
   25.1431   12.4662   30.1332 H   0  0  0  0  0  0  0  0  0  0  0  0
   23.3563   13.6399   29.8725 C   0  0  0  0  0  0  0  0  0  0  0  0
   23.8830   14.5010   29.4806 H   0  0  0  0  0  0  0  0  0  0  0  0
  1  2  1  0
  2  3  2  0
  3  4  1  0
  4  5  1  0
  5  6  2  0
  6  7  1  0
  7  8  1  0
  8  9  1  0
  8 10  1  0
 10 11  2  0
 10 12  1  0
 12 13  1  0
 12 14  1  0
 12 15  1  0
 15 16  2  0
 16 17  1  0
 16 18  1  0
 18 19  1  0
 19 20  1  0
 20 21  1  0
 20 22  1  0
 20 23  1  0
 18 24  2  0
 24 25  1  0
 24 26  1  0
 26 27  1  0
 26 28  2  0
 28 29  1  0
 29 30  1  0
 30 31  1  0
 30 32  1  0
 30 33  1  0
  7 34  2  0
 34 35  1  0
 34 36  1  0
 36 37  1  0
 37 38  1  0
 37 39  1  0
 36 40  2  0
 40 41  1  0
 41 42  3  0
  4 43  2  0
 43 44  1  0
 44 45  1  0
 44 46  1  0
 44 47  1  0
 43 48  1  0
 48 49  1  0
 48 50  2  0
 50 51  1  0
 50  2  1  0
 40  5  1  0
 28 15  1  0
M  END
>  <score>  (387) 
7.74435

$$$$

     RDKit          3D

 58 60  0  0  0  0  0  0  0  0999 V2000
   26.1293    5.4896   30.8931 H   0  0  0  0  0  0  0  0  0  0  0  0
   25.3026    4.8289   31.1244 C   0  0  0  0  0  0  0  0  0  0  0  0
   25.5085    3.7252   31.9585 C   0  0  0  0  0  0  0  0  0  0  0  0
   27.2602    3.3996   32.6590 Br  0  0  0  0  0  0  0  0  0  0  0  0
   24.4421    2.8623   32.2611 C   0  0  0  0  0  0  0  0  0  0  0  0
   24.6651    1.7771   33.0763 O   0  0  0  0  0  0  0  0  0  0  0  0
   23.6398    0.7734   33.0982 C   0  0  0  0  0  0  0  0  0  0  0  0
   23.9681   -0.0750   33.7085 H   0  0  0  0  0  0  0  0  0  0  0  0
   22.7182    1.1810   33.5253 H   0  0  0  0  0  0  0  0  0  0  0  0
   23.4311    0.4149   32.0842 H   0  0  0  0  0  0  0  0  0  0  0  0
   23.1780    3.1359   31.7191 C   0  0  0  0  0  0  0  0  0  0  0  0
   22.3452    2.4848   31.9718 H   0  0  0  0  0  0  0  0  0  0  0  0
   22.9763    4.2336   30.8732 C   0  0  0  0  0  0  0  0  0  0  0  0
   21.5909    4.4915   30.3363 C   0  0  0  0  0  0  0  0  0  0  0  0
   21.6415    4.7183   29.2689 H   0  0  0  0  0  0  0  0  0  0  0  0
   20.9698    3.6018   30.4641 H   0  0  0  0  0  0  0  0  0  0  0  0
   20.9572    5.6693   31.0660 C   0  0  0  0  0  0  0  0  0  0  0  0
   19.8098    5.5996   31.4751 O   0  0  0  0  0  0  0  0  0  0  0  0
   21.6670    6.8275   31.2060 N   0  0  0  0  0  0  0  0  0  0  0  0
   22.5125    6.9428   30.6714 H   0  0  0  0  0  0  0  0  0  0  0  0
   21.1573    7.9729   31.6831 C   0  0  0  0  0  0  0  0  0  0  0  0
   21.8314    9.0111   31.2622 N   0  0  0  0  0  0  0  0  0  0  0  0
   21.3962   10.2036   31.6425 C   0  0  0  0  0  0  0  0  0  0  0  0
   22.1887   11.2690   31.2534 N   0  0  0  0  0  0  0  0  0  0  0  0
   23.6535   11.1793   31.4472 C   0  0  0  0  0  0  0  0  0  0  0  0
   24.0060   12.1371   31.8456 H   0  0  0  0  0  0  0  0  0  0  0  0
   23.9057   10.3913   32.1677 H   0  0  0  0  0  0  0  0  0  0  0  0
   24.4105   10.9077   30.1417 C   0  0  0  0  0  0  0  0  0  0  0  0
   25.4861   11.0125   30.3346 H   0  0  0  0  0  0  0  0  0  0  0  0
   24.2222    9.8757   29.8317 H   0  0  0  0  0  0  0  0  0  0  0  0
   23.9766   11.8205   29.0754 N   0  0  0  0  0  0  0  0  0  0  0  0
   24.9051   12.4003   28.2099 C   0  0  0  0  0  0  0  0  0  0  0  0
   24.5517   13.1331   27.2946 O   0  0  0  0  0  0  0  0  0  0  0  0
   26.3955   12.1498   28.4012 C   0  0  0  0  0  0  0  0  0  0  0  0
   26.7462   12.6992   29.2784 H   0  0  0  0  0  0  0  0  0  0  0  0
   26.9541   12.4839   27.5222 H   0  0  0  0  0  0  0  0  0  0  0  0
   26.5771   11.0811   28.5498 H   0  0  0  0  0  0  0  0  0  0  0  0
   22.5210   11.9188   28.8570 C   0  0  0  0  0  0  0  0  0  0  0  0
   22.1681   10.9751   28.4312 H   0  0  0  0  0  0  0  0  0  0  0  0
   22.2905   12.7108   28.1345 H   0  0  0  0  0  0  0  0  0  0  0  0
   21.7524   12.1812   30.1740 C   0  0  0  0  0  0  0  0  0  0  0  0
   21.9502   13.2097   30.4895 H   0  0  0  0  0  0  0  0  0  0  0  0
   20.6780   12.0891   29.9913 H   0  0  0  0  0  0  0  0  0  0  0  0
   20.2961   10.3918   32.4469 C   0  0  0  0  0  0  0  0  0  0  0  0
   19.8939   11.6910   32.8724 C   0  0  0  0  0  0  0  0  0  0  0  0
   19.5832   12.7608   33.1978 N   0  0  0  0  0  0  0  0  0  0  0  0
   19.6418    9.2740   32.8632 C   0  0  0  0  0  0  0  0  0  0  0  0
   18.5514    9.3580   33.6532 N   0  0  0  0  0  0  0  0  0  0  0  0
   18.1791    8.4715   33.9860 H   0  0  0  0  0  0  0  0  0  0  0  0
   17.9120   10.1277   33.4570 H   0  0  0  0  0  0  0  0  0  0  0  0
   20.0651    8.0403   32.4970 C   0  0  0  0  0  0  0  0  0  0  0  0
   19.5452    7.1619   32.8361 H   0  0  0  0  0  0  0  0  0  0  0  0
   24.0425    5.1098   30.5822 C   0  0  0  0  0  0  0  0  0  0  0  0
   23.8193    6.2270   29.8039 O   0  0  0  0  0  0  0  0  0  0  0  0
   24.9374    7.1084   29.6086 C   0  0  0  0  0  0  0  0  0  0  0  0
   24.6499    7.9459   28.9645 H   0  0  0  0  0  0  0  0  0  0  0  0
   25.7625    6.5701   29.1329 H   0  0  0  0  0  0  0  0  0  0  0  0
   25.2860    7.5100   30.5660 H   0  0  0  0  0  0  0  0  0  0  0  0
  1  2  1  0
  2  3  2  0
  3  4  1  0
  3  5  1  0
  5  6  1  0
  6  7  1  0
  7  8  1  0
  7  9  1  0
  7 10  1  0
  5 11  2  0
 11 12  1  0
 11 13  1  0
 13 14  1  0
 14 15  1  0
 14 16  1  0
 14 17  1  0
 17 18  2  0
 17 19  1  0
 19 20  1  0
 19 21  1  0
 21 22  2  0
 22 23  1  0
 23 24  1  0
 24 25  1  0
 25 26  1  0
 25 27  1  0
 25 28  1  0
 28 29  1  0
 28 30  1  0
 28 31  1  0
 31 32  1  0
 32 33  2  0
 32 34  1  0
 34 35  1  0
 34 36  1  0
 34 37  1  0
 31 38  1  0
 38 39  1  0
 38 40  1  0
 38 41  1  0
 41 42  1  0
 41 43  1  0
 23 44  2  0
 44 45  1  0
 45 46  3  0
 44 47  1  0
 47 48  1  0
 48 49  1  0
 48 50  1  0
 47 51  2  0
 51 52  1  0
 13 53  2  0
 53 54  1  0
 54 55  1  0
 55 56  1  0
 55 57  1  0
 55 58  1  0
 53  2  1  0
 51 21  1  0
 41 24  1  0
M  END
>  <score>  (388) 
7.74468

$$$$

     RDKit          3D

 59 61  0  0  0  0  0  0  0  0999 V2000
   26.1538    5.4336   30.8405 H   0  0  0  0  0  0  0  0  0  0  0  0
   25.3147    4.7979   31.0987 C   0  0  0  0  0  0  0  0  0  0  0  0
   25.5079    3.6968   31.9396 C   0  0  0  0  0  0  0  0  0  0  0  0
   27.2597    3.3511   32.6306 Br  0  0  0  0  0  0  0  0  0  0  0  0
   24.4301    2.8593   32.2655 C   0  0  0  0  0  0  0  0  0  0  0  0
   24.6627    1.7926   33.1041 O   0  0  0  0  0  0  0  0  0  0  0  0
   23.6771    0.7500   33.1265 C   0  0  0  0  0  0  0  0  0  0  0  0
   24.0428   -0.0869   33.7308 H   0  0  0  0  0  0  0  0  0  0  0  0
   23.4834    0.3821   32.1129 H   0  0  0  0  0  0  0  0  0  0  0  0
   22.7406    1.1074   33.5672 H   0  0  0  0  0  0  0  0  0  0  0  0
   23.1640    3.1500   31.7282 C   0  0  0  0  0  0  0  0  0  0  0  0
   22.3392    2.4899   31.9752 H   0  0  0  0  0  0  0  0  0  0  0  0
   22.9656    4.2581   30.8848 C   0  0  0  0  0  0  0  0  0  0  0  0
   21.5889    4.5372   30.3132 C   0  0  0  0  0  0  0  0  0  0  0  0
   21.6885    4.8362   29.2644 H   0  0  0  0  0  0  0  0  0  0  0  0
   20.9593    3.6474   30.3548 H   0  0  0  0  0  0  0  0  0  0  0  0
   20.8938    5.6573   31.0668 C   0  0  0  0  0  0  0  0  0  0  0  0
   19.8450    5.4674   31.6648 O   0  0  0  0  0  0  0  0  0  0  0  0
   21.4265    6.9006   31.0006 N   0  0  0  0  0  0  0  0  0  0  0  0
   22.3012    7.0398   30.5160 H   0  0  0  0  0  0  0  0  0  0  0  0
   20.9298    8.0105   31.5618 C   0  0  0  0  0  0  0  0  0  0  0  0
   21.6817    9.0154   31.1922 N   0  0  0  0  0  0  0  0  0  0  0  0
   21.3954   10.2360   31.6416 C   0  0  0  0  0  0  0  0  0  0  0  0
   22.2819   11.3856   31.1820 C   0  0  0  0  0  0  0  0  0  0  0  0
   22.1820   12.1968   31.9086 H   0  0  0  0  0  0  0  0  0  0  0  0
   21.8274   11.8911   29.7905 C   0  0  0  0  0  0  0  0  0  0  0  0
   21.8456   11.0525   29.0893 H   0  0  0  0  0  0  0  0  0  0  0  0
   20.7963   12.2537   29.8386 H   0  0  0  0  0  0  0  0  0  0  0  0
   22.7376   12.9998   29.2378 C   0  0  0  0  0  0  0  0  0  0  0  0
   22.4267   13.2499   28.2167 H   0  0  0  0  0  0  0  0  0  0  0  0
   22.6447   13.9037   29.8479 H   0  0  0  0  0  0  0  0  0  0  0  0
   24.1192   12.5238   29.2634 N   0  0  0  0  0  0  0  0  0  0  0  0
   24.8659   12.3613   28.1017 C   0  0  0  0  0  0  0  0  0  0  0  0
   24.5800   12.9590   27.0729 O   0  0  0  0  0  0  0  0  0  0  0  0
   26.0294   11.3749   28.0636 C   0  0  0  0  0  0  0  0  0  0  0  0
   25.7679   10.4696   28.6183 H   0  0  0  0  0  0  0  0  0  0  0  0
   26.2511   11.0960   27.0291 H   0  0  0  0  0  0  0  0  0  0  0  0
   26.9187   11.8176   28.5161 H   0  0  0  0  0  0  0  0  0  0  0  0
   24.6373   12.1120   30.5610 C   0  0  0  0  0  0  0  0  0  0  0  0
   24.6169   12.9657   31.2458 H   0  0  0  0  0  0  0  0  0  0  0  0
   25.6778   11.7877   30.4742 H   0  0  0  0  0  0  0  0  0  0  0  0
   23.7754   10.9788   31.1101 C   0  0  0  0  0  0  0  0  0  0  0  0
   24.1493   10.6834   32.0929 H   0  0  0  0  0  0  0  0  0  0  0  0
   23.8836   10.1145   30.4519 H   0  0  0  0  0  0  0  0  0  0  0  0
   20.3068   10.4504   32.4804 C   0  0  0  0  0  0  0  0  0  0  0  0
   19.9752   11.7685   32.9052 C   0  0  0  0  0  0  0  0  0  0  0  0
   19.7002   12.8558   33.2158 N   0  0  0  0  0  0  0  0  0  0  0  0
   19.5532    9.3582   32.8618 C   0  0  0  0  0  0  0  0  0  0  0  0
   18.5061    9.4731   33.7201 N   0  0  0  0  0  0  0  0  0  0  0  0
   18.1605   10.4072   33.9184 H   0  0  0  0  0  0  0  0  0  0  0  0
   17.9152    8.6606   33.8969 H   0  0  0  0  0  0  0  0  0  0  0  0
   19.8534    8.1116   32.4042 C   0  0  0  0  0  0  0  0  0  0  0  0
   19.2661    7.2627   32.7134 H   0  0  0  0  0  0  0  0  0  0  0  0
   24.0519    5.0997   30.5690 C   0  0  0  0  0  0  0  0  0  0  0  0
   23.8386    6.1849   29.7454 O   0  0  0  0  0  0  0  0  0  0  0  0
   24.9300    7.1060   29.5927 C   0  0  0  0  0  0  0  0  0  0  0  0
   24.6095    7.9596   28.9887 H   0  0  0  0  0  0  0  0  0  0  0  0
   25.7785    6.6293   29.0882 H   0  0  0  0  0  0  0  0  0  0  0  0
   25.2559    7.4799   30.5701 H   0  0  0  0  0  0  0  0  0  0  0  0
  1  2  1  0
  2  3  2  0
  3  4  1  0
  3  5  1  0
  5  6  1  0
  6  7  1  0
  7  8  1  0
  7  9  1  0
  7 10  1  0
  5 11  2  0
 11 12  1  0
 11 13  1  0
 13 14  1  0
 14 15  1  0
 14 16  1  0
 14 17  1  0
 17 18  2  0
 17 19  1  0
 19 20  1  0
 19 21  1  0
 21 22  2  0
 22 23  1  0
 23 24  1  0
 24 25  1  0
 24 26  1  0
 26 27  1  0
 26 28  1  0
 26 29  1  0
 29 30  1  0
 29 31  1  0
 29 32  1  0
 32 33  1  0
 33 34  2  0
 33 35  1  0
 35 36  1  0
 35 37  1  0
 35 38  1  0
 32 39  1  0
 39 40  1  0
 39 41  1  0
 39 42  1  0
 42 43  1  0
 42 44  1  0
 23 45  2  0
 45 46  1  0
 46 47  3  0
 45 48  1  0
 48 49  1  0
 49 50  1  0
 49 51  1  0
 48 52  2  0
 52 53  1  0
 13 54  2  0
 54 55  1  0
 55 56  1  0
 56 57  1  0
 56 58  1  0
 56 59  1  0
 54  2  1  0
 52 21  1  0
 42 24  1  0
M  END
>  <score>  (389) 
7.74479

$$$$

     RDKit          3D

 52 54  0  0  0  0  0  0  0  0999 V2000
   25.9247    9.0777   31.6387 H   0  0  0  0  0  0  0  0  0  0  0  0
   25.3477    9.7073   30.9708 C   0  0  0  0  0  0  0  0  0  0  0  0
   25.8048    9.9772   29.6773 C   0  0  0  0  0  0  0  0  0  0  0  0
   26.7629    9.5874   29.3476 H   0  0  0  0  0  0  0  0  0  0  0  0
   25.0201   10.7263   28.7932 C   0  0  0  0  0  0  0  0  0  0  0  0
   25.5780   11.0105   27.1655 Cl  0  0  0  0  0  0  0  0  0  0  0  0
   23.7769   11.2165   29.2077 C   0  0  0  0  0  0  0  0  0  0  0  0
   23.1577   11.7516   28.4903 H   0  0  0  0  0  0  0  0  0  0  0  0
   23.3149   10.9633   30.5082 C   0  0  0  0  0  0  0  0  0  0  0  0
   21.9096   11.3667   30.9120 C   0  0  0  0  0  0  0  0  0  0  0  0
   21.3608   11.6998   30.0263 H   0  0  0  0  0  0  0  0  0  0  0  0
   21.9464   12.2068   31.6144 H   0  0  0  0  0  0  0  0  0  0  0  0
   21.1479   10.1927   31.5029 C   0  0  0  0  0  0  0  0  0  0  0  0
   21.5308    8.9612   31.1445 N   0  0  0  0  0  0  0  0  0  0  0  0
   20.8905    7.9118   31.6066 C   0  0  0  0  0  0  0  0  0  0  0  0
   21.5000    6.7593   31.2597 N   0  0  0  0  0  0  0  0  0  0  0  0
   22.3968    6.8756   30.8111 H   0  0  0  0  0  0  0  0  0  0  0  0
   20.8680    5.5562   31.1400 C   0  0  0  0  0  0  0  0  0  0  0  0
   19.7109    5.4268   31.5112 O   0  0  0  0  0  0  0  0  0  0  0  0
   21.5666    4.4557   30.3516 C   0  0  0  0  0  0  0  0  0  0  0  0
   21.6081    4.7298   29.2949 H   0  0  0  0  0  0  0  0  0  0  0  0
   20.9855    3.5358   30.4290 H   0  0  0  0  0  0  0  0  0  0  0  0
   22.9637    4.2322   30.8747 C   0  0  0  0  0  0  0  0  0  0  0  0
   23.1804    3.1294   31.7053 C   0  0  0  0  0  0  0  0  0  0  0  0
   22.3573    2.4636   31.9424 H   0  0  0  0  0  0  0  0  0  0  0  0
   24.4438    2.8599   32.2521 C   0  0  0  0  0  0  0  0  0  0  0  0
   24.6705    1.7726   33.0634 O   0  0  0  0  0  0  0  0  0  0  0  0
   23.6303    0.7842   33.0896 C   0  0  0  0  0  0  0  0  0  0  0  0
   23.9429   -0.0666   33.7015 H   0  0  0  0  0  0  0  0  0  0  0  0
   23.4168    0.4247   32.0769 H   0  0  0  0  0  0  0  0  0  0  0  0
   22.7118    1.2007   33.5158 H   0  0  0  0  0  0  0  0  0  0  0  0
   25.5036    3.7321   31.9618 C   0  0  0  0  0  0  0  0  0  0  0  0
   27.2540    3.4313   32.6789 Br  0  0  0  0  0  0  0  0  0  0  0  0
   25.2917    4.8375   31.1308 C   0  0  0  0  0  0  0  0  0  0  0  0
   26.1189    5.5004   30.8994 H   0  0  0  0  0  0  0  0  0  0  0  0
   24.0272    5.1125   30.5841 C   0  0  0  0  0  0  0  0  0  0  0  0
   23.8023    6.2230   29.7978 O   0  0  0  0  0  0  0  0  0  0  0  0
   24.9217    7.1046   29.6135 C   0  0  0  0  0  0  0  0  0  0  0  0
   25.7445    6.5863   29.1098 H   0  0  0  0  0  0  0  0  0  0  0  0
   24.6297    7.9653   29.0042 H   0  0  0  0  0  0  0  0  0  0  0  0
   25.2803    7.4660   30.5822 H   0  0  0  0  0  0  0  0  0  0  0  0
   19.7896    8.0001   32.4012 C   0  0  0  0  0  0  0  0  0  0  0  0
   19.2852    7.1199   32.7588 H   0  0  0  0  0  0  0  0  0  0  0  0
   19.3860    9.2438   32.7622 C   0  0  0  0  0  0  0  0  0  0  0  0
   18.2883    9.2769   33.5446 N   0  0  0  0  0  0  0  0  0  0  0  0
   18.2596   10.0283   34.2229 H   0  0  0  0  0  0  0  0  0  0  0  0
   17.9199    8.3708   33.8180 H   0  0  0  0  0  0  0  0  0  0  0  0
   20.0679   10.3740   32.3663 C   0  0  0  0  0  0  0  0  0  0  0  0
   19.6727   11.6713   32.8052 C   0  0  0  0  0  0  0  0  0  0  0  0
   19.3799   12.7411   33.1617 N   0  0  0  0  0  0  0  0  0  0  0  0
   24.1217   10.2285   31.3942 C   0  0  0  0  0  0  0  0  0  0  0  0
   23.7702   10.0323   32.4030 H   0  0  0  0  0  0  0  0  0  0  0  0
  1  2  1  0
  2  3  2  0
  3  4  1  0
  3  5  1  0
  5  6  1  0
  5  7  2  0
  7  8  1  0
  7  9  1  0
  9 10  1  0
 10 11  1  0
 10 12  1  0
 10 13  1  0
 13 14  2  0
 14 15  1  0
 15 16  1  0
 16 17  1  0
 16 18  1  0
 18 19  2  0
 18 20  1  0
 20 21  1  0
 20 22  1  0
 20 23  1  0
 23 24  2  0
 24 25  1  0
 24 26  1  0
 26 27  1  0
 27 28  1  0
 28 29  1  0
 28 30  1  0
 28 31  1  0
 26 32  2  0
 32 33  1  0
 32 34  1  0
 34 35  1  0
 34 36  2  0
 36 37  1  0
 37 38  1  0
 38 39  1  0
 38 40  1  0
 38 41  1  0
 15 42  2  0
 42 43  1  0
 42 44  1  0
 44 45  1  0
 45 46  1  0
 45 47  1  0
 44 48  2  0
 48 49  1  0
 49 50  3  0
  9 51  2  0
 51 52  1  0
 51  2  1  0
 48 13  1  0
 36 23  1  0
M  END
>  <score>  (390) 
7.74487

$$$$

     RDKit          3D

 53 56  0  0  0  0  0  0  0  0999 V2000
   26.1745    5.4234   30.8494 H   0  0  0  0  0  0  0  0  0  0  0  0
   25.3327    4.7885   31.1028 C   0  0  0  0  0  0  0  0  0  0  0  0
   25.5229    3.6857   31.9450 C   0  0  0  0  0  0  0  0  0  0  0  0
   27.2750    3.3359   32.6374 Br  0  0  0  0  0  0  0  0  0  0  0  0
   24.4433    2.8488   32.2704 C   0  0  0  0  0  0  0  0  0  0  0  0
   24.6709    1.7849   33.1142 O   0  0  0  0  0  0  0  0  0  0  0  0
   23.6835    0.7436   33.1329 C   0  0  0  0  0  0  0  0  0  0  0  0
   22.7456    1.0979   33.5707 H   0  0  0  0  0  0  0  0  0  0  0  0
   23.4874    0.3764   32.1206 H   0  0  0  0  0  0  0  0  0  0  0  0
   24.0471   -0.0947   33.7348 H   0  0  0  0  0  0  0  0  0  0  0  0
   23.1784    3.1395   31.7306 C   0  0  0  0  0  0  0  0  0  0  0  0
   22.3455    2.4904   31.9818 H   0  0  0  0  0  0  0  0  0  0  0  0
   22.9858    4.2456   30.8862 C   0  0  0  0  0  0  0  0  0  0  0  0
   21.6037    4.5391   30.3424 C   0  0  0  0  0  0  0  0  0  0  0  0
   21.6853    4.8837   29.3090 H   0  0  0  0  0  0  0  0  0  0  0  0
   20.9888    3.6375   30.3534 H   0  0  0  0  0  0  0  0  0  0  0  0
   20.9073    5.6303   31.1403 C   0  0  0  0  0  0  0  0  0  0  0  0
   19.7169    5.5497   31.3904 O   0  0  0  0  0  0  0  0  0  0  0  0
   21.5768    6.7832   31.3935 N   0  0  0  0  0  0  0  0  0  0  0  0
   22.4375    6.9265   30.8934 H   0  0  0  0  0  0  0  0  0  0  0  0
   21.0077    7.9315   31.8019 C   0  0  0  0  0  0  0  0  0  0  0  0
   21.7770    8.9299   31.4523 N   0  0  0  0  0  0  0  0  0  0  0  0
   21.4013   10.1759   31.7503 C   0  0  0  0  0  0  0  0  0  0  0  0
   22.2722   11.2739   31.2724 C   0  0  0  0  0  0  0  0  0  0  0  0
   23.6492   11.2276   31.2110 C   0  0  0  0  0  0  0  0  0  0  0  0
   24.2704   10.3943   31.5291 H   0  0  0  0  0  0  0  0  0  0  0  0
   24.1098   12.4486   30.5756 C   0  0  0  0  0  0  0  0  0  0  0  0
   25.3877   12.8844   30.2161 C   0  0  0  0  0  0  0  0  0  0  0  0
   26.2637   12.3377   30.5218 H   0  0  0  0  0  0  0  0  0  0  0  0
   25.5309   14.0107   29.4020 C   0  0  0  0  0  0  0  0  0  0  0  0
   26.5177   14.3410   29.0826 H   0  0  0  0  0  0  0  0  0  0  0  0
   24.3859   14.6989   28.9779 C   0  0  0  0  0  0  0  0  0  0  0  0
   24.4795   15.5628   28.3278 H   0  0  0  0  0  0  0  0  0  0  0  0
   23.1091   14.3324   29.4385 C   0  0  0  0  0  0  0  0  0  0  0  0
   22.2353   14.9145   29.1518 H   0  0  0  0  0  0  0  0  0  0  0  0
   22.9858   13.1854   30.2269 C   0  0  0  0  0  0  0  0  0  0  0  0
   21.8870   12.5156   30.7430 N   0  0  0  0  0  0  0  0  0  0  0  0
   20.9300   12.8464   30.6320 H   0  0  0  0  0  0  0  0  0  0  0  0
   20.2392   10.4168   32.4683 C   0  0  0  0  0  0  0  0  0  0  0  0
   19.9070   11.7464   32.8564 C   0  0  0  0  0  0  0  0  0  0  0  0
   19.6936   12.8413   33.1801 N   0  0  0  0  0  0  0  0  0  0  0  0
   19.4809    9.3355   32.8522 C   0  0  0  0  0  0  0  0  0  0  0  0
   18.3845    9.4752   33.6313 N   0  0  0  0  0  0  0  0  0  0  0  0
   18.1280   10.4054   33.9480 H   0  0  0  0  0  0  0  0  0  0  0  0
   17.8695    8.6500   33.9366 H   0  0  0  0  0  0  0  0  0  0  0  0
   19.8354    8.0748   32.4878 C   0  0  0  0  0  0  0  0  0  0  0  0
   19.2262    7.2351   32.7640 H   0  0  0  0  0  0  0  0  0  0  0  0
   24.0696    5.0892   30.5710 C   0  0  0  0  0  0  0  0  0  0  0  0
   23.8452    6.1805   29.7582 O   0  0  0  0  0  0  0  0  0  0  0  0
   24.9300    7.1075   29.5946 C   0  0  0  0  0  0  0  0  0  0  0  0
   25.7768    6.6380   29.0836 H   0  0  0  0  0  0  0  0  0  0  0  0
   25.2670    7.4876   30.5645 H   0  0  0  0  0  0  0  0  0  0  0  0
   24.5983    7.9575   28.9924 H   0  0  0  0  0  0  0  0  0  0  0  0
  1  2  1  0
  2  3  2  0
  3  4  1  0
  3  5  1  0
  5  6  1  0
  6  7  1  0
  7  8  1  0
  7  9  1  0
  7 10  1  0
  5 11  2  0
 11 12  1  0
 11 13  1  0
 13 14  1  0
 14 15  1  0
 14 16  1  0
 14 17  1  0
 17 18  2  0
 17 19  1  0
 19 20  1  0
 19 21  1  0
 21 22  2  0
 22 23  1  0
 23 24  1  0
 24 25  2  0
 25 26  1  0
 25 27  1  0
 27 28  2  0
 28 29  1  0
 28 30  1  0
 30 31  1  0
 30 32  2  0
 32 33  1  0
 32 34  1  0
 34 35  1  0
 34 36  2  0
 36 37  1  0
 37 38  1  0
 23 39  2  0
 39 40  1  0
 40 41  3  0
 39 42  1  0
 42 43  1  0
 43 44  1  0
 43 45  1  0
 42 46  2  0
 46 47  1  0
 13 48  2  0
 48 49  1  0
 49 50  1  0
 50 51  1  0
 50 52  1  0
 50 53  1  0
 48  2  1  0
 46 21  1  0
 37 24  1  0
 36 27  1  0
M  END
>  <score>  (391) 
7.74516

$$$$

     RDKit          3D

 54 56  0  0  0  0  0  0  0  0999 V2000
   25.5901   12.2466   31.2714 H   0  0  0  0  0  0  0  0  0  0  0  0
   24.5331   12.2758   31.0489 C   0  0  0  0  0  0  0  0  0  0  0  0
   24.0363   13.3582   30.3422 C   0  0  0  0  0  0  0  0  0  0  0  0
   24.7107   14.1439   30.0078 H   0  0  0  0  0  0  0  0  0  0  0  0
   22.6735   13.4371   30.0512 C   0  0  0  0  0  0  0  0  0  0  0  0
   22.1922   14.5635   29.2584 C   0  0  0  0  0  0  0  0  0  0  0  0
   22.9534   15.3755   28.7404 O   0  0  0  0  0  0  0  0  0  0  0  0
   20.7105   14.7408   29.0666 C   0  0  0  0  0  0  0  0  0  0  0  0
   20.5292   15.7140   28.6006 H   0  0  0  0  0  0  0  0  0  0  0  0
   20.3131   13.9391   28.4385 H   0  0  0  0  0  0  0  0  0  0  0  0
   20.2064   14.7015   30.0351 H   0  0  0  0  0  0  0  0  0  0  0  0
   21.7973   12.4318   30.5133 C   0  0  0  0  0  0  0  0  0  0  0  0
   20.7296   12.5116   30.3073 H   0  0  0  0  0  0  0  0  0  0  0  0
   22.2996   11.3131   31.2020 C   0  0  0  0  0  0  0  0  0  0  0  0
   21.4140   10.2250   31.6621 C   0  0  0  0  0  0  0  0  0  0  0  0
   21.7886    8.9742   31.3784 N   0  0  0  0  0  0  0  0  0  0  0  0
   21.0318    7.9722   31.7629 C   0  0  0  0  0  0  0  0  0  0  0  0
   21.6031    6.8099   31.3791 N   0  0  0  0  0  0  0  0  0  0  0  0
   22.4651    6.9395   30.8732 H   0  0  0  0  0  0  0  0  0  0  0  0
   20.9200    5.6577   31.1409 C   0  0  0  0  0  0  0  0  0  0  0  0
   19.7301    5.5913   31.3876 O   0  0  0  0  0  0  0  0  0  0  0  0
   21.6063    4.5517   30.3502 C   0  0  0  0  0  0  0  0  0  0  0  0
   21.6865    4.8943   29.3166 H   0  0  0  0  0  0  0  0  0  0  0  0
   20.9810    3.6555   30.3649 H   0  0  0  0  0  0  0  0  0  0  0  0
   22.9877    4.2502   30.8905 C   0  0  0  0  0  0  0  0  0  0  0  0
   23.1784    3.1415   31.7315 C   0  0  0  0  0  0  0  0  0  0  0  0
   22.3458    2.4922   31.9822 H   0  0  0  0  0  0  0  0  0  0  0  0
   24.4423    2.8492   32.2705 C   0  0  0  0  0  0  0  0  0  0  0  0
   24.6698    1.7857   33.1142 O   0  0  0  0  0  0  0  0  0  0  0  0
   23.6837    0.7430   33.1332 C   0  0  0  0  0  0  0  0  0  0  0  0
   22.7451    1.0961   33.5731 H   0  0  0  0  0  0  0  0  0  0  0  0
   24.0493   -0.0947   33.7358 H   0  0  0  0  0  0  0  0  0  0  0  0
   23.4889    0.3747   32.1199 H   0  0  0  0  0  0  0  0  0  0  0  0
   25.5224    3.6842   31.9444 C   0  0  0  0  0  0  0  0  0  0  0  0
   27.2730    3.3332   32.6364 Br  0  0  0  0  0  0  0  0  0  0  0  0
   25.3344    4.7877   31.1029 C   0  0  0  0  0  0  0  0  0  0  0  0
   26.1748    5.4226   30.8472 H   0  0  0  0  0  0  0  0  0  0  0  0
   24.0722    5.0909   30.5724 C   0  0  0  0  0  0  0  0  0  0  0  0
   23.8464    6.1814   29.7585 O   0  0  0  0  0  0  0  0  0  0  0  0
   24.9313    7.1085   29.5939 C   0  0  0  0  0  0  0  0  0  0  0  0
   24.5986    7.9583   28.9909 H   0  0  0  0  0  0  0  0  0  0  0  0
   25.7786    6.6388   29.0810 H   0  0  0  0  0  0  0  0  0  0  0  0
   25.2672    7.4903   30.5649 H   0  0  0  0  0  0  0  0  0  0  0  0
   19.8664    8.1168   32.4582 C   0  0  0  0  0  0  0  0  0  0  0  0
   19.2615    7.2756   32.7537 H   0  0  0  0  0  0  0  0  0  0  0  0
   19.5193    9.3815   32.8190 C   0  0  0  0  0  0  0  0  0  0  0  0
   18.4389    9.4980   33.6294 N   0  0  0  0  0  0  0  0  0  0  0  0
   18.1477   10.4228   33.9299 H   0  0  0  0  0  0  0  0  0  0  0  0
   17.9176    8.6635   33.9018 H   0  0  0  0  0  0  0  0  0  0  0  0
   20.2677   10.4660   32.4103 C   0  0  0  0  0  0  0  0  0  0  0  0
   19.9367   11.7890   32.8276 C   0  0  0  0  0  0  0  0  0  0  0  0
   19.6950   12.8662   33.1894 N   0  0  0  0  0  0  0  0  0  0  0  0
   23.6827   11.2429   31.4431 C   0  0  0  0  0  0  0  0  0  0  0  0
   24.1007   10.3965   31.9789 H   0  0  0  0  0  0  0  0  0  0  0  0
  1  2  1  0
  2  3  2  0
  3  4  1  0
  3  5  1  0
  5  6  1  0
  6  7  2  0
  6  8  1  0
  8  9  1  0
  8 10  1  0
  8 11  1  0
  5 12  2  0
 12 13  1  0
 12 14  1  0
 14 15  1  0
 15 16  2  0
 16 17  1  0
 17 18  1  0
 18 19  1  0
 18 20  1  0
 20 21  2  0
 20 22  1  0
 22 23  1  0
 22 24  1  0
 22 25  1  0
 25 26  2  0
 26 27  1  0
 26 28  1  0
 28 29  1  0
 29 30  1  0
 30 31  1  0
 30 32  1  0
 30 33  1  0
 28 34  2  0
 34 35  1  0
 34 36  1  0
 36 37  1  0
 36 38  2  0
 38 39  1  0
 39 40  1  0
 40 41  1  0
 40 42  1  0
 40 43  1  0
 17 44  2  0
 44 45  1  0
 44 46  1  0
 46 47  1  0
 47 48  1  0
 47 49  1  0
 46 50  2  0
 50 51  1  0
 51 52  3  0
 14 53  2  0
 53 54  1  0
 53  2  1  0
 50 15  1  0
 38 25  1  0
M  END
>  <score>  (392) 
7.74657

$$$$

     RDKit          3D

 57 59  0  0  0  0  0  0  0  0999 V2000
   27.5757   12.9265   28.5272 H   0  0  0  0  0  0  0  0  0  0  0  0
   26.5100   12.7475   28.6285 C   0  0  0  0  0  0  0  0  0  0  0  0
   25.6052   13.8032   28.4809 C   0  0  0  0  0  0  0  0  0  0  0  0
   25.9704   14.8019   28.2614 H   0  0  0  0  0  0  0  0  0  0  0  0
   24.2293   13.5704   28.6138 C   0  0  0  0  0  0  0  0  0  0  0  0
   23.5283   14.3891   28.4869 H   0  0  0  0  0  0  0  0  0  0  0  0
   23.7467   12.2832   28.8992 C   0  0  0  0  0  0  0  0  0  0  0  0
   22.2597   12.0251   29.0398 C   0  0  0  0  0  0  0  0  0  0  0  0
   21.7235   12.6771   28.3410 H   0  0  0  0  0  0  0  0  0  0  0  0
   22.0420   10.9890   28.7604 H   0  0  0  0  0  0  0  0  0  0  0  0
   21.7377   12.2718   30.4604 C   0  0  0  0  0  0  0  0  0  0  0  0
   20.6416   12.2889   30.4501 H   0  0  0  0  0  0  0  0  0  0  0  0
   22.0776   13.2511   30.8139 H   0  0  0  0  0  0  0  0  0  0  0  0
   22.2208   11.1985   31.3394 N   0  0  0  0  0  0  0  0  0  0  0  0
   23.0541   10.7247   31.0080 H   0  0  0  0  0  0  0  0  0  0  0  0
   21.3655   10.2288   31.7365 C   0  0  0  0  0  0  0  0  0  0  0  0
   21.8730    9.0689   31.3948 N   0  0  0  0  0  0  0  0  0  0  0  0
   21.1459    8.0275   31.7184 C   0  0  0  0  0  0  0  0  0  0  0  0
   21.7057    6.8831   31.2912 N   0  0  0  0  0  0  0  0  0  0  0  0
   22.5929    6.9929   30.8163 H   0  0  0  0  0  0  0  0  0  0  0  0
   20.9863    5.7306   31.1228 C   0  0  0  0  0  0  0  0  0  0  0  0
   19.8114    5.6656   31.4558 O   0  0  0  0  0  0  0  0  0  0  0  0
   21.6006    4.5685   30.3620 C   0  0  0  0  0  0  0  0  0  0  0  0
   21.6647    4.8437   29.3046 H   0  0  0  0  0  0  0  0  0  0  0  0
   20.9490    3.6941   30.4503 H   0  0  0  0  0  0  0  0  0  0  0  0
   22.9820    4.2568   30.8870 C   0  0  0  0  0  0  0  0  0  0  0  0
   23.1754    3.1518   31.7288 C   0  0  0  0  0  0  0  0  0  0  0  0
   22.3366    2.5099   31.9796 H   0  0  0  0  0  0  0  0  0  0  0  0
   24.4426    2.8603   32.2626 C   0  0  0  0  0  0  0  0  0  0  0  0
   24.6685    1.7835   33.0892 O   0  0  0  0  0  0  0  0  0  0  0  0
   23.6625    0.7626   33.1108 C   0  0  0  0  0  0  0  0  0  0  0  0
   24.0101   -0.0786   33.7173 H   0  0  0  0  0  0  0  0  0  0  0  0
   23.4597    0.3975   32.0992 H   0  0  0  0  0  0  0  0  0  0  0  0
   22.7338    1.1432   33.5450 H   0  0  0  0  0  0  0  0  0  0  0  0
   25.5181    3.7083   31.9475 C   0  0  0  0  0  0  0  0  0  0  0  0
   27.2699    3.3765   32.6456 Br  0  0  0  0  0  0  0  0  0  0  0  0
   25.3244    4.8096   31.1078 C   0  0  0  0  0  0  0  0  0  0  0  0
   26.1639    5.4513   30.8635 H   0  0  0  0  0  0  0  0  0  0  0  0
   24.0615    5.1059   30.5783 C   0  0  0  0  0  0  0  0  0  0  0  0
   23.8382    6.2091   29.7831 O   0  0  0  0  0  0  0  0  0  0  0  0
   24.9403    7.1066   29.6034 C   0  0  0  0  0  0  0  0  0  0  0  0
   24.6408    7.9389   28.9611 H   0  0  0  0  0  0  0  0  0  0  0  0
   25.2644    7.5100   30.5669 H   0  0  0  0  0  0  0  0  0  0  0  0
   25.7816    6.5902   29.1334 H   0  0  0  0  0  0  0  0  0  0  0  0
   19.9363    8.0749   32.3688 C   0  0  0  0  0  0  0  0  0  0  0  0
   19.3547    7.1955   32.6027 H   0  0  0  0  0  0  0  0  0  0  0  0
   19.4814    9.2963   32.7273 C   0  0  0  0  0  0  0  0  0  0  0  0
   18.3245    9.3301   33.4168 N   0  0  0  0  0  0  0  0  0  0  0  0
   17.7897    8.4595   33.4081 H   0  0  0  0  0  0  0  0  0  0  0  0
   18.3782    9.8418   34.2907 H   0  0  0  0  0  0  0  0  0  0  0  0
   20.1916   10.4225   32.4214 C   0  0  0  0  0  0  0  0  0  0  0  0
   19.7930   11.7261   32.8322 C   0  0  0  0  0  0  0  0  0  0  0  0
   19.5294   12.7920   33.2155 N   0  0  0  0  0  0  0  0  0  0  0  0
   24.6639   11.2305   29.0366 C   0  0  0  0  0  0  0  0  0  0  0  0
   24.2996   10.2281   29.2391 H   0  0  0  0  0  0  0  0  0  0  0  0
   26.0397   11.4595   28.9021 C   0  0  0  0  0  0  0  0  0  0  0  0
   26.7397   10.6360   29.0072 H   0  0  0  0  0  0  0  0  0  0  0  0
  1  2  1  0
  2  3  2  0
  3  4  1  0
  3  5  1  0
  5  6  1  0
  5  7  2  0
  7  8  1  0
  8  9  1  0
  8 10  1  0
  8 11  1  0
 11 12  1  0
 11 13  1  0
 11 14  1  0
 14 15  1  0
 14 16  1  0
 16 17  2  0
 17 18  1  0
 18 19  1  0
 19 20  1  0
 19 21  1  0
 21 22  2  0
 21 23  1  0
 23 24  1  0
 23 25  1  0
 23 26  1  0
 26 27  2  0
 27 28  1  0
 27 29  1  0
 29 30  1  0
 30 31  1  0
 31 32  1  0
 31 33  1  0
 31 34  1  0
 29 35  2  0
 35 36  1  0
 35 37  1  0
 37 38  1  0
 37 39  2  0
 39 40  1  0
 40 41  1  0
 41 42  1  0
 41 43  1  0
 41 44  1  0
 18 45  2  0
 45 46  1  0
 45 47  1  0
 47 48  1  0
 48 49  1  0
 48 50  1  0
 47 51  2  0
 51 52  1  0
 52 53  3  0
  7 54  1  0
 54 55  1  0
 54 56  2  0
 56 57  1  0
 56  2  1  0
 51 16  1  0
 39 26  1  0
M  END
>  <score>  (393) 
7.74928

$$$$

     RDKit          3D

 51 52  0  0  0  0  0  0  0  0999 V2000
   26.1569    5.4291   30.8403 H   0  0  0  0  0  0  0  0  0  0  0  0
   25.3160    4.7966   31.0991 C   0  0  0  0  0  0  0  0  0  0  0  0
   25.5074    3.6945   31.9388 C   0  0  0  0  0  0  0  0  0  0  0  0
   27.2593    3.3452   32.6308 Br  0  0  0  0  0  0  0  0  0  0  0  0
   24.4276    2.8609   32.2653 C   0  0  0  0  0  0  0  0  0  0  0  0
   24.6623    1.7946   33.1032 O   0  0  0  0  0  0  0  0  0  0  0  0
   23.6772    0.7508   33.1265 C   0  0  0  0  0  0  0  0  0  0  0  0
   24.0433   -0.0869   33.7307 H   0  0  0  0  0  0  0  0  0  0  0  0
   22.7390    1.1060   33.5666 H   0  0  0  0  0  0  0  0  0  0  0  0
   23.4815    0.3811   32.1136 H   0  0  0  0  0  0  0  0  0  0  0  0
   23.1612    3.1531   31.7287 C   0  0  0  0  0  0  0  0  0  0  0  0
   22.3325    2.4969   31.9756 H   0  0  0  0  0  0  0  0  0  0  0  0
   22.9676    4.2606   30.8845 C   0  0  0  0  0  0  0  0  0  0  0  0
   21.5929    4.5430   30.3141 C   0  0  0  0  0  0  0  0  0  0  0  0
   20.9584    3.6537   30.3629 H   0  0  0  0  0  0  0  0  0  0  0  0
   21.6925    4.8374   29.2628 H   0  0  0  0  0  0  0  0  0  0  0  0
   20.9097    5.6709   31.0699 C   0  0  0  0  0  0  0  0  0  0  0  0
   19.8628    5.4905   31.6645 O   0  0  0  0  0  0  0  0  0  0  0  0
   21.4527    6.9152   30.9796 N   0  0  0  0  0  0  0  0  0  0  0  0
   22.3218    7.0310   30.4883 H   0  0  0  0  0  0  0  0  0  0  0  0
   20.9640    8.0342   31.5418 C   0  0  0  0  0  0  0  0  0  0  0  0
   21.7090    9.0533   31.1762 N   0  0  0  0  0  0  0  0  0  0  0  0
   21.4001   10.2637   31.6333 C   0  0  0  0  0  0  0  0  0  0  0  0
   22.2036   11.4644   31.1923 C   0  0  0  0  0  0  0  0  0  0  0  0
   21.5377   12.0858   30.5948 H   0  0  0  0  0  0  0  0  0  0  0  0
   22.4575   12.0418   32.0784 H   0  0  0  0  0  0  0  0  0  0  0  0
   23.4872   11.2225   30.3759 C   0  0  0  0  0  0  0  0  0  0  0  0
   23.9420   12.1997   30.1658 H   0  0  0  0  0  0  0  0  0  0  0  0
   24.5172   10.3718   31.1254 C   0  0  0  0  0  0  0  0  0  0  0  0
   25.3984   10.2126   30.4939 H   0  0  0  0  0  0  0  0  0  0  0  0
   24.8406   10.8766   32.0397 H   0  0  0  0  0  0  0  0  0  0  0  0
   24.1036    9.3941   31.3905 H   0  0  0  0  0  0  0  0  0  0  0  0
   23.1419   10.5597   29.0435 C   0  0  0  0  0  0  0  0  0  0  0  0
   24.0372   10.4817   28.4192 H   0  0  0  0  0  0  0  0  0  0  0  0
   22.7396    9.5542   29.1996 H   0  0  0  0  0  0  0  0  0  0  0  0
   22.3966   11.1554   28.5080 H   0  0  0  0  0  0  0  0  0  0  0  0
   20.3125   10.4580   32.4752 C   0  0  0  0  0  0  0  0  0  0  0  0
   19.9627   11.7712   32.9121 C   0  0  0  0  0  0  0  0  0  0  0  0
   19.6819   12.8523   33.2272 N   0  0  0  0  0  0  0  0  0  0  0  0
   19.5718    9.3627   32.8503 C   0  0  0  0  0  0  0  0  0  0  0  0
   18.5242    9.4710   33.7055 N   0  0  0  0  0  0  0  0  0  0  0  0
   17.9401    8.6534   33.8801 H   0  0  0  0  0  0  0  0  0  0  0  0
   18.1760   10.4037   33.9093 H   0  0  0  0  0  0  0  0  0  0  0  0
   19.8881    8.1251   32.3849 C   0  0  0  0  0  0  0  0  0  0  0  0
   19.3092    7.2689   32.6868 H   0  0  0  0  0  0  0  0  0  0  0  0
   24.0538    5.1020   30.5687 C   0  0  0  0  0  0  0  0  0  0  0  0
   23.8398    6.1882   29.7450 O   0  0  0  0  0  0  0  0  0  0  0  0
   24.9328    7.1079   29.5906 C   0  0  0  0  0  0  0  0  0  0  0  0
   24.6042    7.9750   29.0103 H   0  0  0  0  0  0  0  0  0  0  0  0
   25.7705    6.6394   29.0599 H   0  0  0  0  0  0  0  0  0  0  0  0
   25.2835    7.4603   30.5680 H   0  0  0  0  0  0  0  0  0  0  0  0
  1  2  1  0
  2  3  2  0
  3  4  1  0
  3  5  1  0
  5  6  1  0
  6  7  1  0
  7  8  1  0
  7  9  1  0
  7 10  1  0
  5 11  2  0
 11 12  1  0
 11 13  1  0
 13 14  1  0
 14 15  1  0
 14 16  1  0
 14 17  1  0
 17 18  2  0
 17 19  1  0
 19 20  1  0
 19 21  1  0
 21 22  2  0
 22 23  1  0
 23 24  1  0
 24 25  1  0
 24 26  1  0
 24 27  1  0
 27 28  1  0
 27 29  1  0
 29 30  1  0
 29 31  1  0
 29 32  1  0
 27 33  1  0
 33 34  1  0
 33 35  1  0
 33 36  1  0
 23 37  2  0
 37 38  1  0
 38 39  3  0
 37 40  1  0
 40 41  1  0
 41 42  1  0
 41 43  1  0
 40 44  2  0
 44 45  1  0
 13 46  2  0
 46 47  1  0
 47 48  1  0
 48 49  1  0
 48 50  1  0
 48 51  1  0
 46  2  1  0
 44 21  1  0
M  END
>  <score>  (394) 
7.75236

$$$$

     RDKit          3D

 55 56  0  0  0  0  0  0  0  0999 V2000
   26.1774    5.4209   30.8459 H   0  0  0  0  0  0  0  0  0  0  0  0
   25.3367    4.7847   31.1020 C   0  0  0  0  0  0  0  0  0  0  0  0
   25.5227    3.6803   31.9450 C   0  0  0  0  0  0  0  0  0  0  0  0
   27.2738    3.3213   32.6366 Br  0  0  0  0  0  0  0  0  0  0  0  0
   24.4419    2.8464   32.2718 C   0  0  0  0  0  0  0  0  0  0  0  0
   24.6687    1.7845   33.1190 O   0  0  0  0  0  0  0  0  0  0  0  0
   23.6872    0.7398   33.1371 C   0  0  0  0  0  0  0  0  0  0  0  0
   23.4921    0.3699   32.1249 H   0  0  0  0  0  0  0  0  0  0  0  0
   22.7471    1.0873   33.5771 H   0  0  0  0  0  0  0  0  0  0  0  0
   24.0568   -0.0960   33.7388 H   0  0  0  0  0  0  0  0  0  0  0  0
   23.1792    3.1390   31.7305 C   0  0  0  0  0  0  0  0  0  0  0  0
   22.3469    2.4893   31.9826 H   0  0  0  0  0  0  0  0  0  0  0  0
   22.9887    4.2448   30.8858 C   0  0  0  0  0  0  0  0  0  0  0  0
   21.6073    4.5342   30.3402 C   0  0  0  0  0  0  0  0  0  0  0  0
   21.6951    4.8831   29.3105 H   0  0  0  0  0  0  0  0  0  0  0  0
   21.0000    3.6235   30.3328 H   0  0  0  0  0  0  0  0  0  0  0  0
   20.8979    5.6220   31.1387 C   0  0  0  0  0  0  0  0  0  0  0  0
   19.7069    5.5387   31.3786 O   0  0  0  0  0  0  0  0  0  0  0  0
   21.5627    6.7842   31.3911 N   0  0  0  0  0  0  0  0  0  0  0  0
   22.4314    6.9198   30.8981 H   0  0  0  0  0  0  0  0  0  0  0  0
   20.9825    7.9407   31.7598 C   0  0  0  0  0  0  0  0  0  0  0  0
   21.7336    8.9487   31.3575 N   0  0  0  0  0  0  0  0  0  0  0  0
   21.4252   10.2278   31.6770 C   0  0  0  0  0  0  0  0  0  0  0  0
   22.3184   11.3688   31.1801 C   0  0  0  0  0  0  0  0  0  0  0  0
   22.3538   12.4539   31.7626 O   0  0  0  0  0  0  0  0  0  0  0  0
   23.1427   11.2467   30.0590 N   0  0  0  0  0  0  0  0  0  0  0  0
   23.0060   10.4253   29.4811 H   0  0  0  0  0  0  0  0  0  0  0  0
   24.0491   12.2744   29.5567 C   0  0  0  0  0  0  0  0  0  0  0  0
   24.7040   11.8466   28.7875 H   0  0  0  0  0  0  0  0  0  0  0  0
   24.6897   12.6292   30.3685 H   0  0  0  0  0  0  0  0  0  0  0  0
   23.2617   13.4410   28.9746 C   0  0  0  0  0  0  0  0  0  0  0  0
   22.5586   13.8059   29.7280 H   0  0  0  0  0  0  0  0  0  0  0  0
   22.6770   13.0982   28.1164 H   0  0  0  0  0  0  0  0  0  0  0  0
   24.1946   14.5818   28.5572 C   0  0  0  0  0  0  0  0  0  0  0  0
   23.5960   15.4672   28.3300 H   0  0  0  0  0  0  0  0  0  0  0  0
   24.8604   14.8308   29.3874 H   0  0  0  0  0  0  0  0  0  0  0  0
   25.0413   14.2263   27.3411 C   0  0  0  0  0  0  0  0  0  0  0  0
   25.7371   13.4192   27.5810 H   0  0  0  0  0  0  0  0  0  0  0  0
   24.4091   13.9095   26.5091 H   0  0  0  0  0  0  0  0  0  0  0  0
   25.6205   15.0966   27.0227 H   0  0  0  0  0  0  0  0  0  0  0  0
   20.2948   10.4510   32.4810 C   0  0  0  0  0  0  0  0  0  0  0  0
   19.9373   11.7669   32.9021 C   0  0  0  0  0  0  0  0  0  0  0  0
   19.6649   12.8498   33.2284 N   0  0  0  0  0  0  0  0  0  0  0  0
   19.5219    9.3640   32.8607 C   0  0  0  0  0  0  0  0  0  0  0  0
   18.4339    9.4896   33.6541 N   0  0  0  0  0  0  0  0  0  0  0  0
   17.8969    8.6617   33.9137 H   0  0  0  0  0  0  0  0  0  0  0  0
   18.1447   10.4155   33.9499 H   0  0  0  0  0  0  0  0  0  0  0  0
   19.8343    8.0981   32.4794 C   0  0  0  0  0  0  0  0  0  0  0  0
   19.2200    7.2640   32.7782 H   0  0  0  0  0  0  0  0  0  0  0  0
   24.0745    5.0875   30.5689 C   0  0  0  0  0  0  0  0  0  0  0  0
   23.8502    6.1798   29.7554 O   0  0  0  0  0  0  0  0  0  0  0  0
   24.9308    7.1104   29.5917 C   0  0  0  0  0  0  0  0  0  0  0  0
   25.2675    7.4942   30.5610 H   0  0  0  0  0  0  0  0  0  0  0  0
   24.5946    7.9593   28.9896 H   0  0  0  0  0  0  0  0  0  0  0  0
   25.7803    6.6466   29.0784 H   0  0  0  0  0  0  0  0  0  0  0  0
  1  2  1  0
  2  3  2  0
  3  4  1  0
  3  5  1  0
  5  6  1  0
  6  7  1  0
  7  8  1  0
  7  9  1  0
  7 10  1  0
  5 11  2  0
 11 12  1  0
 11 13  1  0
 13 14  1  0
 14 15  1  0
 14 16  1  0
 14 17  1  0
 17 18  2  0
 17 19  1  0
 19 20  1  0
 19 21  1  0
 21 22  2  0
 22 23  1  0
 23 24  1  0
 24 25  2  0
 24 26  1  0
 26 27  1  0
 26 28  1  0
 28 29  1  0
 28 30  1  0
 28 31  1  0
 31 32  1  0
 31 33  1  0
 31 34  1  0
 34 35  1  0
 34 36  1  0
 34 37  1  0
 37 38  1  0
 37 39  1  0
 37 40  1  0
 23 41  2  0
 41 42  1  0
 42 43  3  0
 41 44  1  0
 44 45  1  0
 45 46  1  0
 45 47  1  0
 44 48  2  0
 48 49  1  0
 13 50  2  0
 50 51  1  0
 51 52  1  0
 52 53  1  0
 52 54  1  0
 52 55  1  0
 50  2  1  0
 48 21  1  0
M  END
>  <score>  (395) 
7.75306

$$$$

     RDKit          3D

 45 47  0  0  0  0  0  0  0  0999 V2000
   23.4199   14.3506   30.9422 H   0  0  0  0  0  0  0  0  0  0  0  0
   23.2205   13.2821   30.9209 C   0  0  0  0  0  0  0  0  0  0  0  0
   23.9789   12.4291   30.2780 N   0  0  0  0  0  0  0  0  0  0  0  0
   23.3866   11.2006   30.4877 C   0  0  0  0  0  0  0  0  0  0  0  0
   23.7606   10.2680   30.0775 H   0  0  0  0  0  0  0  0  0  0  0  0
   22.2818   11.3497   31.2682 C   0  0  0  0  0  0  0  0  0  0  0  0
   21.4075   10.2335   31.6932 C   0  0  0  0  0  0  0  0  0  0  0  0
   21.7389    8.9851   31.3292 N   0  0  0  0  0  0  0  0  0  0  0  0
   20.9832    7.9674   31.7111 C   0  0  0  0  0  0  0  0  0  0  0  0
   21.5603    6.7983   31.3713 N   0  0  0  0  0  0  0  0  0  0  0  0
   22.4799    6.9142   30.9792 H   0  0  0  0  0  0  0  0  0  0  0  0
   20.8951    5.6275   31.1192 C   0  0  0  0  0  0  0  0  0  0  0  0
   19.7058    5.5315   31.3995 O   0  0  0  0  0  0  0  0  0  0  0  0
   21.6187    4.5357   30.3178 C   0  0  0  0  0  0  0  0  0  0  0  0
   21.0260    3.6189   30.2956 H   0  0  0  0  0  0  0  0  0  0  0  0
   21.7341    4.8750   29.2841 H   0  0  0  0  0  0  0  0  0  0  0  0
   22.9950    4.2457   30.8817 C   0  0  0  0  0  0  0  0  0  0  0  0
   23.1785    3.1410   31.7310 C   0  0  0  0  0  0  0  0  0  0  0  0
   22.3354    2.5029   31.9794 H   0  0  0  0  0  0  0  0  0  0  0  0
   24.4409    2.8453   32.2730 C   0  0  0  0  0  0  0  0  0  0  0  0
   24.6606    1.7854   33.1258 O   0  0  0  0  0  0  0  0  0  0  0  0
   23.6936    0.7248   33.1481 C   0  0  0  0  0  0  0  0  0  0  0  0
   24.0851   -0.1031   33.7513 H   0  0  0  0  0  0  0  0  0  0  0  0
   22.7508    1.0619   33.5907 H   0  0  0  0  0  0  0  0  0  0  0  0
   23.5006    0.3522   32.1366 H   0  0  0  0  0  0  0  0  0  0  0  0
   25.5284    3.6735   31.9452 C   0  0  0  0  0  0  0  0  0  0  0  0
   27.2733    3.2836   32.6366 Br  0  0  0  0  0  0  0  0  0  0  0  0
   25.3497    4.7768   31.0980 C   0  0  0  0  0  0  0  0  0  0  0  0
   26.1994    5.4030   30.8479 H   0  0  0  0  0  0  0  0  0  0  0  0
   24.0874    5.0843   30.5667 C   0  0  0  0  0  0  0  0  0  0  0  0
   23.8673    6.1764   29.7516 O   0  0  0  0  0  0  0  0  0  0  0  0
   24.9311    7.1267   29.5813 C   0  0  0  0  0  0  0  0  0  0  0  0
   24.5714    7.9653   28.9728 H   0  0  0  0  0  0  0  0  0  0  0  0
   25.7871    6.6713   29.0729 H   0  0  0  0  0  0  0  0  0  0  0  0
   25.2620    7.5187   30.5484 H   0  0  0  0  0  0  0  0  0  0  0  0
   19.8356    8.1107   32.4460 C   0  0  0  0  0  0  0  0  0  0  0  0
   19.2399    7.2689   32.7708 H   0  0  0  0  0  0  0  0  0  0  0  0
   19.5178    9.3769   32.8394 C   0  0  0  0  0  0  0  0  0  0  0  0
   18.4568    9.5031   33.6594 N   0  0  0  0  0  0  0  0  0  0  0  0
   18.1457   10.4246   33.9567 H   0  0  0  0  0  0  0  0  0  0  0  0
   17.9349    8.6631   33.8876 H   0  0  0  0  0  0  0  0  0  0  0  0
   20.2819   10.4643   32.4787 C   0  0  0  0  0  0  0  0  0  0  0  0
   19.9378   11.7849   32.8944 C   0  0  0  0  0  0  0  0  0  0  0  0
   19.7083   12.8887   33.1873 N   0  0  0  0  0  0  0  0  0  0  0  0
   22.1594   12.6888   31.5601 O   0  0  0  0  0  0  0  0  0  0  0  0
  1  2  1  0
  2  3  2  0
  3  4  1  0
  4  5  1  0
  4  6  2  0
  6  7  1  0
  7  8  2  0
  8  9  1  0
  9 10  1  0
 10 11  1  0
 10 12  1  0
 12 13  2  0
 12 14  1  0
 14 15  1  0
 14 16  1  0
 14 17  1  0
 17 18  2  0
 18 19  1  0
 18 20  1  0
 20 21  1  0
 21 22  1  0
 22 23  1  0
 22 24  1  0
 22 25  1  0
 20 26  2  0
 26 27  1  0
 26 28  1  0
 28 29  1  0
 28 30  2  0
 30 31  1  0
 31 32  1  0
 32 33  1  0
 32 34  1  0
 32 35  1  0
  9 36  2  0
 36 37  1  0
 36 38  1  0
 38 39  1  0
 39 40  1  0
 39 41  1  0
 38 42  2  0
 42 43  1  0
 43 44  3  0
  6 45  1  0
 45  2  1  0
 42  7  1  0
 30 17  1  0
M  END
>  <score>  (396) 
7.75382

$$$$

     RDKit          3D

 53 56  0  0  0  0  0  0  0  0999 V2000
   26.1454    5.4666   30.8685 H   0  0  0  0  0  0  0  0  0  0  0  0
   25.3067    4.8249   31.1153 C   0  0  0  0  0  0  0  0  0  0  0  0
   25.5114    3.7217   31.9463 C   0  0  0  0  0  0  0  0  0  0  0  0
   27.2662    3.4166   32.6499 Br  0  0  0  0  0  0  0  0  0  0  0  0
   24.4408    2.8683   32.2559 C   0  0  0  0  0  0  0  0  0  0  0  0
   24.6741    1.7806   33.0660 O   0  0  0  0  0  0  0  0  0  0  0  0
   23.6497    0.7775   33.0948 C   0  0  0  0  0  0  0  0  0  0  0  0
   22.7288    1.1797   33.5285 H   0  0  0  0  0  0  0  0  0  0  0  0
   23.9788   -0.0685   33.7053 H   0  0  0  0  0  0  0  0  0  0  0  0
   23.4414    0.4134   32.0830 H   0  0  0  0  0  0  0  0  0  0  0  0
   23.1680    3.1644   31.7331 C   0  0  0  0  0  0  0  0  0  0  0  0
   22.3394    2.5074   31.9754 H   0  0  0  0  0  0  0  0  0  0  0  0
   22.9537    4.2839   30.9147 C   0  0  0  0  0  0  0  0  0  0  0  0
   21.5586    4.5817   30.3996 C   0  0  0  0  0  0  0  0  0  0  0  0
   20.9229    3.6979   30.4925 H   0  0  0  0  0  0  0  0  0  0  0  0
   21.6120    4.8470   29.3411 H   0  0  0  0  0  0  0  0  0  0  0  0
   20.9058    5.7319   31.1534 C   0  0  0  0  0  0  0  0  0  0  0  0
   19.7419    5.6441   31.5154 O   0  0  0  0  0  0  0  0  0  0  0  0
   21.5731    6.9099   31.3084 N   0  0  0  0  0  0  0  0  0  0  0  0
   22.4406    7.0526   30.8090 H   0  0  0  0  0  0  0  0  0  0  0  0
   20.9800    8.0320   31.7500 C   0  0  0  0  0  0  0  0  0  0  0  0
   21.6432    9.0773   31.3415 N   0  0  0  0  0  0  0  0  0  0  0  0
   21.1999   10.2846   31.6815 C   0  0  0  0  0  0  0  0  0  0  0  0
   21.9650   11.4061   31.1516 C   0  0  0  0  0  0  0  0  0  0  0  0
   21.5384   12.6817   30.8909 C   0  0  0  0  0  0  0  0  0  0  0  0
   20.5297   13.0558   31.0579 H   0  0  0  0  0  0  0  0  0  0  0  0
   22.6092   13.3648   30.3132 N   0  0  0  0  0  0  0  0  0  0  0  0
   22.5655   14.3202   29.9676 H   0  0  0  0  0  0  0  0  0  0  0  0
   23.7120   12.5283   30.1513 C   0  0  0  0  0  0  0  0  0  0  0  0
   25.0056   12.6654   29.6164 C   0  0  0  0  0  0  0  0  0  0  0  0
   25.3335   13.6016   29.1840 H   0  0  0  0  0  0  0  0  0  0  0  0
   25.9039   11.5874   29.6563 C   0  0  0  0  0  0  0  0  0  0  0  0
   26.9097   11.6953   29.2600 H   0  0  0  0  0  0  0  0  0  0  0  0
   25.4994   10.3564   30.1954 C   0  0  0  0  0  0  0  0  0  0  0  0
   26.1704    9.5028   30.2198 H   0  0  0  0  0  0  0  0  0  0  0  0
   24.2076   10.2116   30.7057 C   0  0  0  0  0  0  0  0  0  0  0  0
   23.8879    9.2654   31.1324 H   0  0  0  0  0  0  0  0  0  0  0  0
   23.3381   11.3069   30.6872 C   0  0  0  0  0  0  0  0  0  0  0  0
   20.0784   10.4583   32.4789 C   0  0  0  0  0  0  0  0  0  0  0  0
   19.6847   11.7598   32.9110 C   0  0  0  0  0  0  0  0  0  0  0  0
   19.4057   12.8311   33.2626 N   0  0  0  0  0  0  0  0  0  0  0  0
   19.4168    9.3293   32.8943 C   0  0  0  0  0  0  0  0  0  0  0  0
   18.3349    9.3985   33.7029 N   0  0  0  0  0  0  0  0  0  0  0  0
   17.9614   10.3152   33.9340 H   0  0  0  0  0  0  0  0  0  0  0  0
   17.8257    8.5464   33.9359 H   0  0  0  0  0  0  0  0  0  0  0  0
   19.8557    8.0955   32.5254 C   0  0  0  0  0  0  0  0  0  0  0  0
   19.3682    7.2007   32.8650 H   0  0  0  0  0  0  0  0  0  0  0  0
   24.0371    5.1262   30.5976 C   0  0  0  0  0  0  0  0  0  0  0  0
   23.8171    6.2288   29.8033 O   0  0  0  0  0  0  0  0  0  0  0  0
   24.9379    7.1035   29.6205 C   0  0  0  0  0  0  0  0  0  0  0  0
   24.6420    7.9690   29.0223 H   0  0  0  0  0  0  0  0  0  0  0  0
   25.7500    6.5821   29.1029 H   0  0  0  0  0  0  0  0  0  0  0  0
   25.3031    7.4581   30.5900 H   0  0  0  0  0  0  0  0  0  0  0  0
  1  2  1  0
  2  3  2  0
  3  4  1  0
  3  5  1  0
  5  6  1  0
  6  7  1  0
  7  8  1  0
  7  9  1  0
  7 10  1  0
  5 11  2  0
 11 12  1  0
 11 13  1  0
 13 14  1  0
 14 15  1  0
 14 16  1  0
 14 17  1  0
 17 18  2  0
 17 19  1  0
 19 20  1  0
 19 21  1  0
 21 22  2  0
 22 23  1  0
 23 24  1  0
 24 25  2  0
 25 26  1  0
 25 27  1  0
 27 28  1  0
 27 29  1  0
 29 30  2  0
 30 31  1  0
 30 32  1  0
 32 33  1  0
 32 34  2  0
 34 35  1  0
 34 36  1  0
 36 37  1  0
 36 38  2  0
 23 39  2  0
 39 40  1  0
 40 41  3  0
 39 42  1  0
 42 43  1  0
 43 44  1  0
 43 45  1  0
 42 46  2  0
 46 47  1  0
 13 48  2  0
 48 49  1  0
 49 50  1  0
 50 51  1  0
 50 52  1  0
 50 53  1  0
 48  2  1  0
 46 21  1  0
 38 24  1  0
 38 29  1  0
M  END
>  <score>  (397) 
7.75642

$$$$

     RDKit          3D

 56 58  0  0  0  0  0  0  0  0999 V2000
   22.0059   14.1163   29.2860 H   0  0  0  0  0  0  0  0  0  0  0  0
   22.4710   13.3246   29.8605 C   0  0  0  0  0  0  0  0  0  0  0  0
   21.6753   12.4060   30.5472 C   0  0  0  0  0  0  0  0  0  0  0  0
   20.5924   12.4914   30.5041 H   0  0  0  0  0  0  0  0  0  0  0  0
   22.2729   11.3308   31.2180 C   0  0  0  0  0  0  0  0  0  0  0  0
   21.4337   10.2270   31.6989 C   0  0  0  0  0  0  0  0  0  0  0  0
   21.7792    9.0051   31.2846 N   0  0  0  0  0  0  0  0  0  0  0  0
   21.0119    7.9912   31.5988 C   0  0  0  0  0  0  0  0  0  0  0  0
   21.5097    6.8502   31.0852 N   0  0  0  0  0  0  0  0  0  0  0  0
   22.3758    6.9533   30.5696 H   0  0  0  0  0  0  0  0  0  0  0  0
   20.9109    5.6303   31.1342 C   0  0  0  0  0  0  0  0  0  0  0  0
   19.8461    5.4741   31.7166 O   0  0  0  0  0  0  0  0  0  0  0  0
   21.5502    4.4958   30.3552 C   0  0  0  0  0  0  0  0  0  0  0  0
   20.9346    3.5973   30.4399 H   0  0  0  0  0  0  0  0  0  0  0  0
   21.5951    4.7803   29.3014 H   0  0  0  0  0  0  0  0  0  0  0  0
   22.9458    4.2382   30.8703 C   0  0  0  0  0  0  0  0  0  0  0  0
   23.1576    3.1414   31.7138 C   0  0  0  0  0  0  0  0  0  0  0  0
   22.3255    2.4897   31.9613 H   0  0  0  0  0  0  0  0  0  0  0  0
   24.4262    2.8701   32.2548 C   0  0  0  0  0  0  0  0  0  0  0  0
   24.6602    1.7932   33.0774 O   0  0  0  0  0  0  0  0  0  0  0  0
   23.6440    0.7825   33.0951 C   0  0  0  0  0  0  0  0  0  0  0  0
   22.7180    1.1773   33.5242 H   0  0  0  0  0  0  0  0  0  0  0  0
   23.9779   -0.0635   33.7024 H   0  0  0  0  0  0  0  0  0  0  0  0
   23.4407    0.4227   32.0807 H   0  0  0  0  0  0  0  0  0  0  0  0
   25.4899    3.7321   31.9448 C   0  0  0  0  0  0  0  0  0  0  0  0
   27.2477    3.4431   32.6437 Br  0  0  0  0  0  0  0  0  0  0  0  0
   25.2807    4.8257   31.1031 C   0  0  0  0  0  0  0  0  0  0  0  0
   26.1120    5.4800   30.8640 H   0  0  0  0  0  0  0  0  0  0  0  0
   24.0164    5.1025   30.5623 C   0  0  0  0  0  0  0  0  0  0  0  0
   23.7990    6.2075   29.7675 O   0  0  0  0  0  0  0  0  0  0  0  0
   24.9219    7.0880   29.6086 C   0  0  0  0  0  0  0  0  0  0  0  0
   25.2667    7.4446   30.5849 H   0  0  0  0  0  0  0  0  0  0  0  0
   24.6438    7.9533   29.0015 H   0  0  0  0  0  0  0  0  0  0  0  0
   25.7472    6.5659   29.1140 H   0  0  0  0  0  0  0  0  0  0  0  0
   19.8803    8.1026   32.3633 C   0  0  0  0  0  0  0  0  0  0  0  0
   19.2877    7.2393   32.6060 H   0  0  0  0  0  0  0  0  0  0  0  0
   19.5620    9.3419   32.8389 C   0  0  0  0  0  0  0  0  0  0  0  0
   18.5238    9.4477   33.7024 N   0  0  0  0  0  0  0  0  0  0  0  0
   17.9308    8.6337   33.8346 H   0  0  0  0  0  0  0  0  0  0  0  0
   18.1408   10.3764   33.8649 H   0  0  0  0  0  0  0  0  0  0  0  0
   20.3011   10.4402   32.4739 C   0  0  0  0  0  0  0  0  0  0  0  0
   19.9469   11.7520   32.9067 C   0  0  0  0  0  0  0  0  0  0  0  0
   19.6696   12.8270   33.2522 N   0  0  0  0  0  0  0  0  0  0  0  0
   23.6757   11.2822   31.3190 C   0  0  0  0  0  0  0  0  0  0  0  0
   24.1669   10.4950   31.8863 H   0  0  0  0  0  0  0  0  0  0  0  0
   24.4611   12.2363   30.6682 C   0  0  0  0  0  0  0  0  0  0  0  0
   25.5413   12.2002   30.7417 H   0  0  0  0  0  0  0  0  0  0  0  0
   23.8634   13.2222   29.8773 C   0  0  0  0  0  0  0  0  0  0  0  0
   24.5853   14.0937   29.1025 O   0  0  0  0  0  0  0  0  0  0  0  0
   26.0187   14.0640   29.2081 C   0  0  0  0  0  0  0  0  0  0  0  0
   26.3208   13.9907   30.2572 H   0  0  0  0  0  0  0  0  0  0  0  0
   26.3862   15.0171   28.8220 H   0  0  0  0  0  0  0  0  0  0  0  0
   26.6840   12.9462   28.4104 C   0  0  0  0  0  0  0  0  0  0  0  0
   27.7769   13.0432   28.5011 H   0  0  0  0  0  0  0  0  0  0  0  0
   26.3771   11.9697   28.7921 H   0  0  0  0  0  0  0  0  0  0  0  0
   26.3923   13.0238   27.3576 H   0  0  0  0  0  0  0  0  0  0  0  0
  1  2  1  0
  2  3  2  0
  3  4  1  0
  3  5  1  0
  5  6  1  0
  6  7  2  0
  7  8  1  0
  8  9  1  0
  9 10  1  0
  9 11  1  0
 11 12  2  0
 11 13  1  0
 13 14  1  0
 13 15  1  0
 13 16  1  0
 16 17  2  0
 17 18  1  0
 17 19  1  0
 19 20  1  0
 20 21  1  0
 21 22  1  0
 21 23  1  0
 21 24  1  0
 19 25  2  0
 25 26  1  0
 25 27  1  0
 27 28  1  0
 27 29  2  0
 29 30  1  0
 30 31  1  0
 31 32  1  0
 31 33  1  0
 31 34  1  0
  8 35  2  0
 35 36  1  0
 35 37  1  0
 37 38  1  0
 38 39  1  0
 38 40  1  0
 37 41  2  0
 41 42  1  0
 42 43  3  0
  5 44  2  0
 44 45  1  0
 44 46  1  0
 46 47  1  0
 46 48  2  0
 48 49  1  0
 49 50  1  0
 50 51  1  0
 50 52  1  0
 50 53  1  0
 53 54  1  0
 53 55  1  0
 53 56  1  0
 48  2  1  0
 41  6  1  0
 29 16  1  0
M  END
>  <score>  (398) 
7.75713

$$$$

     RDKit          3D

 52 54  0  0  0  0  0  0  0  0999 V2000
   23.4693   14.8375   27.8753 H   0  0  0  0  0  0  0  0  0  0  0  0
   24.0612   14.1129   28.4230 C   0  0  0  0  0  0  0  0  0  0  0  0
   25.3973   14.1597   28.3054 N   0  0  0  0  0  0  0  0  0  0  0  0
   26.1178   13.2240   28.9430 C   0  0  0  0  0  0  0  0  0  0  0  0
   27.2064   13.2480   28.8715 H   0  0  0  0  0  0  0  0  0  0  0  0
   25.5079   12.2030   29.6897 C   0  0  0  0  0  0  0  0  0  0  0  0
   26.1379   11.4277   30.0938 H   0  0  0  0  0  0  0  0  0  0  0  0
   24.1134   12.1536   29.8847 C   0  0  0  0  0  0  0  0  0  0  0  0
   23.4638   11.1018   30.7296 C   0  0  0  0  0  0  0  0  0  0  0  0
   24.0837   10.0961   31.0481 O   0  0  0  0  0  0  0  0  0  0  0  0
   22.1885   11.2707   31.2163 N   0  0  0  0  0  0  0  0  0  0  0  0
   21.7352   12.1635   31.1054 H   0  0  0  0  0  0  0  0  0  0  0  0
   21.4662   10.2348   31.7359 C   0  0  0  0  0  0  0  0  0  0  0  0
   21.8765    9.0257   31.4060 N   0  0  0  0  0  0  0  0  0  0  0  0
   21.1312    8.0100   31.7641 C   0  0  0  0  0  0  0  0  0  0  0  0
   21.6669    6.8602   31.3236 N   0  0  0  0  0  0  0  0  0  0  0  0
   22.5249    6.9786   30.8006 H   0  0  0  0  0  0  0  0  0  0  0  0
   20.9438    5.7184   31.1354 C   0  0  0  0  0  0  0  0  0  0  0  0
   19.7612    5.6780   31.4377 O   0  0  0  0  0  0  0  0  0  0  0  0
   21.5878    4.5734   30.3703 C   0  0  0  0  0  0  0  0  0  0  0  0
   21.6574    4.8722   29.3222 H   0  0  0  0  0  0  0  0  0  0  0  0
   20.9458    3.6938   30.4397 H   0  0  0  0  0  0  0  0  0  0  0  0
   22.9735    4.2617   30.8943 C   0  0  0  0  0  0  0  0  0  0  0  0
   23.1717    3.1519   31.7323 C   0  0  0  0  0  0  0  0  0  0  0  0
   22.3390    2.5026   31.9847 H   0  0  0  0  0  0  0  0  0  0  0  0
   24.4406    2.8566   32.2649 C   0  0  0  0  0  0  0  0  0  0  0  0
   24.6716    1.7842   33.0965 O   0  0  0  0  0  0  0  0  0  0  0  0
   23.6690    0.7597   33.1166 C   0  0  0  0  0  0  0  0  0  0  0  0
   24.0166   -0.0834   33.7203 H   0  0  0  0  0  0  0  0  0  0  0  0
   23.4682    0.3979   32.1043 H   0  0  0  0  0  0  0  0  0  0  0  0
   22.7378    1.1352   33.5487 H   0  0  0  0  0  0  0  0  0  0  0  0
   25.5179    3.7020   31.9479 C   0  0  0  0  0  0  0  0  0  0  0  0
   27.2763    3.3727   32.6411 Br  0  0  0  0  0  0  0  0  0  0  0  0
   25.3237    4.8009   31.1037 C   0  0  0  0  0  0  0  0  0  0  0  0
   26.1636    5.4413   30.8532 H   0  0  0  0  0  0  0  0  0  0  0  0
   24.0597    5.1006   30.5739 C   0  0  0  0  0  0  0  0  0  0  0  0
   23.8380    6.1951   29.7667 O   0  0  0  0  0  0  0  0  0  0  0  0
   24.9313    7.1082   29.6076 C   0  0  0  0  0  0  0  0  0  0  0  0
   25.2721    7.4696   30.5816 H   0  0  0  0  0  0  0  0  0  0  0  0
   24.6121    7.9662   29.0100 H   0  0  0  0  0  0  0  0  0  0  0  0
   25.7690    6.6209   29.1010 H   0  0  0  0  0  0  0  0  0  0  0  0
   19.9547    8.1232   32.4622 C   0  0  0  0  0  0  0  0  0  0  0  0
   19.3474    7.2676   32.7092 H   0  0  0  0  0  0  0  0  0  0  0  0
   19.5725    9.3768   32.8307 C   0  0  0  0  0  0  0  0  0  0  0  0
   18.4166    9.5063   33.5314 N   0  0  0  0  0  0  0  0  0  0  0  0
   18.1782   10.4134   33.9253 H   0  0  0  0  0  0  0  0  0  0  0  0
   17.9633    8.6697   33.8906 H   0  0  0  0  0  0  0  0  0  0  0  0
   20.3235   10.4641   32.4707 C   0  0  0  0  0  0  0  0  0  0  0  0
   19.9464   11.7824   32.8608 C   0  0  0  0  0  0  0  0  0  0  0  0
   19.7158   12.8745   33.1766 N   0  0  0  0  0  0  0  0  0  0  0  0
   23.3978   13.1537   29.2023 C   0  0  0  0  0  0  0  0  0  0  0  0
   22.3165   13.1934   29.2430 H   0  0  0  0  0  0  0  0  0  0  0  0
  1  2  1  0
  2  3  2  0
  3  4  1  0
  4  5  1  0
  4  6  2  0
  6  7  1  0
  6  8  1  0
  8  9  1  0
  9 10  2  0
  9 11  1  0
 11 12  1  0
 11 13  1  0
 13 14  2  0
 14 15  1  0
 15 16  1  0
 16 17  1  0
 16 18  1  0
 18 19  2  0
 18 20  1  0
 20 21  1  0
 20 22  1  0
 20 23  1  0
 23 24  2  0
 24 25  1  0
 24 26  1  0
 26 27  1  0
 27 28  1  0
 28 29  1  0
 28 30  1  0
 28 31  1  0
 26 32  2  0
 32 33  1  0
 32 34  1  0
 34 35  1  0
 34 36  2  0
 36 37  1  0
 37 38  1  0
 38 39  1  0
 38 40  1  0
 38 41  1  0
 15 42  2  0
 42 43  1  0
 42 44  1  0
 44 45  1  0
 45 46  1  0
 45 47  1  0
 44 48  2  0
 48 49  1  0
 49 50  3  0
  8 51  2  0
 51 52  1  0
 51  2  1  0
 48 13  1  0
 36 23  1  0
M  END
>  <score>  (399) 
7.75753

$$$$

     RDKit          3D

 58 61  0  0  0  0  0  0  0  0999 V2000
   26.0289    5.5582   30.9482 H   0  0  0  0  0  0  0  0  0  0  0  0
   25.2166    4.8720   31.1631 C   0  0  0  0  0  0  0  0  0  0  0  0
   25.4551    3.7625   31.9814 C   0  0  0  0  0  0  0  0  0  0  0  0
   27.2121    3.5056   32.7033 Br  0  0  0  0  0  0  0  0  0  0  0  0
   24.4161    2.8581   32.2515 C   0  0  0  0  0  0  0  0  0  0  0  0
   24.6577    1.7567   33.0396 O   0  0  0  0  0  0  0  0  0  0  0  0
   23.6011    0.7857   33.0802 C   0  0  0  0  0  0  0  0  0  0  0  0
   22.6938    1.2273   33.5039 H   0  0  0  0  0  0  0  0  0  0  0  0
   23.8953   -0.0669   33.6971 H   0  0  0  0  0  0  0  0  0  0  0  0
   23.3743    0.4237   32.0718 H   0  0  0  0  0  0  0  0  0  0  0  0
   23.1495    3.1063   31.7027 C   0  0  0  0  0  0  0  0  0  0  0  0
   22.3460    2.4088   31.9174 H   0  0  0  0  0  0  0  0  0  0  0  0
   22.9000    4.2164   30.8930 C   0  0  0  0  0  0  0  0  0  0  0  0
   21.4849    4.3930   30.3840 C   0  0  0  0  0  0  0  0  0  0  0  0
   21.5007    4.6275   29.3184 H   0  0  0  0  0  0  0  0  0  0  0  0
   20.9119    3.4719   30.5158 H   0  0  0  0  0  0  0  0  0  0  0  0
   20.7928    5.5234   31.1237 C   0  0  0  0  0  0  0  0  0  0  0  0
   19.7233    5.3743   31.6967 O   0  0  0  0  0  0  0  0  0  0  0  0
   21.3558    6.7522   31.0104 N   0  0  0  0  0  0  0  0  0  0  0  0
   22.1482    6.8770   30.3972 H   0  0  0  0  0  0  0  0  0  0  0  0
   20.8206    7.8936   31.4525 C   0  0  0  0  0  0  0  0  0  0  0  0
   21.4236    8.8905   30.8628 N   0  0  0  0  0  0  0  0  0  0  0  0
   21.1375   10.1331   31.2391 C   0  0  0  0  0  0  0  0  0  0  0  0
   21.8553   11.2371   30.5067 C   0  0  0  0  0  0  0  0  0  0  0  0
   21.2890   11.4783   29.6048 H   0  0  0  0  0  0  0  0  0  0  0  0
   21.8871   12.1282   31.1354 H   0  0  0  0  0  0  0  0  0  0  0  0
   23.2579   10.8457   30.1124 C   0  0  0  0  0  0  0  0  0  0  0  0
   24.1532   10.3658   31.0685 C   0  0  0  0  0  0  0  0  0  0  0  0
   23.8370   10.2633   32.1004 H   0  0  0  0  0  0  0  0  0  0  0  0
   25.4515   10.0217   30.7048 C   0  0  0  0  0  0  0  0  0  0  0  0
   26.1092    9.6649   31.4827 H   0  0  0  0  0  0  0  0  0  0  0  0
   25.9031   10.2057   29.3902 C   0  0  0  0  0  0  0  0  0  0  0  0
   27.2453    9.9960   29.0348 C   0  0  0  0  0  0  0  0  0  0  0  0
   27.9760    9.6662   29.7658 H   0  0  0  0  0  0  0  0  0  0  0  0
   27.6709   10.2275   27.7227 C   0  0  0  0  0  0  0  0  0  0  0  0
   28.7156   10.0972   27.4571 H   0  0  0  0  0  0  0  0  0  0  0  0
   26.7475   10.6299   26.7512 C   0  0  0  0  0  0  0  0  0  0  0  0
   27.0649   10.8120   25.7309 H   0  0  0  0  0  0  0  0  0  0  0  0
   25.4096   10.8289   27.0960 C   0  0  0  0  0  0  0  0  0  0  0  0
   24.6942   11.1623   26.3534 H   0  0  0  0  0  0  0  0  0  0  0  0
   24.9849   10.6453   28.4133 C   0  0  0  0  0  0  0  0  0  0  0  0
   23.6686   10.9367   28.7806 C   0  0  0  0  0  0  0  0  0  0  0  0
   22.9643   11.2867   28.0363 H   0  0  0  0  0  0  0  0  0  0  0  0
   20.1965   10.3818   32.2342 C   0  0  0  0  0  0  0  0  0  0  0  0
   19.9361   11.7084   32.6864 C   0  0  0  0  0  0  0  0  0  0  0  0
   19.7667   12.7990   33.0554 N   0  0  0  0  0  0  0  0  0  0  0  0
   19.5598    9.2984   32.8015 C   0  0  0  0  0  0  0  0  0  0  0  0
   18.6113    9.4341   33.7556 N   0  0  0  0  0  0  0  0  0  0  0  0
   18.1465   10.3399   33.7936 H   0  0  0  0  0  0  0  0  0  0  0  0
   18.0461    8.6057   33.9186 H   0  0  0  0  0  0  0  0  0  0  0  0
   19.8660    8.0264   32.4170 C   0  0  0  0  0  0  0  0  0  0  0  0
   19.4081    7.1688   32.8817 H   0  0  0  0  0  0  0  0  0  0  0  0
   23.9485    5.1261   30.6117 C   0  0  0  0  0  0  0  0  0  0  0  0
   23.7177    6.2417   29.8320 O   0  0  0  0  0  0  0  0  0  0  0  0
   24.8464    7.1109   29.6141 C   0  0  0  0  0  0  0  0  0  0  0  0
   25.6524    6.5760   29.1004 H   0  0  0  0  0  0  0  0  0  0  0  0
   24.5547    7.9660   28.9981 H   0  0  0  0  0  0  0  0  0  0  0  0
   25.2339    7.4910   30.5652 H   0  0  0  0  0  0  0  0  0  0  0  0
  1  2  1  0
  2  3  2  0
  3  4  1  0
  3  5  1  0
  5  6  1  0
  6  7  1  0
  7  8  1  0
  7  9  1  0
  7 10  1  0
  5 11  2  0
 11 12  1  0
 11 13  1  0
 13 14  1  0
 14 15  1  0
 14 16  1  0
 14 17  1  0
 17 18  2  0
 17 19  1  0
 19 20  1  0
 19 21  1  0
 21 22  2  0
 22 23  1  0
 23 24  1  0
 24 25  1  0
 24 26  1  0
 24 27  1  0
 27 28  2  0
 28 29  1  0
 28 30  1  0
 30 31  1  0
 30 32  2  0
 32 33  1  0
 33 34  1  0
 33 35  2  0
 35 36  1  0
 35 37  1  0
 37 38  1  0
 37 39  2  0
 39 40  1  0
 39 41  1  0
 41 42  2  0
 42 43  1  0
 23 44  2  0
 44 45  1  0
 45 46  3  0
 44 47  1  0
 47 48  1  0
 48 49  1  0
 48 50  1  0
 47 51  2  0
 51 52  1  0
 13 53  2  0
 53 54  1  0
 54 55  1  0
 55 56  1  0
 55 57  1  0
 55 58  1  0
 53  2  1  0
 51 21  1  0
 42 27  1  0
 41 32  1  0
M  END
>  <score>  (400) 
7.75968

$$$$

     RDKit          3D

 50 52  0  0  0  0  0  0  0  0999 V2000
   21.4644   14.2977   29.5808 H   0  0  0  0  0  0  0  0  0  0  0  0
   22.0596   13.5020   30.0118 C   0  0  0  0  0  0  0  0  0  0  0  0
   23.4455   13.5660   29.9540 C   0  0  0  0  0  0  0  0  0  0  0  0
   23.8877   14.4186   29.4600 H   0  0  0  0  0  0  0  0  0  0  0  0
   24.2357   12.5384   30.4774 C   0  0  0  0  0  0  0  0  0  0  0  0
   25.6538   12.5904   30.3001 C   0  0  0  0  0  0  0  0  0  0  0  0
   26.8022   12.6353   30.0851 N   0  0  0  0  0  0  0  0  0  0  0  0
   23.6150   11.4453   31.1064 C   0  0  0  0  0  0  0  0  0  0  0  0
   24.2238   10.6450   31.5312 H   0  0  0  0  0  0  0  0  0  0  0  0
   22.2017   11.3745   31.1751 C   0  0  0  0  0  0  0  0  0  0  0  0
   21.4829   10.2250   31.7628 C   0  0  0  0  0  0  0  0  0  0  0  0
   21.9002    8.9939   31.4349 N   0  0  0  0  0  0  0  0  0  0  0  0
   21.1418    7.9686   31.7555 C   0  0  0  0  0  0  0  0  0  0  0  0
   21.6555    6.8121   31.2947 N   0  0  0  0  0  0  0  0  0  0  0  0
   22.5691    6.8811   30.8739 H   0  0  0  0  0  0  0  0  0  0  0  0
   20.9394    5.6648   31.1137 C   0  0  0  0  0  0  0  0  0  0  0  0
   19.7768    5.6036   31.4782 O   0  0  0  0  0  0  0  0  0  0  0  0
   21.5846    4.5154   30.3451 C   0  0  0  0  0  0  0  0  0  0  0  0
   20.9546    3.6225   30.4164 H   0  0  0  0  0  0  0  0  0  0  0  0
   21.6468    4.7982   29.2902 H   0  0  0  0  0  0  0  0  0  0  0  0
   22.9754    4.2355   30.8789 C   0  0  0  0  0  0  0  0  0  0  0  0
   23.1793    3.1336   31.7199 C   0  0  0  0  0  0  0  0  0  0  0  0
   22.3462    2.4822   31.9641 H   0  0  0  0  0  0  0  0  0  0  0  0
   24.4461    2.8519   32.2578 C   0  0  0  0  0  0  0  0  0  0  0  0
   24.6733    1.7791   33.0873 O   0  0  0  0  0  0  0  0  0  0  0  0
   23.6627    0.7618   33.1120 C   0  0  0  0  0  0  0  0  0  0  0  0
   24.0040   -0.0821   33.7194 H   0  0  0  0  0  0  0  0  0  0  0  0
   22.7352    1.1483   33.5454 H   0  0  0  0  0  0  0  0  0  0  0  0
   23.4593    0.3982   32.0994 H   0  0  0  0  0  0  0  0  0  0  0  0
   25.5173    3.7047   31.9467 C   0  0  0  0  0  0  0  0  0  0  0  0
   27.2694    3.3906   32.6565 Br  0  0  0  0  0  0  0  0  0  0  0  0
   25.3164    4.8051   31.1093 C   0  0  0  0  0  0  0  0  0  0  0  0
   26.1542    5.4512   30.8732 H   0  0  0  0  0  0  0  0  0  0  0  0
   24.0519    5.0950   30.5759 C   0  0  0  0  0  0  0  0  0  0  0  0
   23.8259    6.1978   29.7816 O   0  0  0  0  0  0  0  0  0  0  0  0
   24.9315    7.0958   29.6068 C   0  0  0  0  0  0  0  0  0  0  0  0
   25.2803    7.4686   30.5755 H   0  0  0  0  0  0  0  0  0  0  0  0
   24.6221    7.9498   28.9980 H   0  0  0  0  0  0  0  0  0  0  0  0
   25.7620    6.5916   29.1019 H   0  0  0  0  0  0  0  0  0  0  0  0
   19.9650    8.0731   32.4429 C   0  0  0  0  0  0  0  0  0  0  0  0
   19.3695    7.2072   32.6826 H   0  0  0  0  0  0  0  0  0  0  0  0
   19.5858    9.3176   32.8358 C   0  0  0  0  0  0  0  0  0  0  0  0
   18.4347    9.4073   33.5269 N   0  0  0  0  0  0  0  0  0  0  0  0
   18.5512    9.1925   34.5112 H   0  0  0  0  0  0  0  0  0  0  0  0
   17.6901    8.8768   33.0921 H   0  0  0  0  0  0  0  0  0  0  0  0
   20.3207   10.4273   32.5076 C   0  0  0  0  0  0  0  0  0  0  0  0
   19.9065   11.7417   32.8945 C   0  0  0  0  0  0  0  0  0  0  0  0
   19.6082   12.8287   33.1902 N   0  0  0  0  0  0  0  0  0  0  0  0
   21.4336   12.4070   30.5960 C   0  0  0  0  0  0  0  0  0  0  0  0
   20.3437   12.3487   30.5786 H   0  0  0  0  0  0  0  0  0  0  0  0
  1  2  1  0
  2  3  2  0
  3  4  1  0
  3  5  1  0
  5  6  1  0
  6  7  3  0
  5  8  2  0
  8  9  1  0
  8 10  1  0
 10 11  1  0
 11 12  2  0
 12 13  1  0
 13 14  1  0
 14 15  1  0
 14 16  1  0
 16 17  2  0
 16 18  1  0
 18 19  1  0
 18 20  1  0
 18 21  1  0
 21 22  2  0
 22 23  1  0
 22 24  1  0
 24 25  1  0
 25 26  1  0
 26 27  1  0
 26 28  1  0
 26 29  1  0
 24 30  2  0
 30 31  1  0
 30 32  1  0
 32 33  1  0
 32 34  2  0
 34 35  1  0
 35 36  1  0
 36 37  1  0
 36 38  1  0
 36 39  1  0
 13 40  2  0
 40 41  1  0
 40 42  1  0
 42 43  1  0
 43 44  1  0
 43 45  1  0
 42 46  2  0
 46 47  1  0
 47 48  3  0
 10 49  2  0
 49 50  1  0
 49  2  1  0
 46 11  1  0
 34 21  1  0
M  END
>  <score>  (401) 
7.76103

$$$$

     RDKit          3D

 63 64  0  0  0  0  0  0  0  0999 V2000
   26.1769    5.4203   30.8455 H   0  0  0  0  0  0  0  0  0  0  0  0
   25.3340    4.7884   31.1024 C   0  0  0  0  0  0  0  0  0  0  0  0
   25.5206    3.6840   31.9433 C   0  0  0  0  0  0  0  0  0  0  0  0
   27.2710    3.3320   32.6349 Br  0  0  0  0  0  0  0  0  0  0  0  0
   24.4395    2.8501   32.2694 C   0  0  0  0  0  0  0  0  0  0  0  0
   24.6672    1.7843   33.1113 O   0  0  0  0  0  0  0  0  0  0  0  0
   23.6825    0.7423   33.1325 C   0  0  0  0  0  0  0  0  0  0  0  0
   23.4896    0.3736   32.1197 H   0  0  0  0  0  0  0  0  0  0  0  0
   22.7462    1.0962   33.5747 H   0  0  0  0  0  0  0  0  0  0  0  0
   24.0505   -0.0927   33.7359 H   0  0  0  0  0  0  0  0  0  0  0  0
   23.1746    3.1509   31.7355 C   0  0  0  0  0  0  0  0  0  0  0  0
   22.3441    2.4987   31.9822 H   0  0  0  0  0  0  0  0  0  0  0  0
   22.9800    4.2660   30.9014 C   0  0  0  0  0  0  0  0  0  0  0  0
   21.5951    4.5747   30.3665 C   0  0  0  0  0  0  0  0  0  0  0  0
   20.9757    3.6729   30.3717 H   0  0  0  0  0  0  0  0  0  0  0  0
   21.6799    4.9200   29.3339 H   0  0  0  0  0  0  0  0  0  0  0  0
   20.8994    5.6773   31.1565 C   0  0  0  0  0  0  0  0  0  0  0  0
   19.7076    5.5901   31.3979 O   0  0  0  0  0  0  0  0  0  0  0  0
   21.5684    6.8404   31.3881 N   0  0  0  0  0  0  0  0  0  0  0  0
   22.4391    6.9689   30.8919 H   0  0  0  0  0  0  0  0  0  0  0  0
   21.0018    7.9999   31.7759 C   0  0  0  0  0  0  0  0  0  0  0  0
   21.7612    8.9977   31.3753 N   0  0  0  0  0  0  0  0  0  0  0  0
   21.4090   10.2495   31.6766 C   0  0  0  0  0  0  0  0  0  0  0  0
   22.2855   11.3756   31.1865 C   0  0  0  0  0  0  0  0  0  0  0  0
   23.2895   10.9873   31.0140 H   0  0  0  0  0  0  0  0  0  0  0  0
   22.3545   12.1392   31.9663 H   0  0  0  0  0  0  0  0  0  0  0  0
   21.7269   12.0115   29.8991 C   0  0  0  0  0  0  0  0  0  0  0  0
   21.6762   11.2609   29.1044 H   0  0  0  0  0  0  0  0  0  0  0  0
   20.7057   12.3597   30.0813 H   0  0  0  0  0  0  0  0  0  0  0  0
   22.5661   13.2068   29.4180 C   0  0  0  0  0  0  0  0  0  0  0  0
   22.0017   13.7493   28.6533 H   0  0  0  0  0  0  0  0  0  0  0  0
   22.7389   13.8959   30.2499 H   0  0  0  0  0  0  0  0  0  0  0  0
   23.9106   12.7691   28.8237 C   0  0  0  0  0  0  0  0  0  0  0  0
   24.4796   12.2232   29.5803 H   0  0  0  0  0  0  0  0  0  0  0  0
   23.7388   12.0858   27.9876 H   0  0  0  0  0  0  0  0  0  0  0  0
   24.7523   13.9619   28.3485 C   0  0  0  0  0  0  0  0  0  0  0  0
   25.7585   13.6066   28.1100 H   0  0  0  0  0  0  0  0  0  0  0  0
   24.8423   14.6962   29.1538 H   0  0  0  0  0  0  0  0  0  0  0  0
   24.1799   14.6414   27.1047 C   0  0  0  0  0  0  0  0  0  0  0  0
   24.0538   13.9084   26.3044 H   0  0  0  0  0  0  0  0  0  0  0  0
   23.1993   15.0764   27.3230 H   0  0  0  0  0  0  0  0  0  0  0  0
   25.1441   15.7279   26.6313 C   0  0  0  0  0  0  0  0  0  0  0  0
   26.1365   15.3006   26.4557 H   0  0  0  0  0  0  0  0  0  0  0  0
   25.2522   16.4955   27.4015 H   0  0  0  0  0  0  0  0  0  0  0  0
   24.6162   16.3465   25.3462 C   0  0  0  0  0  0  0  0  0  0  0  0
   24.5776   15.5857   24.5653 H   0  0  0  0  0  0  0  0  0  0  0  0
   25.2772   17.1486   25.0108 H   0  0  0  0  0  0  0  0  0  0  0  0
   23.6109   16.7508   25.5055 H   0  0  0  0  0  0  0  0  0  0  0  0
   20.2855   10.5059   32.4414 C   0  0  0  0  0  0  0  0  0  0  0  0
   19.9645   11.8320   32.8523 C   0  0  0  0  0  0  0  0  0  0  0  0
   19.7496   12.9276   33.1779 N   0  0  0  0  0  0  0  0  0  0  0  0
   19.5169    9.4392   32.8332 C   0  0  0  0  0  0  0  0  0  0  0  0
   18.4305    9.6201   33.6205 N   0  0  0  0  0  0  0  0  0  0  0  0
   17.7377   10.2267   33.1984 H   0  0  0  0  0  0  0  0  0  0  0  0
   18.6858    9.9189   34.5552 H   0  0  0  0  0  0  0  0  0  0  0  0
   19.8438    8.1680   32.4875 C   0  0  0  0  0  0  0  0  0  0  0  0
   19.2102    7.3550   32.8068 H   0  0  0  0  0  0  0  0  0  0  0  0
   24.0706    5.0976   30.5776 C   0  0  0  0  0  0  0  0  0  0  0  0
   23.8510    6.1843   29.7584 O   0  0  0  0  0  0  0  0  0  0  0  0
   24.9337    7.1104   29.5931 C   0  0  0  0  0  0  0  0  0  0  0  0
   24.5984    7.9592   28.9911 H   0  0  0  0  0  0  0  0  0  0  0  0
   25.7783    6.6398   29.0789 H   0  0  0  0  0  0  0  0  0  0  0  0
   25.2663    7.4901   30.5649 H   0  0  0  0  0  0  0  0  0  0  0  0
  1  2  1  0
  2  3  2  0
  3  4  1  0
  3  5  1  0
  5  6  1  0
  6  7  1  0
  7  8  1  0
  7  9  1  0
  7 10  1  0
  5 11  2  0
 11 12  1  0
 11 13  1  0
 13 14  1  0
 14 15  1  0
 14 16  1  0
 14 17  1  0
 17 18  2  0
 17 19  1  0
 19 20  1  0
 19 21  1  0
 21 22  2  0
 22 23  1  0
 23 24  1  0
 24 25  1  0
 24 26  1  0
 24 27  1  0
 27 28  1  0
 27 29  1  0
 27 30  1  0
 30 31  1  0
 30 32  1  0
 30 33  1  0
 33 34  1  0
 33 35  1  0
 33 36  1  0
 36 37  1  0
 36 38  1  0
 36 39  1  0
 39 40  1  0
 39 41  1  0
 39 42  1  0
 42 43  1  0
 42 44  1  0
 42 45  1  0
 45 46  1  0
 45 47  1  0
 45 48  1  0
 23 49  2  0
 49 50  1  0
 50 51  3  0
 49 52  1  0
 52 53  1  0
 53 54  1  0
 53 55  1  0
 52 56  2  0
 56 57  1  0
 13 58  2  0
 58 59  1  0
 59 60  1  0
 60 61  1  0
 60 62  1  0
 60 63  1  0
 58  2  1  0
 56 21  1  0
M  END
>  <score>  (402) 
7.76137

$$$$

     RDKit          3D

 55 57  0  0  0  0  0  0  0  0999 V2000
   25.6587   12.3372   31.0592 H   0  0  0  0  0  0  0  0  0  0  0  0
   24.5787   12.3386   30.9890 C   0  0  0  0  0  0  0  0  0  0  0  0
   23.8351   11.2375   31.4307 C   0  0  0  0  0  0  0  0  0  0  0  0
   24.3595   10.3791   31.8476 H   0  0  0  0  0  0  0  0  0  0  0  0
   22.4259   11.2808   31.3826 C   0  0  0  0  0  0  0  0  0  0  0  0
   21.5676   10.1962   31.8811 C   0  0  0  0  0  0  0  0  0  0  0  0
   21.9345    8.9554   31.5777 N   0  0  0  0  0  0  0  0  0  0  0  0
   21.1215    7.9729   31.8858 C   0  0  0  0  0  0  0  0  0  0  0  0
   21.5823    6.8200   31.3804 N   0  0  0  0  0  0  0  0  0  0  0  0
   22.4221    6.9261   30.8363 H   0  0  0  0  0  0  0  0  0  0  0  0
   20.8547    5.6825   31.2046 C   0  0  0  0  0  0  0  0  0  0  0  0
   19.7078    5.6082   31.6152 O   0  0  0  0  0  0  0  0  0  0  0  0
   21.4886    4.5338   30.4356 C   0  0  0  0  0  0  0  0  0  0  0  0
   20.8643    3.6435   30.5499 H   0  0  0  0  0  0  0  0  0  0  0  0
   21.5093    4.7996   29.3771 H   0  0  0  0  0  0  0  0  0  0  0  0
   22.8982    4.2693   30.9321 C   0  0  0  0  0  0  0  0  0  0  0  0
   23.1296    3.1422   31.7305 C   0  0  0  0  0  0  0  0  0  0  0  0
   22.3136    2.4630   31.9552 H   0  0  0  0  0  0  0  0  0  0  0  0
   24.4028    2.8596   32.2541 C   0  0  0  0  0  0  0  0  0  0  0  0
   24.6456    1.7566   33.0395 O   0  0  0  0  0  0  0  0  0  0  0  0
   23.6028    0.7724   33.0863 C   0  0  0  0  0  0  0  0  0  0  0  0
   23.9162   -0.0752   33.7025 H   0  0  0  0  0  0  0  0  0  0  0  0
   23.3786    0.4053   32.0797 H   0  0  0  0  0  0  0  0  0  0  0  0
   22.6916    1.1973   33.5177 H   0  0  0  0  0  0  0  0  0  0  0  0
   25.4597    3.7394   31.9708 C   0  0  0  0  0  0  0  0  0  0  0  0
   27.2225    3.4425   32.6661 Br  0  0  0  0  0  0  0  0  0  0  0  0
   25.2361    4.8604   31.1675 C   0  0  0  0  0  0  0  0  0  0  0  0
   26.0654    5.5227   30.9449 H   0  0  0  0  0  0  0  0  0  0  0  0
   23.9654    5.1486   30.6435 C   0  0  0  0  0  0  0  0  0  0  0  0
   23.7375    6.2671   29.8713 O   0  0  0  0  0  0  0  0  0  0  0  0
   24.8778    7.1028   29.6159 C   0  0  0  0  0  0  0  0  0  0  0  0
   25.2865    7.4934   30.5534 H   0  0  0  0  0  0  0  0  0  0  0  0
   24.5877    7.9464   28.9845 H   0  0  0  0  0  0  0  0  0  0  0  0
   25.6630    6.5399   29.1008 H   0  0  0  0  0  0  0  0  0  0  0  0
   19.9445    8.1210   32.5542 C   0  0  0  0  0  0  0  0  0  0  0  0
   19.3313    7.2723   32.8028 H   0  0  0  0  0  0  0  0  0  0  0  0
   19.6011    9.3759   32.9207 C   0  0  0  0  0  0  0  0  0  0  0  0
   18.4568    9.4909   33.6321 N   0  0  0  0  0  0  0  0  0  0  0  0
   18.0330   10.4104   33.6812 H   0  0  0  0  0  0  0  0  0  0  0  0
   17.8671    8.6627   33.6921 H   0  0  0  0  0  0  0  0  0  0  0  0
   20.3807   10.4533   32.5686 C   0  0  0  0  0  0  0  0  0  0  0  0
   20.0455   11.7885   32.9284 C   0  0  0  0  0  0  0  0  0  0  0  0
   19.8680   12.9090   33.1941 N   0  0  0  0  0  0  0  0  0  0  0  0
   21.8033   12.3871   30.8101 C   0  0  0  0  0  0  0  0  0  0  0  0
   20.7178   12.3686   30.7020 H   0  0  0  0  0  0  0  0  0  0  0  0
   22.5505   13.4605   30.3198 C   0  0  0  0  0  0  0  0  0  0  0  0
   21.6551   14.7356   29.3822 S   0  0  0  0  0  0  0  0  0  0  0  0
   20.5323   14.1040   28.6826 O   0  0  0  0  0  0  0  0  0  0  0  0
   22.5388   15.4803   28.4699 O   0  0  0  0  0  0  0  0  0  0  0  0
   20.9331   15.8614   30.5789 C   0  0  0  0  0  0  0  0  0  0  0  0
   20.0225   15.4095   30.9695 H   0  0  0  0  0  0  0  0  0  0  0  0
   20.6870   16.7964   30.0691 H   0  0  0  0  0  0  0  0  0  0  0  0
   21.6245   16.0458   31.3920 H   0  0  0  0  0  0  0  0  0  0  0  0
   23.9491   13.4501   30.4361 C   0  0  0  0  0  0  0  0  0  0  0  0
   24.5709   14.2700   30.0823 H   0  0  0  0  0  0  0  0  0  0  0  0
  1  2  1  0
  2  3  2  0
  3  4  1  0
  3  5  1  0
  5  6  1  0
  6  7  2  0
  7  8  1  0
  8  9  1  0
  9 10  1  0
  9 11  1  0
 11 12  2  0
 11 13  1  0
 13 14  1  0
 13 15  1  0
 13 16  1  0
 16 17  2  0
 17 18  1  0
 17 19  1  0
 19 20  1  0
 20 21  1  0
 21 22  1  0
 21 23  1  0
 21 24  1  0
 19 25  2  0
 25 26  1  0
 25 27  1  0
 27 28  1  0
 27 29  2  0
 29 30  1  0
 30 31  1  0
 31 32  1  0
 31 33  1  0
 31 34  1  0
  8 35  2  0
 35 36  1  0
 35 37  1  0
 37 38  1  0
 38 39  1  0
 38 40  1  0
 37 41  2  0
 41 42  1  0
 42 43  3  0
  5 44  2  0
 44 45  1  0
 44 46  1  0
 46 47  1  0
 47 48  2  0
 47 49  2  0
 47 50  1  0
 50 51  1  0
 50 52  1  0
 50 53  1  0
 46 54  2  0
 54 55  1  0
 54  2  1  0
 41  6  1  0
 29 16  1  0
M  END
>  <score>  (403) 
7.762

$$$$

     RDKit          3D

 55 58  0  0  0  0  0  0  0  0999 V2000
   26.1558    5.4325   30.8447 H   0  0  0  0  0  0  0  0  0  0  0  0
   25.3131    4.8001   31.0995 C   0  0  0  0  0  0  0  0  0  0  0  0
   25.5072    3.6996   31.9405 C   0  0  0  0  0  0  0  0  0  0  0  0
   27.2608    3.3579   32.6313 Br  0  0  0  0  0  0  0  0  0  0  0  0
   24.4299    2.8605   32.2648 C   0  0  0  0  0  0  0  0  0  0  0  0
   24.6631    1.7923   33.1020 O   0  0  0  0  0  0  0  0  0  0  0  0
   23.6757    0.7518   33.1250 C   0  0  0  0  0  0  0  0  0  0  0  0
   23.4796    0.3842   32.1124 H   0  0  0  0  0  0  0  0  0  0  0  0
   24.0393   -0.0860   33.7290 H   0  0  0  0  0  0  0  0  0  0  0  0
   22.7396    1.1113   33.5634 H   0  0  0  0  0  0  0  0  0  0  0  0
   23.1625    3.1493   31.7271 C   0  0  0  0  0  0  0  0  0  0  0  0
   22.3333    2.4937   31.9732 H   0  0  0  0  0  0  0  0  0  0  0  0
   22.9649    4.2548   30.8813 C   0  0  0  0  0  0  0  0  0  0  0  0
   21.5880    4.5354   30.3152 C   0  0  0  0  0  0  0  0  0  0  0  0
   20.9589    3.6457   30.3634 H   0  0  0  0  0  0  0  0  0  0  0  0
   21.6837    4.8306   29.2643 H   0  0  0  0  0  0  0  0  0  0  0  0
   20.9019    5.6551   31.0801 C   0  0  0  0  0  0  0  0  0  0  0  0
   19.8435    5.4666   31.6610 O   0  0  0  0  0  0  0  0  0  0  0  0
   21.4520    6.8947   31.0276 N   0  0  0  0  0  0  0  0  0  0  0  0
   22.3097    7.0244   30.5096 H   0  0  0  0  0  0  0  0  0  0  0  0
   20.9546    8.0151   31.5812 C   0  0  0  0  0  0  0  0  0  0  0  0
   21.7148    9.0219   31.2390 N   0  0  0  0  0  0  0  0  0  0  0  0
   21.3907   10.2465   31.6518 C   0  0  0  0  0  0  0  0  0  0  0  0
   22.2698   11.3285   31.1802 C   0  0  0  0  0  0  0  0  0  0  0  0
   23.6536   11.2692   31.4221 C   0  0  0  0  0  0  0  0  0  0  0  0
   24.0747   10.4741   32.0317 H   0  0  0  0  0  0  0  0  0  0  0  0
   24.5114   12.2575   30.9379 C   0  0  0  0  0  0  0  0  0  0  0  0
   25.5681   12.2355   31.1736 H   0  0  0  0  0  0  0  0  0  0  0  0
   24.0180   13.2805   30.1280 C   0  0  0  0  0  0  0  0  0  0  0  0
   24.9022   14.1469   29.4716 C   0  0  0  0  0  0  0  0  0  0  0  0
   25.9768   14.0442   29.6108 H   0  0  0  0  0  0  0  0  0  0  0  0
   24.4019   15.1123   28.5930 C   0  0  0  0  0  0  0  0  0  0  0  0
   25.0907   15.7475   28.0517 H   0  0  0  0  0  0  0  0  0  0  0  0
   23.0186   15.3109   28.4737 C   0  0  0  0  0  0  0  0  0  0  0  0
   22.6367   16.0999   27.8307 H   0  0  0  0  0  0  0  0  0  0  0  0
   22.1320   14.4570   29.1463 C   0  0  0  0  0  0  0  0  0  0  0  0
   21.0589   14.5751   29.0152 H   0  0  0  0  0  0  0  0  0  0  0  0
   22.6238   13.3964   29.9246 C   0  0  0  0  0  0  0  0  0  0  0  0
   21.7583   12.4352   30.4773 C   0  0  0  0  0  0  0  0  0  0  0  0
   20.6878   12.5193   30.3106 H   0  0  0  0  0  0  0  0  0  0  0  0
   20.2797   10.4677   32.4605 C   0  0  0  0  0  0  0  0  0  0  0  0
   19.9377   11.7835   32.8916 C   0  0  0  0  0  0  0  0  0  0  0  0
   19.6731   12.8681   33.2156 N   0  0  0  0  0  0  0  0  0  0  0  0
   19.5367    9.3721   32.8453 C   0  0  0  0  0  0  0  0  0  0  0  0
   18.4887    9.4791   33.7022 N   0  0  0  0  0  0  0  0  0  0  0  0
   17.9163    8.6574   33.8975 H   0  0  0  0  0  0  0  0  0  0  0  0
   18.1437   10.4093   33.9233 H   0  0  0  0  0  0  0  0  0  0  0  0
   19.8557    8.1267   32.3910 C   0  0  0  0  0  0  0  0  0  0  0  0
   19.2779    7.2691   32.6848 H   0  0  0  0  0  0  0  0  0  0  0  0
   24.0496    5.0991   30.5687 C   0  0  0  0  0  0  0  0  0  0  0  0
   23.8358    6.1859   29.7476 O   0  0  0  0  0  0  0  0  0  0  0  0
   24.9286    7.1043   29.5937 C   0  0  0  0  0  0  0  0  0  0  0  0
   24.6086    7.9595   28.9920 H   0  0  0  0  0  0  0  0  0  0  0  0
   25.7749    6.6262   29.0887 H   0  0  0  0  0  0  0  0  0  0  0  0
   25.2597    7.4746   30.5699 H   0  0  0  0  0  0  0  0  0  0  0  0
  1  2  1  0
  2  3  2  0
  3  4  1  0
  3  5  1  0
  5  6  1  0
  6  7  1  0
  7  8  1  0
  7  9  1  0
  7 10  1  0
  5 11  2  0
 11 12  1  0
 11 13  1  0
 13 14  1  0
 14 15  1  0
 14 16  1  0
 14 17  1  0
 17 18  2  0
 17 19  1  0
 19 20  1  0
 19 21  1  0
 21 22  2  0
 22 23  1  0
 23 24  1  0
 24 25  2  0
 25 26  1  0
 25 27  1  0
 27 28  1  0
 27 29  2  0
 29 30  1  0
 30 31  1  0
 30 32  2  0
 32 33  1  0
 32 34  1  0
 34 35  1  0
 34 36  2  0
 36 37  1  0
 36 38  1  0
 38 39  2  0
 39 40  1  0
 23 41  2  0
 41 42  1  0
 42 43  3  0
 41 44  1  0
 44 45  1  0
 45 46  1  0
 45 47  1  0
 44 48  2  0
 48 49  1  0
 13 50  2  0
 50 51  1  0
 51 52  1  0
 52 53  1  0
 52 54  1  0
 52 55  1  0
 50  2  1  0
 48 21  1  0
 39 24  1  0
 38 29  1  0
M  END
>  <score>  (404) 
7.76383

$$$$

     RDKit          3D

 56 59  0  0  0  0  0  0  0  0999 V2000
   27.1796    9.9411   25.9476 H   0  0  0  0  0  0  0  0  0  0  0  0
   26.7859   10.1213   26.9426 C   0  0  0  0  0  0  0  0  0  0  0  0
   27.6239   10.0720   28.0565 C   0  0  0  0  0  0  0  0  0  0  0  0
   28.6772    9.8563   27.9004 H   0  0  0  0  0  0  0  0  0  0  0  0
   27.1004   10.2847   29.3416 C   0  0  0  0  0  0  0  0  0  0  0  0
   27.7843   10.2481   30.1827 H   0  0  0  0  0  0  0  0  0  0  0  0
   25.7254   10.5561   29.5116 C   0  0  0  0  0  0  0  0  0  0  0  0
   24.9056   10.5980   28.3880 C   0  0  0  0  0  0  0  0  0  0  0  0
   25.4259   10.3854   27.1039 C   0  0  0  0  0  0  0  0  0  0  0  0
   24.7787   10.4431   26.2367 H   0  0  0  0  0  0  0  0  0  0  0  0
   23.5583   10.8841   28.8683 C   0  0  0  0  0  0  0  0  0  0  0  0
   22.5393   10.9247   28.2019 O   0  0  0  0  0  0  0  0  0  0  0  0
   23.5360   11.0578   30.2355 N   0  0  0  0  0  0  0  0  0  0  0  0
   22.3185   11.3834   31.0420 C   0  0  0  0  0  0  0  0  0  0  0  0
   22.5863   12.0593   31.8611 H   0  0  0  0  0  0  0  0  0  0  0  0
   21.6231   11.9335   30.3955 H   0  0  0  0  0  0  0  0  0  0  0  0
   21.4915   10.2322   31.6411 C   0  0  0  0  0  0  0  0  0  0  0  0
   21.8007    8.9793   31.3059 N   0  0  0  0  0  0  0  0  0  0  0  0
   21.0451    8.0012   31.7464 C   0  0  0  0  0  0  0  0  0  0  0  0
   21.5203    6.8413   31.2814 N   0  0  0  0  0  0  0  0  0  0  0  0
   22.3652    6.9364   30.7396 H   0  0  0  0  0  0  0  0  0  0  0  0
   20.8260    5.6738   31.1960 C   0  0  0  0  0  0  0  0  0  0  0  0
   19.6853    5.5792   31.6250 O   0  0  0  0  0  0  0  0  0  0  0  0
   21.4805    4.5294   30.4334 C   0  0  0  0  0  0  0  0  0  0  0  0
   20.8748    3.6256   30.5563 H   0  0  0  0  0  0  0  0  0  0  0  0
   21.5034    4.7862   29.3701 H   0  0  0  0  0  0  0  0  0  0  0  0
   22.8946    4.2845   30.9291 C   0  0  0  0  0  0  0  0  0  0  0  0
   23.1298    3.1626   31.7352 C   0  0  0  0  0  0  0  0  0  0  0  0
   22.3121    2.4858   31.9669 H   0  0  0  0  0  0  0  0  0  0  0  0
   24.4052    2.8812   32.2521 C   0  0  0  0  0  0  0  0  0  0  0  0
   24.6441    1.7794   33.0401 O   0  0  0  0  0  0  0  0  0  0  0  0
   23.6029    0.7921   33.0780 C   0  0  0  0  0  0  0  0  0  0  0  0
   23.3859    0.4298   32.0677 H   0  0  0  0  0  0  0  0  0  0  0  0
   23.9153   -0.0581   33.6921 H   0  0  0  0  0  0  0  0  0  0  0  0
   22.6885    1.2142   33.5071 H   0  0  0  0  0  0  0  0  0  0  0  0
   25.4608    3.7565   31.9566 C   0  0  0  0  0  0  0  0  0  0  0  0
   27.2202    3.4573   32.6466 Br  0  0  0  0  0  0  0  0  0  0  0  0
   25.2318    4.8759   31.1542 C   0  0  0  0  0  0  0  0  0  0  0  0
   26.0539    5.5433   30.9271 H   0  0  0  0  0  0  0  0  0  0  0  0
   23.9609    5.1654   30.6324 C   0  0  0  0  0  0  0  0  0  0  0  0
   23.7444    6.2855   29.8561 O   0  0  0  0  0  0  0  0  0  0  0  0
   24.8937    7.1194   29.6251 C   0  0  0  0  0  0  0  0  0  0  0  0
   25.6891    6.5485   29.1346 H   0  0  0  0  0  0  0  0  0  0  0  0
   25.2800    7.5104   30.5720 H   0  0  0  0  0  0  0  0  0  0  0  0
   24.6292    7.9642   28.9839 H   0  0  0  0  0  0  0  0  0  0  0  0
   19.9596    8.1555   32.5567 C   0  0  0  0  0  0  0  0  0  0  0  0
   19.3886    7.3034   32.8891 H   0  0  0  0  0  0  0  0  0  0  0  0
   19.6401    9.4265   32.9212 C   0  0  0  0  0  0  0  0  0  0  0  0
   18.5548    9.5531   33.7284 N   0  0  0  0  0  0  0  0  0  0  0  0
   18.1819   10.4899   33.8583 H   0  0  0  0  0  0  0  0  0  0  0  0
   17.9084    8.7673   33.7067 H   0  0  0  0  0  0  0  0  0  0  0  0
   20.3894   10.4960   32.4672 C   0  0  0  0  0  0  0  0  0  0  0  0
   20.0779   11.8357   32.8449 C   0  0  0  0  0  0  0  0  0  0  0  0
   19.8983   12.9505   33.1261 N   0  0  0  0  0  0  0  0  0  0  0  0
   24.8297   10.8207   30.6599 C   0  0  0  0  0  0  0  0  0  0  0  0
   25.0947   10.7921   31.8537 O   0  0  0  0  0  0  0  0  0  0  0  0
  1  2  1  0
  2  3  2  0
  3  4  1  0
  3  5  1  0
  5  6  1  0
  5  7  2  0
  7  8  1  0
  8  9  2  0
  9 10  1  0
  8 11  1  0
 11 12  2  0
 11 13  1  0
 13 14  1  0
 14 15  1  0
 14 16  1  0
 14 17  1  0
 17 18  2  0
 18 19  1  0
 19 20  1  0
 20 21  1  0
 20 22  1  0
 22 23  2  0
 22 24  1  0
 24 25  1  0
 24 26  1  0
 24 27  1  0
 27 28  2  0
 28 29  1  0
 28 30  1  0
 30 31  1  0
 31 32  1  0
 32 33  1  0
 32 34  1  0
 32 35  1  0
 30 36  2  0
 36 37  1  0
 36 38  1  0
 38 39  1  0
 38 40  2  0
 40 41  1  0
 41 42  1  0
 42 43  1  0
 42 44  1  0
 42 45  1  0
 19 46  2  0
 46 47  1  0
 46 48  1  0
 48 49  1  0
 49 50  1  0
 49 51  1  0
 48 52  2  0
 52 53  1  0
 53 54  3  0
 13 55  1  0
 55 56  2  0
  9  2  1  0
 52 17  1  0
 55  7  1  0
 40 27  1  0
M  END
>  <score>  (405) 
7.7642

$$$$

     RDKit          3D

 45 47  0  0  0  0  0  0  0  0999 V2000
   24.6577   13.2441   29.4847 H   0  0  0  0  0  0  0  0  0  0  0  0
   23.8736   12.8091   30.0939 C   0  0  0  0  0  0  0  0  0  0  0  0
   23.3778   13.3749   31.1719 N   0  0  0  0  0  0  0  0  0  0  0  0
   22.4432   12.5466   31.7807 C   0  0  0  0  0  0  0  0  0  0  0  0
   21.9780   12.8006   32.7293 H   0  0  0  0  0  0  0  0  0  0  0  0
   22.2343   11.3543   31.1493 C   0  0  0  0  0  0  0  0  0  0  0  0
   21.3746   10.2839   31.6318 C   0  0  0  0  0  0  0  0  0  0  0  0
   21.6606    9.0751   31.1663 N   0  0  0  0  0  0  0  0  0  0  0  0
   20.9387    8.0544   31.5489 C   0  0  0  0  0  0  0  0  0  0  0  0
   21.4325    6.9410   30.9785 N   0  0  0  0  0  0  0  0  0  0  0  0
   22.3087    7.0704   30.4937 H   0  0  0  0  0  0  0  0  0  0  0  0
   20.9047    5.6911   31.0647 C   0  0  0  0  0  0  0  0  0  0  0  0
   19.8544    5.5099   31.6618 O   0  0  0  0  0  0  0  0  0  0  0  0
   21.5917    4.5562   30.3192 C   0  0  0  0  0  0  0  0  0  0  0  0
   21.6932    4.8467   29.2685 H   0  0  0  0  0  0  0  0  0  0  0  0
   20.9560    3.6705   30.3663 H   0  0  0  0  0  0  0  0  0  0  0  0
   22.9674    4.2650   30.8872 C   0  0  0  0  0  0  0  0  0  0  0  0
   23.1628    3.1532   31.7284 C   0  0  0  0  0  0  0  0  0  0  0  0
   22.3382    2.4928   31.9758 H   0  0  0  0  0  0  0  0  0  0  0  0
   24.4290    2.8578   32.2653 C   0  0  0  0  0  0  0  0  0  0  0  0
   24.6632    1.7919   33.1053 O   0  0  0  0  0  0  0  0  0  0  0  0
   23.6787    0.7491   33.1278 C   0  0  0  0  0  0  0  0  0  0  0  0
   23.4842    0.3796   32.1158 H   0  0  0  0  0  0  0  0  0  0  0  0
   24.0449   -0.0870   33.7311 H   0  0  0  0  0  0  0  0  0  0  0  0
   22.7418    1.1030   33.5683 H   0  0  0  0  0  0  0  0  0  0  0  0
   25.5085    3.6928   31.9395 C   0  0  0  0  0  0  0  0  0  0  0  0
   27.2608    3.3463   32.6312 Br  0  0  0  0  0  0  0  0  0  0  0  0
   25.3183    4.7965   31.0994 C   0  0  0  0  0  0  0  0  0  0  0  0
   26.1582    5.4312   30.8400 H   0  0  0  0  0  0  0  0  0  0  0  0
   24.0558    5.1011   30.5697 C   0  0  0  0  0  0  0  0  0  0  0  0
   23.8405    6.1842   29.7443 O   0  0  0  0  0  0  0  0  0  0  0  0
   24.9300    7.1064   29.5923 C   0  0  0  0  0  0  0  0  0  0  0  0
   25.7778    6.6349   29.0836 H   0  0  0  0  0  0  0  0  0  0  0  0
   24.6066    7.9608   28.9928 H   0  0  0  0  0  0  0  0  0  0  0  0
   25.2593    7.4788   30.5682 H   0  0  0  0  0  0  0  0  0  0  0  0
   19.8806    8.1543   32.4068 C   0  0  0  0  0  0  0  0  0  0  0  0
   19.2960    7.3007   32.6937 H   0  0  0  0  0  0  0  0  0  0  0  0
   19.5761    9.3924   32.8780 C   0  0  0  0  0  0  0  0  0  0  0  0
   18.5224    9.4876   33.7230 N   0  0  0  0  0  0  0  0  0  0  0  0
   18.1634   10.4159   33.9277 H   0  0  0  0  0  0  0  0  0  0  0  0
   17.9389    8.6640   33.8786 H   0  0  0  0  0  0  0  0  0  0  0  0
   20.3186   10.4923   32.5059 C   0  0  0  0  0  0  0  0  0  0  0  0
   19.9797   11.8079   32.9406 C   0  0  0  0  0  0  0  0  0  0  0  0
   19.7054   12.8952   33.2409 N   0  0  0  0  0  0  0  0  0  0  0  0
   23.2271   11.2304   29.7128 S   0  0  0  0  0  0  0  0  0  0  0  0
  1  2  1  0
  2  3  2  0
  3  4  1  0
  4  5  1  0
  4  6  2  0
  6  7  1  0
  7  8  2  0
  8  9  1  0
  9 10  1  0
 10 11  1  0
 10 12  1  0
 12 13  2  0
 12 14  1  0
 14 15  1  0
 14 16  1  0
 14 17  1  0
 17 18  2  0
 18 19  1  0
 18 20  1  0
 20 21  1  0
 21 22  1  0
 22 23  1  0
 22 24  1  0
 22 25  1  0
 20 26  2  0
 26 27  1  0
 26 28  1  0
 28 29  1  0
 28 30  2  0
 30 31  1  0
 31 32  1  0
 32 33  1  0
 32 34  1  0
 32 35  1  0
  9 36  2  0
 36 37  1  0
 36 38  1  0
 38 39  1  0
 39 40  1  0
 39 41  1  0
 38 42  2  0
 42 43  1  0
 43 44  3  0
  6 45  1  0
 45  2  1  0
 42  7  1  0
 30 17  1  0
M  END
>  <score>  (406) 
7.76437

$$$$

     RDKit          3D

 53 55  0  0  0  0  0  0  0  0999 V2000
   25.5267   12.2054   31.1933 H   0  0  0  0  0  0  0  0  0  0  0  0
   24.4691   12.2431   30.9639 C   0  0  0  0  0  0  0  0  0  0  0  0
   23.6207   11.2311   31.4252 C   0  0  0  0  0  0  0  0  0  0  0  0
   24.0421   10.3883   31.9786 H   0  0  0  0  0  0  0  0  0  0  0  0
   22.2381   11.3135   31.1913 C   0  0  0  0  0  0  0  0  0  0  0  0
   21.3650   10.2232   31.6380 C   0  0  0  0  0  0  0  0  0  0  0  0
   21.6980    9.0018   31.2251 N   0  0  0  0  0  0  0  0  0  0  0  0
   20.9406    7.9983   31.5767 C   0  0  0  0  0  0  0  0  0  0  0  0
   21.4482    6.8849   31.0314 N   0  0  0  0  0  0  0  0  0  0  0  0
   22.3190    7.0250   30.5357 H   0  0  0  0  0  0  0  0  0  0  0  0
   20.9020    5.6439   31.1006 C   0  0  0  0  0  0  0  0  0  0  0  0
   19.8416    5.4612   31.6794 O   0  0  0  0  0  0  0  0  0  0  0  0
   21.5820    4.5260   30.3263 C   0  0  0  0  0  0  0  0  0  0  0  0
   21.6676    4.8262   29.2771 H   0  0  0  0  0  0  0  0  0  0  0  0
   20.9554    3.6344   30.3745 H   0  0  0  0  0  0  0  0  0  0  0  0
   22.9639    4.2465   30.8763 C   0  0  0  0  0  0  0  0  0  0  0  0
   23.1632    3.1443   31.7240 C   0  0  0  0  0  0  0  0  0  0  0  0
   22.3327    2.4908   31.9727 H   0  0  0  0  0  0  0  0  0  0  0  0
   24.4299    2.8617   32.2644 C   0  0  0  0  0  0  0  0  0  0  0  0
   24.6628    1.7923   33.0990 O   0  0  0  0  0  0  0  0  0  0  0  0
   23.6702    0.7573   33.1196 C   0  0  0  0  0  0  0  0  0  0  0  0
   24.0294   -0.0819   33.7241 H   0  0  0  0  0  0  0  0  0  0  0  0
   22.7357    1.1236   33.5558 H   0  0  0  0  0  0  0  0  0  0  0  0
   23.4729    0.3922   32.1062 H   0  0  0  0  0  0  0  0  0  0  0  0
   25.5035    3.7072   31.9429 C   0  0  0  0  0  0  0  0  0  0  0  0
   27.2582    3.3726   32.6326 Br  0  0  0  0  0  0  0  0  0  0  0  0
   25.3069    4.8050   31.0995 C   0  0  0  0  0  0  0  0  0  0  0  0
   26.1455    5.4432   30.8456 H   0  0  0  0  0  0  0  0  0  0  0  0
   24.0447    5.0969   30.5641 C   0  0  0  0  0  0  0  0  0  0  0  0
   23.8298    6.1890   29.7502 O   0  0  0  0  0  0  0  0  0  0  0  0
   24.9280    7.1011   29.5958 C   0  0  0  0  0  0  0  0  0  0  0  0
   25.7712    6.6139   29.0944 H   0  0  0  0  0  0  0  0  0  0  0  0
   25.2611    7.4661   30.5730 H   0  0  0  0  0  0  0  0  0  0  0  0
   24.6159    7.9595   28.9932 H   0  0  0  0  0  0  0  0  0  0  0  0
   19.8430    8.1055   32.3891 C   0  0  0  0  0  0  0  0  0  0  0  0
   19.2674    7.2476   32.6857 H   0  0  0  0  0  0  0  0  0  0  0  0
   19.5289    9.3511   32.8428 C   0  0  0  0  0  0  0  0  0  0  0  0
   18.5044    9.4679   33.7184 N   0  0  0  0  0  0  0  0  0  0  0  0
   17.9175    8.6541   33.8845 H   0  0  0  0  0  0  0  0  0  0  0  0
   18.1480   10.4008   33.9058 H   0  0  0  0  0  0  0  0  0  0  0  0
   20.2601   10.4439   32.4484 C   0  0  0  0  0  0  0  0  0  0  0  0
   19.9298   11.7599   32.8847 C   0  0  0  0  0  0  0  0  0  0  0  0
   19.6821   12.8458   33.2186 N   0  0  0  0  0  0  0  0  0  0  0  0
   21.7168   12.4318   30.5151 C   0  0  0  0  0  0  0  0  0  0  0  0
   20.6465   12.5279   30.3389 H   0  0  0  0  0  0  0  0  0  0  0  0
   22.5793   13.4118   30.0076 C   0  0  0  0  0  0  0  0  0  0  0  0
   22.0469   14.4441   29.3157 F   0  0  0  0  0  0  0  0  0  0  0  0
   23.9707   13.3072   30.1902 C   0  0  0  0  0  0  0  0  0  0  0  0
   24.7925   14.2375   29.5891 O   0  0  0  0  0  0  0  0  0  0  0  0
   26.1596   13.8520   29.3964 C   0  0  0  0  0  0  0  0  0  0  0  0
   26.6334   13.6927   30.3601 H   0  0  0  0  0  0  0  0  0  0  0  0
   26.2609   12.9213   28.8227 H   0  0  0  0  0  0  0  0  0  0  0  0
   26.6807   14.6635   28.8743 H   0  0  0  0  0  0  0  0  0  0  0  0
  1  2  1  0
  2  3  2  0
  3  4  1  0
  3  5  1  0
  5  6  1  0
  6  7  2  0
  7  8  1  0
  8  9  1  0
  9 10  1  0
  9 11  1  0
 11 12  2  0
 11 13  1  0
 13 14  1  0
 13 15  1  0
 13 16  1  0
 16 17  2  0
 17 18  1  0
 17 19  1  0
 19 20  1  0
 20 21  1  0
 21 22  1  0
 21 23  1  0
 21 24  1  0
 19 25  2  0
 25 26  1  0
 25 27  1  0
 27 28  1  0
 27 29  2  0
 29 30  1  0
 30 31  1  0
 31 32  1  0
 31 33  1  0
 31 34  1  0
  8 35  2  0
 35 36  1  0
 35 37  1  0
 37 38  1  0
 38 39  1  0
 38 40  1  0
 37 41  2  0
 41 42  1  0
 42 43  3  0
  5 44  2  0
 44 45  1  0
 44 46  1  0
 46 47  1  0
 46 48  2  0
 48 49  1  0
 49 50  1  0
 50 51  1  0
 50 52  1  0
 50 53  1  0
 48  2  1  0
 41  6  1  0
 29 16  1  0
M  END
>  <score>  (407) 
7.76743

$$$$

     RDKit          3D

 48 50  0  0  0  0  0  0  0  0999 V2000
   22.2198   12.1862   32.0170 H   0  0  0  0  0  0  0  0  0  0  0  0
   22.2176   11.3649   31.3105 C   0  0  0  0  0  0  0  0  0  0  0  0
   22.9661   11.4637   30.1403 C   0  0  0  0  0  0  0  0  0  0  0  0
   22.9414   10.2169   28.8975 S   0  0  0  0  0  0  0  0  0  0  0  0
   24.0764   11.1580   27.9296 C   0  0  0  0  0  0  0  0  0  0  0  0
   24.9127   10.5810   26.6076 S   0  0  0  0  0  0  0  0  0  0  0  0
   24.3532   12.4042   28.4574 N   0  0  0  0  0  0  0  0  0  0  0  0
   25.1773   12.9211   28.1706 H   0  0  0  0  0  0  0  0  0  0  0  0
   23.8310   12.5830   29.7099 C   0  0  0  0  0  0  0  0  0  0  0  0
   24.2216   13.5219   30.3905 O   0  0  0  0  0  0  0  0  0  0  0  0
   21.3769   10.2212   31.7087 C   0  0  0  0  0  0  0  0  0  0  0  0
   21.7648    9.0009   31.3456 N   0  0  0  0  0  0  0  0  0  0  0  0
   21.0340    7.9804   31.7296 C   0  0  0  0  0  0  0  0  0  0  0  0
   21.5974    6.8311   31.3144 N   0  0  0  0  0  0  0  0  0  0  0  0
   22.4586    6.9474   30.8059 H   0  0  0  0  0  0  0  0  0  0  0  0
   20.9115    5.6707   31.1375 C   0  0  0  0  0  0  0  0  0  0  0  0
   19.7233    5.6050   31.4109 O   0  0  0  0  0  0  0  0  0  0  0  0
   21.5885    4.5541   30.3606 C   0  0  0  0  0  0  0  0  0  0  0  0
   21.6642    4.8827   29.3208 H   0  0  0  0  0  0  0  0  0  0  0  0
   20.9662    3.6598   30.4055 H   0  0  0  0  0  0  0  0  0  0  0  0
   22.9721    4.2511   30.8947 C   0  0  0  0  0  0  0  0  0  0  0  0
   23.1755    3.1427   31.7335 C   0  0  0  0  0  0  0  0  0  0  0  0
   22.3416    2.4924   31.9830 H   0  0  0  0  0  0  0  0  0  0  0  0
   24.4465    2.8556   32.2669 C   0  0  0  0  0  0  0  0  0  0  0  0
   24.6723    1.7855   33.1035 O   0  0  0  0  0  0  0  0  0  0  0  0
   23.6745    0.7532   33.1232 C   0  0  0  0  0  0  0  0  0  0  0  0
   23.4750    0.3918   32.1100 H   0  0  0  0  0  0  0  0  0  0  0  0
   24.0273   -0.0907   33.7260 H   0  0  0  0  0  0  0  0  0  0  0  0
   22.7393    1.1221   33.5546 H   0  0  0  0  0  0  0  0  0  0  0  0
   25.5222    3.7011   31.9449 C   0  0  0  0  0  0  0  0  0  0  0  0
   27.2763    3.3637   32.6402 Br  0  0  0  0  0  0  0  0  0  0  0  0
   25.3225    4.7979   31.1012 C   0  0  0  0  0  0  0  0  0  0  0  0
   26.1644    5.4346   30.8516 H   0  0  0  0  0  0  0  0  0  0  0  0
   24.0555    5.0956   30.5755 C   0  0  0  0  0  0  0  0  0  0  0  0
   23.8370    6.1901   29.7659 O   0  0  0  0  0  0  0  0  0  0  0  0
   24.9306    7.1041   29.5968 C   0  0  0  0  0  0  0  0  0  0  0  0
   25.7779    6.6116   29.1107 H   0  0  0  0  0  0  0  0  0  0  0  0
   25.2607    7.4880   30.5660 H   0  0  0  0  0  0  0  0  0  0  0  0
   24.6154    7.9492   28.9770 H   0  0  0  0  0  0  0  0  0  0  0  0
   19.8795    8.0931   32.4675 C   0  0  0  0  0  0  0  0  0  0  0  0
   19.2958    7.2362   32.7531 H   0  0  0  0  0  0  0  0  0  0  0  0
   19.5127    9.3402   32.8691 C   0  0  0  0  0  0  0  0  0  0  0  0
   18.4242    9.4711   33.6642 N   0  0  0  0  0  0  0  0  0  0  0  0
   18.1121   10.3989   33.9405 H   0  0  0  0  0  0  0  0  0  0  0  0
   17.8872    8.6432   33.9022 H   0  0  0  0  0  0  0  0  0  0  0  0
   20.2550   10.4278   32.5016 C   0  0  0  0  0  0  0  0  0  0  0  0
   19.8977   11.7419   32.9222 C   0  0  0  0  0  0  0  0  0  0  0  0
   19.6726   12.8249   33.2744 N   0  0  0  0  0  0  0  0  0  0  0  0
  1  2  1  0
  2  3  2  3
  3  4  1  0
  4  5  1  0
  5  6  2  0
  5  7  1  0
  7  8  1  0
  7  9  1  0
  9 10  2  0
  2 11  1  0
 11 12  2  0
 12 13  1  0
 13 14  1  0
 14 15  1  0
 14 16  1  0
 16 17  2  0
 16 18  1  0
 18 19  1  0
 18 20  1  0
 18 21  1  0
 21 22  2  0
 22 23  1  0
 22 24  1  0
 24 25  1  0
 25 26  1  0
 26 27  1  0
 26 28  1  0
 26 29  1  0
 24 30  2  0
 30 31  1  0
 30 32  1  0
 32 33  1  0
 32 34  2  0
 34 35  1  0
 35 36  1  0
 36 37  1  0
 36 38  1  0
 36 39  1  0
 13 40  2  0
 40 41  1  0
 40 42  1  0
 42 43  1  0
 43 44  1  0
 43 45  1  0
 42 46  2  0
 46 47  1  0
 47 48  3  0
  9  3  1  0
 46 11  1  0
 34 21  1  0
M  END
>  <score>  (408) 
7.76959

$$$$

     RDKit          3D

 54 56  0  0  0  0  0  0  0  0999 V2000
   26.0694    5.5537   30.9675 H   0  0  0  0  0  0  0  0  0  0  0  0
   25.2577    4.8638   31.1679 C   0  0  0  0  0  0  0  0  0  0  0  0
   25.4864    3.7464   31.9769 C   0  0  0  0  0  0  0  0  0  0  0  0
   27.2273    3.4902   32.7294 Br  0  0  0  0  0  0  0  0  0  0  0  0
   24.4425    2.8437   32.2336 C   0  0  0  0  0  0  0  0  0  0  0  0
   24.6657    1.7382   33.0208 O   0  0  0  0  0  0  0  0  0  0  0  0
   23.5906    0.7869   33.0691 C   0  0  0  0  0  0  0  0  0  0  0  0
   23.8704   -0.0678   33.6902 H   0  0  0  0  0  0  0  0  0  0  0  0
   23.3575    0.4241   32.0624 H   0  0  0  0  0  0  0  0  0  0  0  0
   22.6913    1.2465   33.4920 H   0  0  0  0  0  0  0  0  0  0  0  0
   23.1812    3.1031   31.6817 C   0  0  0  0  0  0  0  0  0  0  0  0
   22.3692    2.4114   31.8857 H   0  0  0  0  0  0  0  0  0  0  0  0
   22.9441    4.2231   30.8842 C   0  0  0  0  0  0  0  0  0  0  0  0
   21.5291    4.4380   30.3993 C   0  0  0  0  0  0  0  0  0  0  0  0
   21.5267    4.6623   29.3303 H   0  0  0  0  0  0  0  0  0  0  0  0
   20.9365    3.5318   30.5625 H   0  0  0  0  0  0  0  0  0  0  0  0
   20.8835    5.5924   31.1539 C   0  0  0  0  0  0  0  0  0  0  0  0
   19.7371    5.5107   31.5672 O   0  0  0  0  0  0  0  0  0  0  0  0
   21.5788    6.7574   31.2894 N   0  0  0  0  0  0  0  0  0  0  0  0
   22.4790    6.8426   30.8378 H   0  0  0  0  0  0  0  0  0  0  0  0
   21.0612    7.9106   31.7525 C   0  0  0  0  0  0  0  0  0  0  0  0
   21.8489    8.9206   31.4719 N   0  0  0  0  0  0  0  0  0  0  0  0
   21.4505   10.1615   31.7829 C   0  0  0  0  0  0  0  0  0  0  0  0
   22.3005   11.2506   31.2540 C   0  0  0  0  0  0  0  0  0  0  0  0
   21.7395   12.3753   30.6183 C   0  0  0  0  0  0  0  0  0  0  0  0
   20.6592   12.5096   30.6009 H   0  0  0  0  0  0  0  0  0  0  0  0
   22.5528   13.2838   29.9226 C   0  0  0  0  0  0  0  0  0  0  0  0
   22.0716   14.0993   29.3835 H   0  0  0  0  0  0  0  0  0  0  0  0
   23.9503   13.1056   29.8599 C   0  0  0  0  0  0  0  0  0  0  0  0
   24.8132   13.9933   29.0598 C   0  0  0  0  0  0  0  0  0  0  0  0
   24.3423   14.9346   28.4244 O   0  0  0  0  0  0  0  0  0  0  0  0
   26.2942   13.6629   28.9081 C   0  0  0  0  0  0  0  0  0  0  0  0
   26.3882   12.6196   28.6012 H   0  0  0  0  0  0  0  0  0  0  0  0
   26.8350   13.8096   29.8494 H   0  0  0  0  0  0  0  0  0  0  0  0
   26.7435   14.2892   28.1379 H   0  0  0  0  0  0  0  0  0  0  0  0
   24.5082   12.0151   30.5483 C   0  0  0  0  0  0  0  0  0  0  0  0
   25.5779   11.8350   30.5131 H   0  0  0  0  0  0  0  0  0  0  0  0
   23.7002   11.1133   31.2405 C   0  0  0  0  0  0  0  0  0  0  0  0
   24.1710   10.2656   31.7316 H   0  0  0  0  0  0  0  0  0  0  0  0
   20.2508   10.3863   32.4644 C   0  0  0  0  0  0  0  0  0  0  0  0
   19.7950   11.6942   32.8009 C   0  0  0  0  0  0  0  0  0  0  0  0
   19.4397   12.7723   33.0683 N   0  0  0  0  0  0  0  0  0  0  0  0
   19.4844    9.2834   32.7556 C   0  0  0  0  0  0  0  0  0  0  0  0
   18.3125    9.3221   33.4140 N   0  0  0  0  0  0  0  0  0  0  0  0
   17.9589    8.4034   33.6691 H   0  0  0  0  0  0  0  0  0  0  0  0
   18.2065   10.0643   34.0975 H   0  0  0  0  0  0  0  0  0  0  0  0
   19.8614    8.0351   32.3870 C   0  0  0  0  0  0  0  0  0  0  0  0
   19.2383    7.1797   32.5949 H   0  0  0  0  0  0  0  0  0  0  0  0
   23.9949    5.1275   30.6129 C   0  0  0  0  0  0  0  0  0  0  0  0
   23.7679    6.2488   29.8424 O   0  0  0  0  0  0  0  0  0  0  0  0
   24.9133    7.0877   29.6166 C   0  0  0  0  0  0  0  0  0  0  0  0
   25.7051    6.5236   29.1132 H   0  0  0  0  0  0  0  0  0  0  0  0
   25.3057    7.4634   30.5671 H   0  0  0  0  0  0  0  0  0  0  0  0
   24.6442    7.9427   28.9912 H   0  0  0  0  0  0  0  0  0  0  0  0
  1  2  1  0
  2  3  2  0
  3  4  1  0
  3  5  1  0
  5  6  1  0
  6  7  1  0
  7  8  1  0
  7  9  1  0
  7 10  1  0
  5 11  2  0
 11 12  1  0
 11 13  1  0
 13 14  1  0
 14 15  1  0
 14 16  1  0
 14 17  1  0
 17 18  2  0
 17 19  1  0
 19 20  1  0
 19 21  1  0
 21 22  2  0
 22 23  1  0
 23 24  1  0
 24 25  2  0
 25 26  1  0
 25 27  1  0
 27 28  1  0
 27 29  2  0
 29 30  1  0
 30 31  2  0
 30 32  1  0
 32 33  1  0
 32 34  1  0
 32 35  1  0
 29 36  1  0
 36 37  1  0
 36 38  2  0
 38 39  1  0
 23 40  2  0
 40 41  1  0
 41 42  3  0
 40 43  1  0
 43 44  1  0
 44 45  1  0
 44 46  1  0
 43 47  2  0
 47 48  1  0
 13 49  2  0
 49 50  1  0
 50 51  1  0
 51 52  1  0
 51 53  1  0
 51 54  1  0
 49  2  1  0
 47 21  1  0
 38 24  1  0
M  END
>  <score>  (409) 
7.76988

$$$$

     RDKit          3D

 57 59  0  0  0  0  0  0  0  0999 V2000
   26.1448    5.4410   30.8433 H   0  0  0  0  0  0  0  0  0  0  0  0
   25.3025    4.8075   31.0979 C   0  0  0  0  0  0  0  0  0  0  0  0
   25.5028    3.7117   31.9407 C   0  0  0  0  0  0  0  0  0  0  0  0
   27.2579    3.3720   32.6319 Br  0  0  0  0  0  0  0  0  0  0  0  0
   24.4277    2.8678   32.2631 C   0  0  0  0  0  0  0  0  0  0  0  0
   24.6614    1.7962   33.0944 O   0  0  0  0  0  0  0  0  0  0  0  0
   23.6687    0.7595   33.1181 C   0  0  0  0  0  0  0  0  0  0  0  0
   22.7336    1.1265   33.5526 H   0  0  0  0  0  0  0  0  0  0  0  0
   23.4702    0.3945   32.1052 H   0  0  0  0  0  0  0  0  0  0  0  0
   24.0274   -0.0814   33.7230 H   0  0  0  0  0  0  0  0  0  0  0  0
   23.1578    3.1514   31.7277 C   0  0  0  0  0  0  0  0  0  0  0  0
   22.3268    2.4965   31.9734 H   0  0  0  0  0  0  0  0  0  0  0  0
   22.9564    4.2526   30.8811 C   0  0  0  0  0  0  0  0  0  0  0  0
   21.5805    4.5269   30.3217 C   0  0  0  0  0  0  0  0  0  0  0  0
   21.6687    4.8223   29.2714 H   0  0  0  0  0  0  0  0  0  0  0  0
   20.9525    3.6380   30.3769 H   0  0  0  0  0  0  0  0  0  0  0  0
   20.9050    5.6465   31.0934 C   0  0  0  0  0  0  0  0  0  0  0  0
   19.8535    5.4655   31.6850 O   0  0  0  0  0  0  0  0  0  0  0  0
   21.4472    6.8865   31.0132 N   0  0  0  0  0  0  0  0  0  0  0  0
   22.3218    7.0073   30.5208 H   0  0  0  0  0  0  0  0  0  0  0  0
   20.9454    8.0089   31.5519 C   0  0  0  0  0  0  0  0  0  0  0  0
   21.6938    9.0207   31.1920 N   0  0  0  0  0  0  0  0  0  0  0  0
   21.3897   10.2349   31.6471 C   0  0  0  0  0  0  0  0  0  0  0  0
   22.2760   11.3903   31.1940 C   0  0  0  0  0  0  0  0  0  0  0  0
   22.1719   12.2043   31.9191 H   0  0  0  0  0  0  0  0  0  0  0  0
   21.8219   11.8837   29.8023 C   0  0  0  0  0  0  0  0  0  0  0  0
   20.7871   12.2412   29.8545 H   0  0  0  0  0  0  0  0  0  0  0  0
   21.8594   11.0440   29.0985 H   0  0  0  0  0  0  0  0  0  0  0  0
   22.7239   13.0080   29.2718 C   0  0  0  0  0  0  0  0  0  0  0  0
   22.4045   13.2882   28.2623 H   0  0  0  0  0  0  0  0  0  0  0  0
   22.6142   13.8904   29.9123 H   0  0  0  0  0  0  0  0  0  0  0  0
   24.1371   12.5770   29.2668 N   0  0  0  0  0  0  0  0  0  0  0  0
   24.5380   11.6653   28.1788 C   0  0  0  0  0  0  0  0  0  0  0  0
   25.6046   11.4328   28.2595 H   0  0  0  0  0  0  0  0  0  0  0  0
   24.3740   12.1353   27.2064 H   0  0  0  0  0  0  0  0  0  0  0  0
   23.9678   10.7305   28.2275 H   0  0  0  0  0  0  0  0  0  0  0  0
   24.6180   12.1799   30.6004 C   0  0  0  0  0  0  0  0  0  0  0  0
   24.5496   13.0258   31.2939 H   0  0  0  0  0  0  0  0  0  0  0  0
   25.6679   11.8860   30.5375 H   0  0  0  0  0  0  0  0  0  0  0  0
   23.7752   11.0058   31.1143 C   0  0  0  0  0  0  0  0  0  0  0  0
   24.1426   10.6890   32.0949 H   0  0  0  0  0  0  0  0  0  0  0  0
   23.8933   10.1626   30.4241 H   0  0  0  0  0  0  0  0  0  0  0  0
   20.2951   10.4382   32.4827 C   0  0  0  0  0  0  0  0  0  0  0  0
   19.9578   11.7531   32.9233 C   0  0  0  0  0  0  0  0  0  0  0  0
   19.6952   12.8389   33.2372 N   0  0  0  0  0  0  0  0  0  0  0  0
   19.5529    9.3491   32.8656 C   0  0  0  0  0  0  0  0  0  0  0  0
   18.5203    9.4707   33.7369 N   0  0  0  0  0  0  0  0  0  0  0  0
   18.1527   10.4025   33.9133 H   0  0  0  0  0  0  0  0  0  0  0  0
   17.9260    8.6579   33.8808 H   0  0  0  0  0  0  0  0  0  0  0  0
   19.8586    8.1110   32.3870 C   0  0  0  0  0  0  0  0  0  0  0  0
   19.2820    7.2532   32.6819 H   0  0  0  0  0  0  0  0  0  0  0  0
   24.0379    5.1027   30.5668 C   0  0  0  0  0  0  0  0  0  0  0  0
   23.8298    6.1912   29.7465 O   0  0  0  0  0  0  0  0  0  0  0  0
   24.9287    7.1042   29.5956 C   0  0  0  0  0  0  0  0  0  0  0  0
   25.7746    6.6169   29.0994 H   0  0  0  0  0  0  0  0  0  0  0  0
   24.6173    7.9622   28.9914 H   0  0  0  0  0  0  0  0  0  0  0  0
   25.2589    7.4680   30.5738 H   0  0  0  0  0  0  0  0  0  0  0  0
  1  2  1  0
  2  3  2  0
  3  4  1  0
  3  5  1  0
  5  6  1  0
  6  7  1  0
  7  8  1  0
  7  9  1  0
  7 10  1  0
  5 11  2  0
 11 12  1  0
 11 13  1  0
 13 14  1  0
 14 15  1  0
 14 16  1  0
 14 17  1  0
 17 18  2  0
 17 19  1  0
 19 20  1  0
 19 21  1  0
 21 22  2  0
 22 23  1  0
 23 24  1  0
 24 25  1  0
 24 26  1  0
 26 27  1  0
 26 28  1  0
 26 29  1  0
 29 30  1  0
 29 31  1  0
 29 32  1  0
 32 33  1  0
 33 34  1  0
 33 35  1  0
 33 36  1  0
 32 37  1  0
 37 38  1  0
 37 39  1  0
 37 40  1  0
 40 41  1  0
 40 42  1  0
 23 43  2  0
 43 44  1  0
 44 45  3  0
 43 46  1  0
 46 47  1  0
 47 48  1  0
 47 49  1  0
 46 50  2  0
 50 51  1  0
 13 52  2  0
 52 53  1  0
 53 54  1  0
 54 55  1  0
 54 56  1  0
 54 57  1  0
 52  2  1  0
 50 21  1  0
 40 24  1  0
M  END
>  <score>  (410) 
7.77187

$$$$

     RDKit          3D

 55 58  0  0  0  0  0  0  0  0999 V2000
   25.4855   12.3625   31.1282 H   0  0  0  0  0  0  0  0  0  0  0  0
   24.4249   12.3468   30.9171 C   0  0  0  0  0  0  0  0  0  0  0  0
   23.6334   11.3050   31.3917 C   0  0  0  0  0  0  0  0  0  0  0  0
   24.0841   10.5049   31.9730 H   0  0  0  0  0  0  0  0  0  0  0  0
   22.2497   11.3076   31.1745 C   0  0  0  0  0  0  0  0  0  0  0  0
   21.4245   10.1987   31.6821 C   0  0  0  0  0  0  0  0  0  0  0  0
   21.8460    8.9620   31.3956 N   0  0  0  0  0  0  0  0  0  0  0  0
   21.0933    7.9531   31.7630 C   0  0  0  0  0  0  0  0  0  0  0  0
   21.6394    6.7976   31.3441 N   0  0  0  0  0  0  0  0  0  0  0  0
   22.4915    6.9172   30.8156 H   0  0  0  0  0  0  0  0  0  0  0  0
   20.9233    5.6559   31.1334 C   0  0  0  0  0  0  0  0  0  0  0  0
   19.7372    5.6037   31.4175 O   0  0  0  0  0  0  0  0  0  0  0  0
   21.5935    4.5370   30.3487 C   0  0  0  0  0  0  0  0  0  0  0  0
   21.6672    4.8580   29.3054 H   0  0  0  0  0  0  0  0  0  0  0  0
   20.9682    3.6438   30.3959 H   0  0  0  0  0  0  0  0  0  0  0  0
   22.9797    4.2398   30.8839 C   0  0  0  0  0  0  0  0  0  0  0  0
   23.1806    3.1355   31.7276 C   0  0  0  0  0  0  0  0  0  0  0  0
   22.3478    2.4857   31.9801 H   0  0  0  0  0  0  0  0  0  0  0  0
   24.4482    2.8519   32.2666 C   0  0  0  0  0  0  0  0  0  0  0  0
   24.6745    1.7825   33.1037 O   0  0  0  0  0  0  0  0  0  0  0  0
   23.6735    0.7541   33.1221 C   0  0  0  0  0  0  0  0  0  0  0  0
   22.7400    1.1282   33.5542 H   0  0  0  0  0  0  0  0  0  0  0  0
   24.0233   -0.0904   33.7256 H   0  0  0  0  0  0  0  0  0  0  0  0
   23.4744    0.3940   32.1075 H   0  0  0  0  0  0  0  0  0  0  0  0
   25.5227    3.6997   31.9474 C   0  0  0  0  0  0  0  0  0  0  0  0
   27.2783    3.3710   32.6426 Br  0  0  0  0  0  0  0  0  0  0  0  0
   25.3246    4.7976   31.1035 C   0  0  0  0  0  0  0  0  0  0  0  0
   26.1630    5.4396   30.8566 H   0  0  0  0  0  0  0  0  0  0  0  0
   24.0604    5.0893   30.5715 C   0  0  0  0  0  0  0  0  0  0  0  0
   23.8360    6.1875   29.7692 O   0  0  0  0  0  0  0  0  0  0  0  0
   24.9317    7.0994   29.6023 C   0  0  0  0  0  0  0  0  0  0  0  0
   25.2736    7.4694   30.5744 H   0  0  0  0  0  0  0  0  0  0  0  0
   25.7705    6.6078   29.0988 H   0  0  0  0  0  0  0  0  0  0  0  0
   24.6134    7.9542   28.9966 H   0  0  0  0  0  0  0  0  0  0  0  0
   19.9179    8.0807   32.4544 C   0  0  0  0  0  0  0  0  0  0  0  0
   19.3317    7.2287   32.7439 H   0  0  0  0  0  0  0  0  0  0  0  0
   19.5237    9.3282   32.8076 C   0  0  0  0  0  0  0  0  0  0  0  0
   18.4370    9.4163   33.6159 N   0  0  0  0  0  0  0  0  0  0  0  0
   17.5580    9.2372   33.1424 H   0  0  0  0  0  0  0  0  0  0  0  0
   18.5394    8.8556   34.4547 H   0  0  0  0  0  0  0  0  0  0  0  0
   20.2585   10.4187   32.4202 C   0  0  0  0  0  0  0  0  0  0  0  0
   19.8811   11.7232   32.8534 C   0  0  0  0  0  0  0  0  0  0  0  0
   19.6119   12.7935   33.2232 N   0  0  0  0  0  0  0  0  0  0  0  0
   21.6786   12.3703   30.4499 C   0  0  0  0  0  0  0  0  0  0  0  0
   20.6033   12.4306   30.3017 H   0  0  0  0  0  0  0  0  0  0  0  0
   22.4852   13.3594   29.8776 C   0  0  0  0  0  0  0  0  0  0  0  0
   23.8712   13.3579   30.1340 C   0  0  0  0  0  0  0  0  0  0  0  0
   24.7190   14.2999   29.6127 O   0  0  0  0  0  0  0  0  0  0  0  0
   24.1920   15.0488   28.5040 C   0  0  0  0  0  0  0  0  0  0  0  0
   24.7635   15.9776   28.4057 H   0  0  0  0  0  0  0  0  0  0  0  0
   24.3339   14.4829   27.5784 H   0  0  0  0  0  0  0  0  0  0  0  0
   22.7025   15.3997   28.6798 C   0  0  0  0  0  0  0  0  0  0  0  0
   22.5712   16.1604   29.4519 H   0  0  0  0  0  0  0  0  0  0  0  0
   22.3421   15.8282   27.7411 H   0  0  0  0  0  0  0  0  0  0  0  0
   21.8894   14.2768   29.0479 O   0  0  0  0  0  0  0  0  0  0  0  0
  1  2  1  0
  2  3  2  0
  3  4  1  0
  3  5  1  0
  5  6  1  0
  6  7  2  0
  7  8  1  0
  8  9  1  0
  9 10  1  0
  9 11  1  0
 11 12  2  0
 11 13  1  0
 13 14  1  0
 13 15  1  0
 13 16  1  0
 16 17  2  0
 17 18  1  0
 17 19  1  0
 19 20  1  0
 20 21  1  0
 21 22  1  0
 21 23  1  0
 21 24  1  0
 19 25  2  0
 25 26  1  0
 25 27  1  0
 27 28  1  0
 27 29  2  0
 29 30  1  0
 30 31  1  0
 31 32  1  0
 31 33  1  0
 31 34  1  0
  8 35  2  0
 35 36  1  0
 35 37  1  0
 37 38  1  0
 38 39  1  0
 38 40  1  0
 37 41  2  0
 41 42  1  0
 42 43  3  0
  5 44  2  0
 44 45  1  0
 44 46  1  0
 46 47  2  0
 47 48  1  0
 48 49  1  0
 49 50  1  0
 49 51  1  0
 49 52  1  0
 52 53  1  0
 52 54  1  0
 52 55  1  0
 47  2  1  0
 41  6  1  0
 55 46  1  0
 29 16  1  0
M  END
>  <score>  (411) 
7.77481

$$$$

     RDKit          3D

 49 51  0  0  0  0  0  0  0  0999 V2000
   21.3228   14.1561   28.9453 H   0  0  0  0  0  0  0  0  0  0  0  0
   21.8242   13.4102   29.5547 C   0  0  0  0  0  0  0  0  0  0  0  0
   21.0945   12.3787   30.1556 C   0  0  0  0  0  0  0  0  0  0  0  0
   20.0215   12.3508   29.9941 H   0  0  0  0  0  0  0  0  0  0  0  0
   21.7458   11.3826   30.9080 C   0  0  0  0  0  0  0  0  0  0  0  0
   21.0065   10.2290   31.4651 C   0  0  0  0  0  0  0  0  0  0  0  0
   21.4169    9.0116   31.0932 N   0  0  0  0  0  0  0  0  0  0  0  0
   20.8209    7.9532   31.5935 C   0  0  0  0  0  0  0  0  0  0  0  0
   21.4133    6.8275   31.1690 N   0  0  0  0  0  0  0  0  0  0  0  0
   22.2254    6.9841   30.5910 H   0  0  0  0  0  0  0  0  0  0  0  0
   20.8482    5.5895   31.1818 C   0  0  0  0  0  0  0  0  0  0  0  0
   19.7530    5.4177   31.7009 O   0  0  0  0  0  0  0  0  0  0  0  0
   21.5250    4.4825   30.3893 C   0  0  0  0  0  0  0  0  0  0  0  0
   20.9398    3.5655   30.4919 H   0  0  0  0  0  0  0  0  0  0  0  0
   21.5361    4.7676   29.3333 H   0  0  0  0  0  0  0  0  0  0  0  0
   22.9359    4.2442   30.8808 C   0  0  0  0  0  0  0  0  0  0  0  0
   23.1627    3.1319   31.7001 C   0  0  0  0  0  0  0  0  0  0  0  0
   22.3443    2.4597   31.9414 H   0  0  0  0  0  0  0  0  0  0  0  0
   24.4304    2.8599   32.2390 C   0  0  0  0  0  0  0  0  0  0  0  0
   24.6566    1.7815   33.0619 O   0  0  0  0  0  0  0  0  0  0  0  0
   23.6190    0.7904   33.0859 C   0  0  0  0  0  0  0  0  0  0  0  0
   23.9276   -0.0640   33.6943 H   0  0  0  0  0  0  0  0  0  0  0  0
   22.6965    1.2025   33.5059 H   0  0  0  0  0  0  0  0  0  0  0  0
   23.4102    0.4364   32.0722 H   0  0  0  0  0  0  0  0  0  0  0  0
   25.4888    3.7339   31.9462 C   0  0  0  0  0  0  0  0  0  0  0  0
   27.2377    3.4725   32.6875 Br  0  0  0  0  0  0  0  0  0  0  0  0
   25.2685    4.8393   31.1182 C   0  0  0  0  0  0  0  0  0  0  0  0
   26.0896    5.5120   30.8966 H   0  0  0  0  0  0  0  0  0  0  0  0
   24.0010    5.1173   30.5768 C   0  0  0  0  0  0  0  0  0  0  0  0
   23.7735    6.2260   29.7897 O   0  0  0  0  0  0  0  0  0  0  0  0
   24.9069    7.0885   29.6051 C   0  0  0  0  0  0  0  0  0  0  0  0
   25.2714    7.4508   30.5719 H   0  0  0  0  0  0  0  0  0  0  0  0
   24.6318    7.9496   28.9905 H   0  0  0  0  0  0  0  0  0  0  0  0
   25.7229    6.5508   29.1111 H   0  0  0  0  0  0  0  0  0  0  0  0
   19.7802    8.0136   32.4702 C   0  0  0  0  0  0  0  0  0  0  0  0
   19.3460    7.1318   32.9074 H   0  0  0  0  0  0  0  0  0  0  0  0
   19.3706    9.2485   32.8568 C   0  0  0  0  0  0  0  0  0  0  0  0
   18.3866    9.3050   33.7769 N   0  0  0  0  0  0  0  0  0  0  0  0
   17.9701   10.2112   33.9750 H   0  0  0  0  0  0  0  0  0  0  0  0
   17.8464    8.4560   33.9304 H   0  0  0  0  0  0  0  0  0  0  0  0
   19.9751   10.3852   32.3816 C   0  0  0  0  0  0  0  0  0  0  0  0
   19.6372   11.6733   32.8945 C   0  0  0  0  0  0  0  0  0  0  0  0
   19.4488   12.7360   33.3231 N   0  0  0  0  0  0  0  0  0  0  0  0
   23.1413   11.4848   31.0702 C   0  0  0  0  0  0  0  0  0  0  0  0
   23.6897   10.7421   31.6396 H   0  0  0  0  0  0  0  0  0  0  0  0
   23.8663   12.5125   30.4589 C   0  0  0  0  0  0  0  0  0  0  0  0
   25.5912   12.5885   30.6279 Cl  0  0  0  0  0  0  0  0  0  0  0  0
   23.2102   13.4659   29.6782 C   0  0  0  0  0  0  0  0  0  0  0  0
   24.0926   14.6672   28.7657 Cl  0  0  0  0  0  0  0  0  0  0  0  0
  1  2  1  0
  2  3  2  0
  3  4  1  0
  3  5  1  0
  5  6  1  0
  6  7  2  0
  7  8  1  0
  8  9  1  0
  9 10  1  0
  9 11  1  0
 11 12  2  0
 11 13  1  0
 13 14  1  0
 13 15  1  0
 13 16  1  0
 16 17  2  0
 17 18  1  0
 17 19  1  0
 19 20  1  0
 20 21  1  0
 21 22  1  0
 21 23  1  0
 21 24  1  0
 19 25  2  0
 25 26  1  0
 25 27  1  0
 27 28  1  0
 27 29  2  0
 29 30  1  0
 30 31  1  0
 31 32  1  0
 31 33  1  0
 31 34  1  0
  8 35  2  0
 35 36  1  0
 35 37  1  0
 37 38  1  0
 38 39  1  0
 38 40  1  0
 37 41  2  0
 41 42  1  0
 42 43  3  0
  5 44  2  0
 44 45  1  0
 44 46  1  0
 46 47  1  0
 46 48  2  0
 48 49  1  0
 48  2  1  0
 41  6  1  0
 29 16  1  0
M  END
>  <score>  (412) 
7.77792

$$$$

     RDKit          3D

 59 62  0  0  0  0  0  0  0  0999 V2000
   21.6136   17.8276   27.6944 H   0  0  0  0  0  0  0  0  0  0  0  0
   21.8512   16.8496   28.1062 C   0  0  0  0  0  0  0  0  0  0  0  0
   22.7023   15.9870   27.4043 C   0  0  0  0  0  0  0  0  0  0  0  0
   23.1452   16.2993   26.4639 H   0  0  0  0  0  0  0  0  0  0  0  0
   23.0178   14.7355   27.9435 C   0  0  0  0  0  0  0  0  0  0  0  0
   23.6765   14.0541   27.4098 H   0  0  0  0  0  0  0  0  0  0  0  0
   22.4767   14.3639   29.1833 C   0  0  0  0  0  0  0  0  0  0  0  0
   22.9066   13.1827   29.8844 C   0  0  0  0  0  0  0  0  0  0  0  0
   24.2553   13.0793   30.1914 C   0  0  0  0  0  0  0  0  0  0  0  0
   24.9712   13.8358   29.8819 H   0  0  0  0  0  0  0  0  0  0  0  0
   24.6907   12.0439   30.9892 C   0  0  0  0  0  0  0  0  0  0  0  0
   25.7184   12.0718   31.2690 H   0  0  0  0  0  0  0  0  0  0  0  0
   23.8136   11.0685   31.4568 C   0  0  0  0  0  0  0  0  0  0  0  0
   24.1850   10.2426   32.0595 H   0  0  0  0  0  0  0  0  0  0  0  0
   22.4393   11.1828   31.1969 C   0  0  0  0  0  0  0  0  0  0  0  0
   21.5141   10.1674   31.7070 C   0  0  0  0  0  0  0  0  0  0  0  0
   21.8265    8.9162   31.3885 N   0  0  0  0  0  0  0  0  0  0  0  0
   21.0413    7.9542   31.7879 C   0  0  0  0  0  0  0  0  0  0  0  0
   21.5514    6.7923   31.3575 N   0  0  0  0  0  0  0  0  0  0  0  0
   22.4180    6.8887   30.8447 H   0  0  0  0  0  0  0  0  0  0  0  0
   20.8388    5.6468   31.1975 C   0  0  0  0  0  0  0  0  0  0  0  0
   19.6818    5.5663   31.5815 O   0  0  0  0  0  0  0  0  0  0  0  0
   21.5026    4.5201   30.4164 C   0  0  0  0  0  0  0  0  0  0  0  0
   21.5367    4.7909   29.3574 H   0  0  0  0  0  0  0  0  0  0  0  0
   20.9052    3.6120   30.5189 H   0  0  0  0  0  0  0  0  0  0  0  0
   22.9101    4.2691   30.9201 C   0  0  0  0  0  0  0  0  0  0  0  0
   23.1397    3.1536   31.7370 C   0  0  0  0  0  0  0  0  0  0  0  0
   22.3207    2.4860   31.9823 H   0  0  0  0  0  0  0  0  0  0  0  0
   24.4131    2.8677   32.2587 C   0  0  0  0  0  0  0  0  0  0  0  0
   24.6546    1.7747   33.0597 O   0  0  0  0  0  0  0  0  0  0  0  0
   23.6227    0.7790   33.0911 C   0  0  0  0  0  0  0  0  0  0  0  0
   22.7039    1.1899   33.5215 H   0  0  0  0  0  0  0  0  0  0  0  0
   23.4093    0.4153   32.0799 H   0  0  0  0  0  0  0  0  0  0  0  0
   23.9448   -0.0682   33.7029 H   0  0  0  0  0  0  0  0  0  0  0  0
   25.4732    3.7345   31.9535 C   0  0  0  0  0  0  0  0  0  0  0  0
   27.2330    3.4314   32.6452 Br  0  0  0  0  0  0  0  0  0  0  0  0
   25.2534    4.8483   31.1388 C   0  0  0  0  0  0  0  0  0  0  0  0
   26.0805    5.5105   30.9032 H   0  0  0  0  0  0  0  0  0  0  0  0
   23.9823    5.1374   30.6167 C   0  0  0  0  0  0  0  0  0  0  0  0
   23.7651    6.2543   29.8391 O   0  0  0  0  0  0  0  0  0  0  0  0
   24.9068    7.1011   29.6190 C   0  0  0  0  0  0  0  0  0  0  0  0
   25.7036    6.5447   29.1134 H   0  0  0  0  0  0  0  0  0  0  0  0
   24.6314    7.9562   28.9944 H   0  0  0  0  0  0  0  0  0  0  0  0
   25.2940    7.4788   30.5719 H   0  0  0  0  0  0  0  0  0  0  0  0
   19.9091    8.1439   32.5320 C   0  0  0  0  0  0  0  0  0  0  0  0
   19.2971    7.3250   32.8705 H   0  0  0  0  0  0  0  0  0  0  0  0
   19.5977    9.4259   32.8806 C   0  0  0  0  0  0  0  0  0  0  0  0
   18.5101    9.6096   33.6663 N   0  0  0  0  0  0  0  0  0  0  0  0
   17.8084    8.8685   33.6567 H   0  0  0  0  0  0  0  0  0  0  0  0
   18.2202   10.5704   33.8335 H   0  0  0  0  0  0  0  0  0  0  0  0
   20.3859   10.4779   32.4600 C   0  0  0  0  0  0  0  0  0  0  0  0
   20.0803   11.8273   32.8030 C   0  0  0  0  0  0  0  0  0  0  0  0
   19.8487   12.9355   33.0790 N   0  0  0  0  0  0  0  0  0  0  0  0
   21.9916   12.2658   30.4192 C   0  0  0  0  0  0  0  0  0  0  0  0
   20.9385   12.4096   30.2021 H   0  0  0  0  0  0  0  0  0  0  0  0
   21.6076   15.2059   29.8635 C   0  0  0  0  0  0  0  0  0  0  0  0
   21.2075   14.8953   30.8257 H   0  0  0  0  0  0  0  0  0  0  0  0
   21.3215   16.4574   29.3454 C   0  0  0  0  0  0  0  0  0  0  0  0
   20.7115   17.1102   29.9557 H   0  0  0  0  0  0  0  0  0  0  0  0
  1  2  1  0
  2  3  2  0
  3  4  1  0
  3  5  1  0
  5  6  1  0
  5  7  2  0
  7  8  1  0
  8  9  2  0
  9 10  1  0
  9 11  1  0
 11 12  1  0
 11 13  2  0
 13 14  1  0
 13 15  1  0
 15 16  1  0
 16 17  2  0
 17 18  1  0
 18 19  1  0
 19 20  1  0
 19 21  1  0
 21 22  2  0
 21 23  1  0
 23 24  1  0
 23 25  1  0
 23 26  1  0
 26 27  2  0
 27 28  1  0
 27 29  1  0
 29 30  1  0
 30 31  1  0
 31 32  1  0
 31 33  1  0
 31 34  1  0
 29 35  2  0
 35 36  1  0
 35 37  1  0
 37 38  1  0
 37 39  2  0
 39 40  1  0
 40 41  1  0
 41 42  1  0
 41 43  1  0
 41 44  1  0
 18 45  2  0
 45 46  1  0
 45 47  1  0
 47 48  1  0
 48 49  1  0
 48 50  1  0
 47 51  2  0
 51 52  1  0
 52 53  3  0
 15 54  2  0
 54 55  1  0
  7 56  1  0
 56 57  1  0
 56 58  2  0
 58 59  1  0
 58  2  1  0
 54  8  1  0
 51 16  1  0
 39 26  1  0
M  END
>  <score>  (413) 
7.77892

$$$$

     RDKit          3D

 49 51  0  0  0  0  0  0  0  0999 V2000
   21.9362   14.2844   29.3804 H   0  0  0  0  0  0  0  0  0  0  0  0
   22.3927   13.4825   29.9548 C   0  0  0  0  0  0  0  0  0  0  0  0
   21.6035   12.4457   30.4639 C   0  0  0  0  0  0  0  0  0  0  0  0
   20.5316   12.4717   30.2958 H   0  0  0  0  0  0  0  0  0  0  0  0
   22.1871   11.3613   31.1414 C   0  0  0  0  0  0  0  0  0  0  0  0
   21.3558   10.2393   31.6027 C   0  0  0  0  0  0  0  0  0  0  0  0
   21.7131    9.0252   31.1861 N   0  0  0  0  0  0  0  0  0  0  0  0
   20.9695    8.0101   31.5507 C   0  0  0  0  0  0  0  0  0  0  0  0
   21.4808    6.8779   31.0401 N   0  0  0  0  0  0  0  0  0  0  0  0
   22.3598    6.9833   30.5531 H   0  0  0  0  0  0  0  0  0  0  0  0
   20.9126    5.6425   31.1128 C   0  0  0  0  0  0  0  0  0  0  0  0
   19.8598    5.4671   31.7074 O   0  0  0  0  0  0  0  0  0  0  0  0
   21.5723    4.5222   30.3309 C   0  0  0  0  0  0  0  0  0  0  0  0
   20.9402    3.6379   30.3917 H   0  0  0  0  0  0  0  0  0  0  0  0
   21.6513    4.8130   29.2784 H   0  0  0  0  0  0  0  0  0  0  0  0
   22.9515    4.2460   30.8793 C   0  0  0  0  0  0  0  0  0  0  0  0
   23.1580    3.1460   31.7246 C   0  0  0  0  0  0  0  0  0  0  0  0
   22.3291    2.4891   31.9708 H   0  0  0  0  0  0  0  0  0  0  0  0
   24.4279    2.8694   32.2613 C   0  0  0  0  0  0  0  0  0  0  0  0
   24.6612    1.7947   33.0890 O   0  0  0  0  0  0  0  0  0  0  0  0
   23.6624    0.7653   33.1112 C   0  0  0  0  0  0  0  0  0  0  0  0
   24.0145   -0.0772   33.7170 H   0  0  0  0  0  0  0  0  0  0  0  0
   22.7305    1.1428   33.5443 H   0  0  0  0  0  0  0  0  0  0  0  0
   23.4641    0.4041   32.0964 H   0  0  0  0  0  0  0  0  0  0  0  0
   25.4972    3.7226   31.9427 C   0  0  0  0  0  0  0  0  0  0  0  0
   27.2551    3.3981   32.6306 Br  0  0  0  0  0  0  0  0  0  0  0  0
   25.2919    4.8154   31.0990 C   0  0  0  0  0  0  0  0  0  0  0  0
   26.1300    5.4546   30.8466 H   0  0  0  0  0  0  0  0  0  0  0  0
   24.0279    5.1024   30.5675 C   0  0  0  0  0  0  0  0  0  0  0  0
   23.8198    6.1968   29.7559 O   0  0  0  0  0  0  0  0  0  0  0  0
   24.9285    7.0957   29.6005 C   0  0  0  0  0  0  0  0  0  0  0  0
   25.2629    7.4515   30.5805 H   0  0  0  0  0  0  0  0  0  0  0  0
   24.6292    7.9584   28.9963 H   0  0  0  0  0  0  0  0  0  0  0  0
   25.7658    6.5926   29.1050 H   0  0  0  0  0  0  0  0  0  0  0  0
   19.8629    8.1169   32.3609 C   0  0  0  0  0  0  0  0  0  0  0  0
   19.2931    7.2527   32.6525 H   0  0  0  0  0  0  0  0  0  0  0  0
   19.5368    9.3538   32.8328 C   0  0  0  0  0  0  0  0  0  0  0  0
   18.5171    9.4680   33.7204 N   0  0  0  0  0  0  0  0  0  0  0  0
   18.1428   10.3960   33.9023 H   0  0  0  0  0  0  0  0  0  0  0  0
   17.9349    8.6504   33.8793 H   0  0  0  0  0  0  0  0  0  0  0  0
   20.2543   10.4513   32.4311 C   0  0  0  0  0  0  0  0  0  0  0  0
   19.9197   11.7601   32.8862 C   0  0  0  0  0  0  0  0  0  0  0  0
   19.6660   12.8439   33.2262 N   0  0  0  0  0  0  0  0  0  0  0  0
   23.5751   11.3766   31.3607 C   0  0  0  0  0  0  0  0  0  0  0  0
   24.0667   10.5693   31.8996 H   0  0  0  0  0  0  0  0  0  0  0  0
   24.3454   12.4525   30.9216 C   0  0  0  0  0  0  0  0  0  0  0  0
   25.6500   12.5085   31.2375 F   0  0  0  0  0  0  0  0  0  0  0  0
   23.7716   13.4787   30.1733 C   0  0  0  0  0  0  0  0  0  0  0  0
   24.5588   14.4422   29.6470 F   0  0  0  0  0  0  0  0  0  0  0  0
  1  2  1  0
  2  3  2  0
  3  4  1  0
  3  5  1  0
  5  6  1  0
  6  7  2  0
  7  8  1  0
  8  9  1  0
  9 10  1  0
  9 11  1  0
 11 12  2  0
 11 13  1  0
 13 14  1  0
 13 15  1  0
 13 16  1  0
 16 17  2  0
 17 18  1  0
 17 19  1  0
 19 20  1  0
 20 21  1  0
 21 22  1  0
 21 23  1  0
 21 24  1  0
 19 25  2  0
 25 26  1  0
 25 27  1  0
 27 28  1  0
 27 29  2  0
 29 30  1  0
 30 31  1  0
 31 32  1  0
 31 33  1  0
 31 34  1  0
  8 35  2  0
 35 36  1  0
 35 37  1  0
 37 38  1  0
 38 39  1  0
 38 40  1  0
 37 41  2  0
 41 42  1  0
 42 43  3  0
  5 44  2  0
 44 45  1  0
 44 46  1  0
 46 47  1  0
 46 48  2  0
 48 49  1  0
 48  2  1  0
 41  6  1  0
 29 16  1  0
M  END
>  <score>  (414) 
7.78185

$$$$

     RDKit          3D

 48 50  0  0  0  0  0  0  0  0999 V2000
   22.1064   14.4996   30.0511 H   0  0  0  0  0  0  0  0  0  0  0  0
   22.5519   13.5647   30.3714 C   0  0  0  0  0  0  0  0  0  0  0  0
   21.7555   12.5936   30.8537 N   0  0  0  0  0  0  0  0  0  0  0  0
   22.2894   11.3897   31.2016 C   0  0  0  0  0  0  0  0  0  0  0  0
   21.4059   10.2449   31.6816 C   0  0  0  0  0  0  0  0  0  0  0  0
   21.7507    8.9692   31.3789 N   0  0  0  0  0  0  0  0  0  0  0  0
   20.9887    7.9569   31.7518 C   0  0  0  0  0  0  0  0  0  0  0  0
   21.5575    6.7927   31.3876 N   0  0  0  0  0  0  0  0  0  0  0  0
   22.4664    6.9172   30.9601 H   0  0  0  0  0  0  0  0  0  0  0  0
   20.8963    5.6312   31.1239 C   0  0  0  0  0  0  0  0  0  0  0  0
   19.7087    5.5311   31.3911 O   0  0  0  0  0  0  0  0  0  0  0  0
   21.6139    4.5383   30.3253 C   0  0  0  0  0  0  0  0  0  0  0  0
   21.0149    3.6235   30.3047 H   0  0  0  0  0  0  0  0  0  0  0  0
   21.7209    4.8786   29.2926 H   0  0  0  0  0  0  0  0  0  0  0  0
   22.9947    4.2458   30.8792 C   0  0  0  0  0  0  0  0  0  0  0  0
   23.1812    3.1407   31.7293 C   0  0  0  0  0  0  0  0  0  0  0  0
   22.3445    2.4973   31.9803 H   0  0  0  0  0  0  0  0  0  0  0  0
   24.4420    2.8418   32.2736 C   0  0  0  0  0  0  0  0  0  0  0  0
   24.6628    1.7820   33.1273 O   0  0  0  0  0  0  0  0  0  0  0  0
   23.6921    0.7283   33.1457 C   0  0  0  0  0  0  0  0  0  0  0  0
   23.5010    0.3574   32.1348 H   0  0  0  0  0  0  0  0  0  0  0  0
   24.0764   -0.0996   33.7474 H   0  0  0  0  0  0  0  0  0  0  0  0
   22.7525    1.0678   33.5888 H   0  0  0  0  0  0  0  0  0  0  0  0
   25.5274    3.6720   31.9461 C   0  0  0  0  0  0  0  0  0  0  0  0
   27.2752    3.2961   32.6361 Br  0  0  0  0  0  0  0  0  0  0  0  0
   25.3484    4.7772   31.0998 C   0  0  0  0  0  0  0  0  0  0  0  0
   26.1952    5.4074   30.8474 H   0  0  0  0  0  0  0  0  0  0  0  0
   24.0873    5.0834   30.5666 C   0  0  0  0  0  0  0  0  0  0  0  0
   23.8670    6.1754   29.7537 O   0  0  0  0  0  0  0  0  0  0  0  0
   24.9317    7.1213   29.5851 C   0  0  0  0  0  0  0  0  0  0  0  0
   25.7815    6.6673   29.0689 H   0  0  0  0  0  0  0  0  0  0  0  0
   24.5753    7.9628   28.9839 H   0  0  0  0  0  0  0  0  0  0  0  0
   25.2640    7.5082   30.5518 H   0  0  0  0  0  0  0  0  0  0  0  0
   19.8337    8.1042   32.4644 C   0  0  0  0  0  0  0  0  0  0  0  0
   19.2275    7.2658   32.7715 H   0  0  0  0  0  0  0  0  0  0  0  0
   19.5029    9.3740   32.8378 C   0  0  0  0  0  0  0  0  0  0  0  0
   18.4452    9.4941   33.6678 N   0  0  0  0  0  0  0  0  0  0  0  0
   18.1316   10.4157   33.9543 H   0  0  0  0  0  0  0  0  0  0  0  0
   17.9097    8.6650   33.9032 H   0  0  0  0  0  0  0  0  0  0  0  0
   20.2553   10.4703   32.4526 C   0  0  0  0  0  0  0  0  0  0  0  0
   19.9167   11.7932   32.8786 C   0  0  0  0  0  0  0  0  0  0  0  0
   19.6860   12.8868   33.2100 N   0  0  0  0  0  0  0  0  0  0  0  0
   23.6862   11.1984   31.1053 C   0  0  0  0  0  0  0  0  0  0  0  0
   24.1127   10.2458   31.4012 H   0  0  0  0  0  0  0  0  0  0  0  0
   24.5197   12.2103   30.6353 C   0  0  0  0  0  0  0  0  0  0  0  0
   25.5930   12.0636   30.5585 H   0  0  0  0  0  0  0  0  0  0  0  0
   23.9329   13.4091   30.2540 C   0  0  0  0  0  0  0  0  0  0  0  0
   24.5349   14.2191   29.8600 H   0  0  0  0  0  0  0  0  0  0  0  0
  1  2  1  0
  2  3  2  0
  3  4  1  0
  4  5  1  0
  5  6  2  0
  6  7  1  0
  7  8  1  0
  8  9  1  0
  8 10  1  0
 10 11  2  0
 10 12  1  0
 12 13  1  0
 12 14  1  0
 12 15  1  0
 15 16  2  0
 16 17  1  0
 16 18  1  0
 18 19  1  0
 19 20  1  0
 20 21  1  0
 20 22  1  0
 20 23  1  0
 18 24  2  0
 24 25  1  0
 24 26  1  0
 26 27  1  0
 26 28  2  0
 28 29  1  0
 29 30  1  0
 30 31  1  0
 30 32  1  0
 30 33  1  0
  7 34  2  0
 34 35  1  0
 34 36  1  0
 36 37  1  0
 37 38  1  0
 37 39  1  0
 36 40  2  0
 40 41  1  0
 41 42  3  0
  4 43  2  0
 43 44  1  0
 43 45  1  0
 45 46  1  0
 45 47  2  0
 47 48  1  0
 47  2  1  0
 40  5  1  0
 28 15  1  0
M  END
>  <score>  (415) 
7.78207

$$$$

     RDKit          3D

 52 54  0  0  0  0  0  0  0  0999 V2000
   26.1177    5.5153   30.9253 H   0  0  0  0  0  0  0  0  0  0  0  0
   25.2947    4.8434   31.1448 C   0  0  0  0  0  0  0  0  0  0  0  0
   25.5067    3.7314   31.9685 C   0  0  0  0  0  0  0  0  0  0  0  0
   27.2521    3.4361   32.6999 Br  0  0  0  0  0  0  0  0  0  0  0  0
   24.4491    2.8492   32.2433 C   0  0  0  0  0  0  0  0  0  0  0  0
   24.6695    1.7547   33.0474 O   0  0  0  0  0  0  0  0  0  0  0  0
   23.6168    0.7789   33.0840 C   0  0  0  0  0  0  0  0  0  0  0  0
   22.7058    1.2108   33.5100 H   0  0  0  0  0  0  0  0  0  0  0  0
   23.3949    0.4161   32.0749 H   0  0  0  0  0  0  0  0  0  0  0  0
   23.9180   -0.0730   33.6999 H   0  0  0  0  0  0  0  0  0  0  0  0
   23.1887    3.1206   31.6938 C   0  0  0  0  0  0  0  0  0  0  0  0
   22.3688    2.4450   31.9160 H   0  0  0  0  0  0  0  0  0  0  0  0
   22.9686    4.2386   30.8853 C   0  0  0  0  0  0  0  0  0  0  0  0
   21.5663    4.4826   30.3837 C   0  0  0  0  0  0  0  0  0  0  0  0
   21.5906    4.7232   29.3212 H   0  0  0  0  0  0  0  0  0  0  0  0
   20.9604    3.5831   30.5115 H   0  0  0  0  0  0  0  0  0  0  0  0
   20.9123    5.6317   31.1353 C   0  0  0  0  0  0  0  0  0  0  0  0
   19.7537    5.5494   31.5121 O   0  0  0  0  0  0  0  0  0  0  0  0
   21.6126    6.7908   31.3076 N   0  0  0  0  0  0  0  0  0  0  0  0
   22.5014    6.8978   30.8417 H   0  0  0  0  0  0  0  0  0  0  0  0
   21.0881    7.9430   31.7643 C   0  0  0  0  0  0  0  0  0  0  0  0
   21.8621    8.9642   31.4828 N   0  0  0  0  0  0  0  0  0  0  0  0
   21.4581   10.2037   31.7887 C   0  0  0  0  0  0  0  0  0  0  0  0
   22.2973   11.2912   31.2384 C   0  0  0  0  0  0  0  0  0  0  0  0
   21.7262   12.3627   30.5225 C   0  0  0  0  0  0  0  0  0  0  0  0
   20.6482   12.4710   30.4539 H   0  0  0  0  0  0  0  0  0  0  0  0
   22.5287   13.2341   29.7778 C   0  0  0  0  0  0  0  0  0  0  0  0
   22.0575   13.9962   29.1602 H   0  0  0  0  0  0  0  0  0  0  0  0
   23.9235   13.0762   29.7539 C   0  0  0  0  0  0  0  0  0  0  0  0
   24.7906   13.9289   28.8472 C   0  0  0  0  0  0  0  0  0  0  0  0
   24.1644   15.0770   28.4688 F   0  0  0  0  0  0  0  0  0  0  0  0
   25.9504   14.2406   29.4803 F   0  0  0  0  0  0  0  0  0  0  0  0
   25.0796   13.2210   27.7247 F   0  0  0  0  0  0  0  0  0  0  0  0
   24.4996   12.0536   30.5277 C   0  0  0  0  0  0  0  0  0  0  0  0
   25.5734   11.8918   30.5106 H   0  0  0  0  0  0  0  0  0  0  0  0
   23.6997   11.1756   31.2593 C   0  0  0  0  0  0  0  0  0  0  0  0
   24.1673   10.3506   31.7931 H   0  0  0  0  0  0  0  0  0  0  0  0
   20.2572   10.4116   32.4602 C   0  0  0  0  0  0  0  0  0  0  0  0
   19.8285   11.7247   32.8188 C   0  0  0  0  0  0  0  0  0  0  0  0
   19.4973   12.7998   33.1025 N   0  0  0  0  0  0  0  0  0  0  0  0
   19.5014    9.3063   32.7579 C   0  0  0  0  0  0  0  0  0  0  0  0
   18.3444    9.3619   33.4369 N   0  0  0  0  0  0  0  0  0  0  0  0
   18.2113   10.1749   34.0310 H   0  0  0  0  0  0  0  0  0  0  0  0
   17.9966    8.4630   33.7567 H   0  0  0  0  0  0  0  0  0  0  0  0
   19.8894    8.0635   32.3964 C   0  0  0  0  0  0  0  0  0  0  0  0
   19.2590    7.2187   32.6063 H   0  0  0  0  0  0  0  0  0  0  0  0
   24.0317    5.1205   30.5982 C   0  0  0  0  0  0  0  0  0  0  0  0
   23.8040    6.2368   29.8214 O   0  0  0  0  0  0  0  0  0  0  0  0
   24.9335    7.1000   29.6118 C   0  0  0  0  0  0  0  0  0  0  0  0
   25.7402    6.5607   29.1045 H   0  0  0  0  0  0  0  0  0  0  0  0
   25.3104    7.4773   30.5682 H   0  0  0  0  0  0  0  0  0  0  0  0
   24.6463    7.9536   28.9917 H   0  0  0  0  0  0  0  0  0  0  0  0
  1  2  1  0
  2  3  2  0
  3  4  1  0
  3  5  1  0
  5  6  1  0
  6  7  1  0
  7  8  1  0
  7  9  1  0
  7 10  1  0
  5 11  2  0
 11 12  1  0
 11 13  1  0
 13 14  1  0
 14 15  1  0
 14 16  1  0
 14 17  1  0
 17 18  2  0
 17 19  1  0
 19 20  1  0
 19 21  1  0
 21 22  2  0
 22 23  1  0
 23 24  1  0
 24 25  2  0
 25 26  1  0
 25 27  1  0
 27 28  1  0
 27 29  2  0
 29 30  1  0
 30 31  1  0
 30 32  1  0
 30 33  1  0
 29 34  1  0
 34 35  1  0
 34 36  2  0
 36 37  1  0
 23 38  2  0
 38 39  1  0
 39 40  3  0
 38 41  1  0
 41 42  1  0
 42 43  1  0
 42 44  1  0
 41 45  2  0
 45 46  1  0
 13 47  2  0
 47 48  1  0
 48 49  1  0
 49 50  1  0
 49 51  1  0
 49 52  1  0
 47  2  1  0
 45 21  1  0
 36 24  1  0
M  END
>  <score>  (416) 
7.78268

$$$$

     RDKit          3D

 53 54  0  0  0  0  0  0  0  0999 V2000
   26.1756    5.4244   30.8488 H   0  0  0  0  0  0  0  0  0  0  0  0
   25.3316    4.7944   31.1028 C   0  0  0  0  0  0  0  0  0  0  0  0
   25.5234    3.6930   31.9431 C   0  0  0  0  0  0  0  0  0  0  0  0
   27.2730    3.3448   32.6356 Br  0  0  0  0  0  0  0  0  0  0  0  0
   24.4436    2.8559   32.2681 C   0  0  0  0  0  0  0  0  0  0  0  0
   24.6705    1.7868   33.1056 O   0  0  0  0  0  0  0  0  0  0  0  0
   23.6781    0.7474   33.1275 C   0  0  0  0  0  0  0  0  0  0  0  0
   23.4815    0.3808   32.1134 H   0  0  0  0  0  0  0  0  0  0  0  0
   24.0403   -0.0927   33.7320 H   0  0  0  0  0  0  0  0  0  0  0  0
   22.7412    1.1089   33.5660 H   0  0  0  0  0  0  0  0  0  0  0  0
   23.1762    3.1478   31.7336 C   0  0  0  0  0  0  0  0  0  0  0  0
   22.3395    2.5021   31.9830 H   0  0  0  0  0  0  0  0  0  0  0  0
   22.9819    4.2608   30.8980 C   0  0  0  0  0  0  0  0  0  0  0  0
   21.5997    4.5819   30.3651 C   0  0  0  0  0  0  0  0  0  0  0  0
   20.9543    3.7033   30.4124 H   0  0  0  0  0  0  0  0  0  0  0  0
   21.6790    4.9037   29.3225 H   0  0  0  0  0  0  0  0  0  0  0  0
   20.9505    5.7180   31.1325 C   0  0  0  0  0  0  0  0  0  0  0  0
   19.7582    5.6709   31.3969 O   0  0  0  0  0  0  0  0  0  0  0  0
   21.6551    6.8691   31.3174 N   0  0  0  0  0  0  0  0  0  0  0  0
   22.5159    6.9694   30.8086 H   0  0  0  0  0  0  0  0  0  0  0  0
   21.0997    8.0261   31.7055 C   0  0  0  0  0  0  0  0  0  0  0  0
   21.8489    9.0233   31.3176 N   0  0  0  0  0  0  0  0  0  0  0  0
   21.4464   10.2232   31.6687 C   0  0  0  0  0  0  0  0  0  0  0  0
   22.2143   11.2881   31.2952 N   0  0  0  0  0  0  0  0  0  0  0  0
   21.8735   12.1944   31.5768 H   0  0  0  0  0  0  0  0  0  0  0  0
   23.4137   11.2178   30.4755 C   0  0  0  0  0  0  0  0  0  0  0  0
   23.9336   12.6374   30.2777 C   0  0  0  0  0  0  0  0  0  0  0  0
   24.1643   13.1024   31.2420 H   0  0  0  0  0  0  0  0  0  0  0  0
   24.8455   12.6068   29.6730 H   0  0  0  0  0  0  0  0  0  0  0  0
   23.1881   13.2512   29.7609 H   0  0  0  0  0  0  0  0  0  0  0  0
   24.4836   10.3985   31.1862 C   0  0  0  0  0  0  0  0  0  0  0  0
   24.1259    9.3823   31.3775 H   0  0  0  0  0  0  0  0  0  0  0  0
   25.3771   10.3488   30.5574 H   0  0  0  0  0  0  0  0  0  0  0  0
   24.7478   10.8642   32.1410 H   0  0  0  0  0  0  0  0  0  0  0  0
   23.0851   10.6249   29.1109 C   0  0  0  0  0  0  0  0  0  0  0  0
   22.3006   11.2126   28.6202 H   0  0  0  0  0  0  0  0  0  0  0  0
   23.9843   10.6387   28.4872 H   0  0  0  0  0  0  0  0  0  0  0  0
   22.7396    9.5915   29.2121 H   0  0  0  0  0  0  0  0  0  0  0  0
   20.3299   10.4674   32.4208 C   0  0  0  0  0  0  0  0  0  0  0  0
   20.0051   11.7901   32.8248 C   0  0  0  0  0  0  0  0  0  0  0  0
   19.7746   12.8728   33.1714 N   0  0  0  0  0  0  0  0  0  0  0  0
   19.5883    9.3924   32.7990 C   0  0  0  0  0  0  0  0  0  0  0  0
   18.5186    9.5195   33.6004 N   0  0  0  0  0  0  0  0  0  0  0  0
   17.9868    8.6858   33.8428 H   0  0  0  0  0  0  0  0  0  0  0  0
   18.2191   10.4520   33.8739 H   0  0  0  0  0  0  0  0  0  0  0  0
   19.9346    8.1453   32.4190 C   0  0  0  0  0  0  0  0  0  0  0  0
   19.3328    7.3017   32.7137 H   0  0  0  0  0  0  0  0  0  0  0  0
   24.0678    5.0983   30.5783 C   0  0  0  0  0  0  0  0  0  0  0  0
   23.8449    6.1908   29.7669 O   0  0  0  0  0  0  0  0  0  0  0  0
   24.9373    7.1086   29.5967 C   0  0  0  0  0  0  0  0  0  0  0  0
   25.7692    6.6338   29.0633 H   0  0  0  0  0  0  0  0  0  0  0  0
   24.6029    7.9728   29.0133 H   0  0  0  0  0  0  0  0  0  0  0  0
   25.2940    7.4655   30.5697 H   0  0  0  0  0  0  0  0  0  0  0  0
  1  2  1  0
  2  3  2  0
  3  4  1  0
  3  5  1  0
  5  6  1  0
  6  7  1  0
  7  8  1  0
  7  9  1  0
  7 10  1  0
  5 11  2  0
 11 12  1  0
 11 13  1  0
 13 14  1  0
 14 15  1  0
 14 16  1  0
 14 17  1  0
 17 18  2  0
 17 19  1  0
 19 20  1  0
 19 21  1  0
 21 22  2  0
 22 23  1  0
 23 24  1  0
 24 25  1  0
 24 26  1  0
 26 27  1  0
 27 28  1  0
 27 29  1  0
 27 30  1  0
 26 31  1  0
 31 32  1  0
 31 33  1  0
 31 34  1  0
 26 35  1  0
 35 36  1  0
 35 37  1  0
 35 38  1  0
 23 39  2  0
 39 40  1  0
 40 41  3  0
 39 42  1  0
 42 43  1  0
 43 44  1  0
 43 45  1  0
 42 46  2  0
 46 47  1  0
 13 48  2  0
 48 49  1  0
 49 50  1  0
 50 51  1  0
 50 52  1  0
 50 53  1  0
 48  2  1  0
 46 21  1  0
M  END
>  <score>  (417) 
7.78575

$$$$

     RDKit          3D

 52 55  0  0  0  0  0  0  0  0999 V2000
   26.0815    5.4986   30.8838 H   0  0  0  0  0  0  0  0  0  0  0  0
   25.2566    4.8326   31.1121 C   0  0  0  0  0  0  0  0  0  0  0  0
   25.4861    3.7387   31.9480 C   0  0  0  0  0  0  0  0  0  0  0  0
   27.2436    3.4682   32.6625 Br  0  0  0  0  0  0  0  0  0  0  0  0
   24.4334    2.8640   32.2549 C   0  0  0  0  0  0  0  0  0  0  0  0
   24.6649    1.7863   33.0764 O   0  0  0  0  0  0  0  0  0  0  0  0
   23.6365    0.7848   33.0935 C   0  0  0  0  0  0  0  0  0  0  0  0
   23.4308    0.4304   32.0773 H   0  0  0  0  0  0  0  0  0  0  0  0
   22.7120    1.1908   33.5171 H   0  0  0  0  0  0  0  0  0  0  0  0
   23.9563   -0.0670   33.7007 H   0  0  0  0  0  0  0  0  0  0  0  0
   23.1645    3.1173   31.7115 C   0  0  0  0  0  0  0  0  0  0  0  0
   22.3441    2.4500   31.9547 H   0  0  0  0  0  0  0  0  0  0  0  0
   22.9296    4.2011   30.8635 C   0  0  0  0  0  0  0  0  0  0  0  0
   21.5185    4.3748   30.3407 C   0  0  0  0  0  0  0  0  0  0  0  0
   21.5465    4.7324   29.3072 H   0  0  0  0  0  0  0  0  0  0  0  0
   20.9909    3.4182   30.3563 H   0  0  0  0  0  0  0  0  0  0  0  0
   20.7648    5.3856   31.1892 C   0  0  0  0  0  0  0  0  0  0  0  0
   19.6891    5.1562   31.7190 O   0  0  0  0  0  0  0  0  0  0  0  0
   21.2817    6.6314   31.2152 N   0  0  0  0  0  0  0  0  0  0  0  0
   22.0993    6.8211   30.6565 H   0  0  0  0  0  0  0  0  0  0  0  0
   20.7267    7.7346   31.7049 C   0  0  0  0  0  0  0  0  0  0  0  0
   21.4833    8.6974   31.2648 N   0  0  0  0  0  0  0  0  0  0  0  0
   21.2574    9.9662   31.6190 C   0  0  0  0  0  0  0  0  0  0  0  0
   22.2183   10.9449   31.0015 C   0  0  0  0  0  0  0  0  0  0  0  0
   22.3826   12.2278   31.2753 N   0  0  0  0  0  0  0  0  0  0  0  0
   23.4092   12.6298   30.4295 C   0  0  0  0  0  0  0  0  0  0  0  0
   23.9547   13.8930   30.3253 C   0  0  0  0  0  0  0  0  0  0  0  0
   23.5426   14.6476   30.9762 H   0  0  0  0  0  0  0  0  0  0  0  0
   24.9938   14.1313   29.4075 C   0  0  0  0  0  0  0  0  0  0  0  0
   25.4147   15.1237   29.2914 H   0  0  0  0  0  0  0  0  0  0  0  0
   25.4964   13.0792   28.6212 C   0  0  0  0  0  0  0  0  0  0  0  0
   26.3066   13.2383   27.9151 H   0  0  0  0  0  0  0  0  0  0  0  0
   24.9519   11.7951   28.7529 C   0  0  0  0  0  0  0  0  0  0  0  0
   25.3195   10.9512   28.1798 H   0  0  0  0  0  0  0  0  0  0  0  0
   23.9046   11.6052   29.6513 C   0  0  0  0  0  0  0  0  0  0  0  0
   23.1320   10.5458   30.0099 N   0  0  0  0  0  0  0  0  0  0  0  0
   23.2292    9.6100   29.6228 H   0  0  0  0  0  0  0  0  0  0  0  0
   20.2007   10.2519   32.5031 C   0  0  0  0  0  0  0  0  0  0  0  0
   19.9312   11.5766   32.9616 C   0  0  0  0  0  0  0  0  0  0  0  0
   19.7005   12.6473   33.3586 N   0  0  0  0  0  0  0  0  0  0  0  0
   19.4204    9.1828   32.9380 C   0  0  0  0  0  0  0  0  0  0  0  0
   18.4081    9.3436   33.8208 N   0  0  0  0  0  0  0  0  0  0  0  0
   17.7763    8.5547   33.9425 H   0  0  0  0  0  0  0  0  0  0  0  0
   18.0521   10.2865   33.9437 H   0  0  0  0  0  0  0  0  0  0  0  0
   19.6482    7.9030   32.5177 C   0  0  0  0  0  0  0  0  0  0  0  0
   19.0307    7.0766   32.8352 H   0  0  0  0  0  0  0  0  0  0  0  0
   23.9872    5.0939   30.5662 C   0  0  0  0  0  0  0  0  0  0  0  0
   23.7744    6.2034   29.7748 O   0  0  0  0  0  0  0  0  0  0  0  0
   24.9086    7.0758   29.6100 C   0  0  0  0  0  0  0  0  0  0  0  0
   25.2607    7.4351   30.5837 H   0  0  0  0  0  0  0  0  0  0  0  0
   25.7305    6.5431   29.1196 H   0  0  0  0  0  0  0  0  0  0  0  0
   24.6426    7.9422   28.9977 H   0  0  0  0  0  0  0  0  0  0  0  0
  1  2  1  0
  2  3  2  0
  3  4  1  0
  3  5  1  0
  5  6  1  0
  6  7  1  0
  7  8  1  0
  7  9  1  0
  7 10  1  0
  5 11  2  0
 11 12  1  0
 11 13  1  0
 13 14  1  0
 14 15  1  0
 14 16  1  0
 14 17  1  0
 17 18  2  0
 17 19  1  0
 19 20  1  0
 19 21  1  0
 21 22  2  0
 22 23  1  0
 23 24  1  0
 24 25  2  0
 25 26  1  0
 26 27  2  0
 27 28  1  0
 27 29  1  0
 29 30  1  0
 29 31  2  0
 31 32  1  0
 31 33  1  0
 33 34  1  0
 33 35  2  0
 35 36  1  0
 36 37  1  0
 23 38  2  0
 38 39  1  0
 39 40  3  0
 38 41  1  0
 41 42  1  0
 42 43  1  0
 42 44  1  0
 41 45  2  0
 45 46  1  0
 13 47  2  0
 47 48  1  0
 48 49  1  0
 49 50  1  0
 49 51  1  0
 49 52  1  0
 47  2  1  0
 45 21  1  0
 36 24  1  0
 35 26  1  0
M  END
>  <score>  (418) 
7.78677

$$$$

     RDKit          3D

 45 47  0  0  0  0  0  0  0  0999 V2000
   23.0076   14.5201   30.7392 H   0  0  0  0  0  0  0  0  0  0  0  0
   23.0181   13.4300   30.7853 C   0  0  0  0  0  0  0  0  0  0  0  0
   21.9857   12.6605   31.3272 N   0  0  0  0  0  0  0  0  0  0  0  0
   22.2419   11.3599   31.2259 C   0  0  0  0  0  0  0  0  0  0  0  0
   21.3871   10.2151   31.6907 C   0  0  0  0  0  0  0  0  0  0  0  0
   21.7491    8.9825   31.2944 N   0  0  0  0  0  0  0  0  0  0  0  0
   21.0513    7.9391   31.6829 C   0  0  0  0  0  0  0  0  0  0  0  0
   21.5969    6.7984   31.2315 N   0  0  0  0  0  0  0  0  0  0  0  0
   22.5127    6.8869   30.8160 H   0  0  0  0  0  0  0  0  0  0  0  0
   20.9166    5.6249   31.1071 C   0  0  0  0  0  0  0  0  0  0  0  0
   19.7517    5.5367   31.4606 O   0  0  0  0  0  0  0  0  0  0  0  0
   21.5808    4.5014   30.3397 C   0  0  0  0  0  0  0  0  0  0  0  0
   21.6496    4.7929   29.2885 H   0  0  0  0  0  0  0  0  0  0  0  0
   20.9560    3.6090   30.4100 H   0  0  0  0  0  0  0  0  0  0  0  0
   22.9666    4.2402   30.8857 C   0  0  0  0  0  0  0  0  0  0  0  0
   23.1722    3.1408   31.7293 C   0  0  0  0  0  0  0  0  0  0  0  0
   22.3414    2.4886   31.9764 H   0  0  0  0  0  0  0  0  0  0  0  0
   24.4413    2.8559   32.2651 C   0  0  0  0  0  0  0  0  0  0  0  0
   24.6769    1.7762   33.0862 O   0  0  0  0  0  0  0  0  0  0  0  0
   23.6633    0.7610   33.1116 C   0  0  0  0  0  0  0  0  0  0  0  0
   24.0061   -0.0812   33.7195 H   0  0  0  0  0  0  0  0  0  0  0  0
   23.4564    0.3941   32.1002 H   0  0  0  0  0  0  0  0  0  0  0  0
   22.7352    1.1469   33.5457 H   0  0  0  0  0  0  0  0  0  0  0  0
   25.5129    3.7072   31.9497 C   0  0  0  0  0  0  0  0  0  0  0  0
   27.2679    3.3844   32.6502 Br  0  0  0  0  0  0  0  0  0  0  0  0
   25.3111    4.8112   31.1154 C   0  0  0  0  0  0  0  0  0  0  0  0
   26.1530    5.4504   30.8670 H   0  0  0  0  0  0  0  0  0  0  0  0
   24.0438    5.1004   30.5845 C   0  0  0  0  0  0  0  0  0  0  0  0
   23.8219    6.2031   29.7888 O   0  0  0  0  0  0  0  0  0  0  0  0
   24.9287    7.1001   29.6074 C   0  0  0  0  0  0  0  0  0  0  0  0
   25.2800    7.4743   30.5745 H   0  0  0  0  0  0  0  0  0  0  0  0
   25.7592    6.5956   29.1023 H   0  0  0  0  0  0  0  0  0  0  0  0
   24.6196    7.9542   28.9969 H   0  0  0  0  0  0  0  0  0  0  0  0
   19.9495    8.0095   32.4861 C   0  0  0  0  0  0  0  0  0  0  0  0
   19.4147    7.1169   32.7642 H   0  0  0  0  0  0  0  0  0  0  0  0
   19.5637    9.2394   32.9165 C   0  0  0  0  0  0  0  0  0  0  0  0
   18.4986    9.2794   33.7663 N   0  0  0  0  0  0  0  0  0  0  0  0
   18.2239    8.3843   34.1655 H   0  0  0  0  0  0  0  0  0  0  0  0
   17.7433    9.9015   33.4985 H   0  0  0  0  0  0  0  0  0  0  0  0
   20.2612   10.3680   32.5140 C   0  0  0  0  0  0  0  0  0  0  0  0
   19.8584   11.6616   32.9526 C   0  0  0  0  0  0  0  0  0  0  0  0
   19.5331   12.7256   33.2873 N   0  0  0  0  0  0  0  0  0  0  0  0
   23.8009   10.9932   30.4889 S   0  0  0  0  0  0  0  0  0  0  0  0
   24.0724   12.7032   30.2986 C   0  0  0  0  0  0  0  0  0  0  0  0
   24.9600   13.1285   29.8383 H   0  0  0  0  0  0  0  0  0  0  0  0
  1  2  1  0
  2  3  1  0
  3  4  2  0
  4  5  1  0
  5  6  2  0
  6  7  1  0
  7  8  1  0
  8  9  1  0
  8 10  1  0
 10 11  2  0
 10 12  1  0
 12 13  1  0
 12 14  1  0
 12 15  1  0
 15 16  2  0
 16 17  1  0
 16 18  1  0
 18 19  1  0
 19 20  1  0
 20 21  1  0
 20 22  1  0
 20 23  1  0
 18 24  2  0
 24 25  1  0
 24 26  1  0
 26 27  1  0
 26 28  2  0
 28 29  1  0
 29 30  1  0
 30 31  1  0
 30 32  1  0
 30 33  1  0
  7 34  2  0
 34 35  1  0
 34 36  1  0
 36 37  1  0
 37 38  1  0
 37 39  1  0
 36 40  2  0
 40 41  1  0
 41 42  3  0
  4 43  1  0
 43 44  1  0
 44 45  1  0
 44  2  2  0
 40  5  1  0
 28 15  1  0
M  END
>  <score>  (419) 
7.78806

$$$$

     RDKit          3D

 52 54  0  0  0  0  0  0  0  0999 V2000
   26.7098    9.7734   27.8066 H   0  0  0  0  0  0  0  0  0  0  0  0
   25.8593   10.1498   28.3725 C   0  0  0  0  0  0  0  0  0  0  0  0
   25.8770   10.1208   29.7663 C   0  0  0  0  0  0  0  0  0  0  0  0
   26.7410    9.7048   30.2661 H   0  0  0  0  0  0  0  0  0  0  0  0
   24.8079   10.6242   30.5150 C   0  0  0  0  0  0  0  0  0  0  0  0
   24.8825   10.5859   31.5988 H   0  0  0  0  0  0  0  0  0  0  0  0
   23.6835   11.1636   29.8652 C   0  0  0  0  0  0  0  0  0  0  0  0
   22.2611   11.8483   30.8169 S   0  0  0  0  0  0  0  0  0  0  0  0
   21.3757   12.6107   29.9017 O   0  0  0  0  0  0  0  0  0  0  0  0
   22.7645   12.7954   31.8356 O   0  0  0  0  0  0  0  0  0  0  0  0
   21.3559   10.3734   31.6039 C   0  0  0  0  0  0  0  0  0  0  0  0
   21.7253    9.0963   31.2975 N   0  0  0  0  0  0  0  0  0  0  0  0
   21.0491    8.0482   31.7487 C   0  0  0  0  0  0  0  0  0  0  0  0
   21.5617    6.8844   31.2957 N   0  0  0  0  0  0  0  0  0  0  0  0
   22.4167    6.9726   30.7643 H   0  0  0  0  0  0  0  0  0  0  0  0
   20.8671    5.7138   31.2017 C   0  0  0  0  0  0  0  0  0  0  0  0
   19.7480    5.6237   31.6785 O   0  0  0  0  0  0  0  0  0  0  0  0
   21.4857    4.5510   30.4460 C   0  0  0  0  0  0  0  0  0  0  0  0
   20.8720    3.6592   30.5983 H   0  0  0  0  0  0  0  0  0  0  0  0
   21.4924    4.7795   29.3784 H   0  0  0  0  0  0  0  0  0  0  0  0
   22.8933    4.3013   30.9338 C   0  0  0  0  0  0  0  0  0  0  0  0
   23.1169    3.1834   31.7456 C   0  0  0  0  0  0  0  0  0  0  0  0
   22.2935    2.5209   31.9945 H   0  0  0  0  0  0  0  0  0  0  0  0
   24.3928    2.8907   32.2540 C   0  0  0  0  0  0  0  0  0  0  0  0
   24.6428    1.7866   33.0338 O   0  0  0  0  0  0  0  0  0  0  0  0
   23.6043    0.7989   33.0708 C   0  0  0  0  0  0  0  0  0  0  0  0
   23.9214   -0.0485   33.6856 H   0  0  0  0  0  0  0  0  0  0  0  0
   23.3845    0.4333   32.0615 H   0  0  0  0  0  0  0  0  0  0  0  0
   22.6908    1.2215   33.5009 H   0  0  0  0  0  0  0  0  0  0  0  0
   25.4526    3.7581   31.9532 C   0  0  0  0  0  0  0  0  0  0  0  0
   27.2132    3.4475   32.6386 Br  0  0  0  0  0  0  0  0  0  0  0  0
   25.2340    4.8746   31.1436 C   0  0  0  0  0  0  0  0  0  0  0  0
   26.0632    5.5323   30.9055 H   0  0  0  0  0  0  0  0  0  0  0  0
   23.9636    5.1711   30.6263 C   0  0  0  0  0  0  0  0  0  0  0  0
   23.7486    6.2946   29.8554 O   0  0  0  0  0  0  0  0  0  0  0  0
   24.9031    7.1230   29.6256 C   0  0  0  0  0  0  0  0  0  0  0  0
   25.2999    7.5015   30.5748 H   0  0  0  0  0  0  0  0  0  0  0  0
   25.6905    6.5493   29.1235 H   0  0  0  0  0  0  0  0  0  0  0  0
   24.6407    7.9771   28.9944 H   0  0  0  0  0  0  0  0  0  0  0  0
   19.9604    8.1641   32.5684 C   0  0  0  0  0  0  0  0  0  0  0  0
   19.4328    7.2924   32.9195 H   0  0  0  0  0  0  0  0  0  0  0  0
   19.5935    9.4191   32.9545 C   0  0  0  0  0  0  0  0  0  0  0  0
   18.5086    9.5011   33.7709 N   0  0  0  0  0  0  0  0  0  0  0  0
   17.9003    8.6836   33.7727 H   0  0  0  0  0  0  0  0  0  0  0  0
   18.0960   10.4213   33.9026 H   0  0  0  0  0  0  0  0  0  0  0  0
   20.2771   10.5474   32.5084 C   0  0  0  0  0  0  0  0  0  0  0  0
   19.8815   11.8372   32.9853 C   0  0  0  0  0  0  0  0  0  0  0  0
   19.5725   12.8808   33.4014 N   0  0  0  0  0  0  0  0  0  0  0  0
   23.6649   11.1785   28.4624 C   0  0  0  0  0  0  0  0  0  0  0  0
   22.8107   11.5927   27.9379 H   0  0  0  0  0  0  0  0  0  0  0  0
   24.7463   10.6845   27.7221 C   0  0  0  0  0  0  0  0  0  0  0  0
   24.7291   10.7171   26.6380 H   0  0  0  0  0  0  0  0  0  0  0  0
  1  2  1  0
  2  3  2  0
  3  4  1  0
  3  5  1  0
  5  6  1  0
  5  7  2  0
  7  8  1  0
  8  9  2  0
  8 10  2  0
  8 11  1  0
 11 12  2  0
 12 13  1  0
 13 14  1  0
 14 15  1  0
 14 16  1  0
 16 17  2  0
 16 18  1  0
 18 19  1  0
 18 20  1  0
 18 21  1  0
 21 22  2  0
 22 23  1  0
 22 24  1  0
 24 25  1  0
 25 26  1  0
 26 27  1  0
 26 28  1  0
 26 29  1  0
 24 30  2  0
 30 31  1  0
 30 32  1  0
 32 33  1  0
 32 34  2  0
 34 35  1  0
 35 36  1  0
 36 37  1  0
 36 38  1  0
 36 39  1  0
 13 40  2  0
 40 41  1  0
 40 42  1  0
 42 43  1  0
 43 44  1  0
 43 45  1  0
 42 46  2  0
 46 47  1  0
 47 48  3  0
  7 49  1  0
 49 50  1  0
 49 51  2  0
 51 52  1  0
 51  2  1  0
 46 11  1  0
 34 21  1  0
M  END
>  <score>  (420) 
7.78842

$$$$

     RDKit          3D

 52 54  0  0  0  0  0  0  0  0999 V2000
   23.9738   10.1694   31.6058 H   0  0  0  0  0  0  0  0  0  0  0  0
   23.5654   11.0838   31.1852 C   0  0  0  0  0  0  0  0  0  0  0  0
   24.4136   11.9912   30.7085 N   0  0  0  0  0  0  0  0  0  0  0  0
   23.9071   13.1069   30.1674 C   0  0  0  0  0  0  0  0  0  0  0  0
   24.7231   14.0237   29.5735 O   0  0  0  0  0  0  0  0  0  0  0  0
   26.0470   13.5712   29.2662 C   0  0  0  0  0  0  0  0  0  0  0  0
   26.4037   14.0575   28.3531 H   0  0  0  0  0  0  0  0  0  0  0  0
   26.7258   13.8348   30.0774 H   0  0  0  0  0  0  0  0  0  0  0  0
   26.0759   12.4822   29.1254 H   0  0  0  0  0  0  0  0  0  0  0  0
   22.5420   13.3620   30.1247 C   0  0  0  0  0  0  0  0  0  0  0  0
   22.2241   14.2753   29.6398 H   0  0  0  0  0  0  0  0  0  0  0  0
   21.6423   12.4396   30.6363 C   0  0  0  0  0  0  0  0  0  0  0  0
   20.5700   12.6267   30.5679 H   0  0  0  0  0  0  0  0  0  0  0  0
   22.1866   11.2715   31.1718 C   0  0  0  0  0  0  0  0  0  0  0  0
   21.3893   10.1923   31.6864 C   0  0  0  0  0  0  0  0  0  0  0  0
   21.8332    8.9818   31.3705 N   0  0  0  0  0  0  0  0  0  0  0  0
   21.1712    7.9437   31.8115 C   0  0  0  0  0  0  0  0  0  0  0  0
   21.6840    6.8124   31.3023 N   0  0  0  0  0  0  0  0  0  0  0  0
   22.5162    6.9544   30.7499 H   0  0  0  0  0  0  0  0  0  0  0  0
   20.9550    5.6743   31.1216 C   0  0  0  0  0  0  0  0  0  0  0  0
   19.8069    5.5975   31.5366 O   0  0  0  0  0  0  0  0  0  0  0  0
   21.5632    4.4994   30.3782 C   0  0  0  0  0  0  0  0  0  0  0  0
   21.5775    4.7163   29.3085 H   0  0  0  0  0  0  0  0  0  0  0  0
   20.9380    3.6195   30.5444 H   0  0  0  0  0  0  0  0  0  0  0  0
   22.9633    4.2379   30.8766 C   0  0  0  0  0  0  0  0  0  0  0  0
   23.1820    3.1253   31.6948 C   0  0  0  0  0  0  0  0  0  0  0  0
   22.3596    2.4569   31.9293 H   0  0  0  0  0  0  0  0  0  0  0  0
   24.4463    2.8535   32.2421 C   0  0  0  0  0  0  0  0  0  0  0  0
   24.6717    1.7635   33.0505 O   0  0  0  0  0  0  0  0  0  0  0  0
   23.6214    0.7862   33.0820 C   0  0  0  0  0  0  0  0  0  0  0  0
   23.9236   -0.0666   33.6964 H   0  0  0  0  0  0  0  0  0  0  0  0
   23.4032    0.4277   32.0698 H   0  0  0  0  0  0  0  0  0  0  0  0
   22.7090    1.2177   33.5068 H   0  0  0  0  0  0  0  0  0  0  0  0
   25.5041    3.7324   31.9597 C   0  0  0  0  0  0  0  0  0  0  0  0
   27.2516    3.4501   32.6896 Br  0  0  0  0  0  0  0  0  0  0  0  0
   25.2904    4.8407   31.1356 C   0  0  0  0  0  0  0  0  0  0  0  0
   26.1133    5.5134   30.9176 H   0  0  0  0  0  0  0  0  0  0  0  0
   24.0278    5.1151   30.5885 C   0  0  0  0  0  0  0  0  0  0  0  0
   23.8044    6.2321   29.8129 O   0  0  0  0  0  0  0  0  0  0  0  0
   24.9376    7.0932   29.6183 C   0  0  0  0  0  0  0  0  0  0  0  0
   25.3066    7.4608   30.5822 H   0  0  0  0  0  0  0  0  0  0  0  0
   24.6611    7.9525   29.0004 H   0  0  0  0  0  0  0  0  0  0  0  0
   25.7462    6.5500   29.1176 H   0  0  0  0  0  0  0  0  0  0  0  0
   20.0769    8.0142   32.6209 C   0  0  0  0  0  0  0  0  0  0  0  0
   19.5940    7.1246   32.9867 H   0  0  0  0  0  0  0  0  0  0  0  0
   19.6177    9.2552   32.9269 C   0  0  0  0  0  0  0  0  0  0  0  0
   18.4793    9.3087   33.6606 N   0  0  0  0  0  0  0  0  0  0  0  0
   17.8513   10.0780   33.4324 H   0  0  0  0  0  0  0  0  0  0  0  0
   18.0684    8.4019   33.8820 H   0  0  0  0  0  0  0  0  0  0  0  0
   20.2583   10.3792   32.4661 C   0  0  0  0  0  0  0  0  0  0  0  0
   19.8128   11.6803   32.8335 C   0  0  0  0  0  0  0  0  0  0  0  0
   19.4645   12.7497   33.1286 N   0  0  0  0  0  0  0  0  0  0  0  0
  1  2  1  0
  2  3  2  0
  3  4  1  0
  4  5  1  0
  5  6  1  0
  6  7  1  0
  6  8  1  0
  6  9  1  0
  4 10  2  0
 10 11  1  0
 10 12  1  0
 12 13  1  0
 12 14  2  0
 14 15  1  0
 15 16  2  0
 16 17  1  0
 17 18  1  0
 18 19  1  0
 18 20  1  0
 20 21  2  0
 20 22  1  0
 22 23  1  0
 22 24  1  0
 22 25  1  0
 25 26  2  0
 26 27  1  0
 26 28  1  0
 28 29  1  0
 29 30  1  0
 30 31  1  0
 30 32  1  0
 30 33  1  0
 28 34  2  0
 34 35  1  0
 34 36  1  0
 36 37  1  0
 36 38  2  0
 38 39  1  0
 39 40  1  0
 40 41  1  0
 40 42  1  0
 40 43  1  0
 17 44  2  0
 44 45  1  0
 44 46  1  0
 46 47  1  0
 47 48  1  0
 47 49  1  0
 46 50  2  0
 50 51  1  0
 51 52  3  0
 14  2  1  0
 50 15  1  0
 38 25  1  0
M  END
>  <score>  (421) 
7.78927

$$$$

     RDKit          3D

 49 51  0  0  0  0  0  0  0  0999 V2000
   23.9281   14.1189   31.3596 H   0  0  0  0  0  0  0  0  0  0  0  0
   23.4200   13.2003   31.0874 C   0  0  0  0  0  0  0  0  0  0  0  0
   23.6429   12.5276   29.9856 N   0  0  0  0  0  0  0  0  0  0  0  0
   22.8317   11.4347   30.0371 N   0  0  0  0  0  0  0  0  0  0  0  0
   22.5270   10.6097   28.8650 C   0  0  0  0  0  0  0  0  0  0  0  0
   23.0443    9.6464   28.9123 H   0  0  0  0  0  0  0  0  0  0  0  0
   22.8444   11.1347   27.9624 H   0  0  0  0  0  0  0  0  0  0  0  0
   21.4446   10.4502   28.8148 H   0  0  0  0  0  0  0  0  0  0  0  0
   22.1340   11.3754   31.2355 C   0  0  0  0  0  0  0  0  0  0  0  0
   21.2942   10.2554   31.6584 C   0  0  0  0  0  0  0  0  0  0  0  0
   21.6579    9.0606   31.1913 N   0  0  0  0  0  0  0  0  0  0  0  0
   21.0314    7.9986   31.6250 C   0  0  0  0  0  0  0  0  0  0  0  0
   21.5887    6.8835   31.1268 N   0  0  0  0  0  0  0  0  0  0  0  0
   22.4381    7.0177   30.5946 H   0  0  0  0  0  0  0  0  0  0  0  0
   20.9230    5.6965   31.0558 C   0  0  0  0  0  0  0  0  0  0  0  0
   19.7752    5.6080   31.4633 O   0  0  0  0  0  0  0  0  0  0  0  0
   21.5765    4.5246   30.3470 C   0  0  0  0  0  0  0  0  0  0  0  0
   21.6467    4.7546   29.2820 H   0  0  0  0  0  0  0  0  0  0  0  0
   20.9438    3.6424   30.4633 H   0  0  0  0  0  0  0  0  0  0  0  0
   22.9613    4.2595   30.8953 C   0  0  0  0  0  0  0  0  0  0  0  0
   23.1715    3.1532   31.7316 C   0  0  0  0  0  0  0  0  0  0  0  0
   22.3434    2.4977   31.9817 H   0  0  0  0  0  0  0  0  0  0  0  0
   24.4425    2.8669   32.2632 C   0  0  0  0  0  0  0  0  0  0  0  0
   24.6754    1.7801   33.0755 O   0  0  0  0  0  0  0  0  0  0  0  0
   23.6520    0.7748   33.0988 C   0  0  0  0  0  0  0  0  0  0  0  0
   22.7285    1.1752   33.5285 H   0  0  0  0  0  0  0  0  0  0  0  0
   23.9808   -0.0732   33.7072 H   0  0  0  0  0  0  0  0  0  0  0  0
   23.4428    0.4131   32.0863 H   0  0  0  0  0  0  0  0  0  0  0  0
   25.5126    3.7219   31.9537 C   0  0  0  0  0  0  0  0  0  0  0  0
   27.2699    3.4074   32.6508 Br  0  0  0  0  0  0  0  0  0  0  0  0
   25.3066    4.8246   31.1193 C   0  0  0  0  0  0  0  0  0  0  0  0
   26.1419    5.4718   30.8729 H   0  0  0  0  0  0  0  0  0  0  0  0
   24.0392    5.1148   30.5898 C   0  0  0  0  0  0  0  0  0  0  0  0
   23.8183    6.2214   29.7984 O   0  0  0  0  0  0  0  0  0  0  0  0
   24.9387    7.0997   29.6147 C   0  0  0  0  0  0  0  0  0  0  0  0
   24.6498    7.9505   28.9907 H   0  0  0  0  0  0  0  0  0  0  0  0
   25.7626    6.5711   29.1238 H   0  0  0  0  0  0  0  0  0  0  0  0
   25.2901    7.4796   30.5801 H   0  0  0  0  0  0  0  0  0  0  0  0
   19.9814    8.0328   32.4972 C   0  0  0  0  0  0  0  0  0  0  0  0
   19.5131    7.1342   32.8585 H   0  0  0  0  0  0  0  0  0  0  0  0
   19.5673    9.2574   32.9213 C   0  0  0  0  0  0  0  0  0  0  0  0
   18.4885    9.3127   33.7348 N   0  0  0  0  0  0  0  0  0  0  0  0
   18.1397    8.4365   34.1243 H   0  0  0  0  0  0  0  0  0  0  0  0
   17.8380   10.0745   33.5714 H   0  0  0  0  0  0  0  0  0  0  0  0
   20.2249   10.3984   32.5317 C   0  0  0  0  0  0  0  0  0  0  0  0
   19.8137   11.6721   33.0243 C   0  0  0  0  0  0  0  0  0  0  0  0
   19.4802   12.7070   33.4362 N   0  0  0  0  0  0  0  0  0  0  0  0
   22.4309   12.5335   31.9021 C   0  0  0  0  0  0  0  0  0  0  0  0
   22.0806   12.8446   32.8829 H   0  0  0  0  0  0  0  0  0  0  0  0
  1  2  1  0
  2  3  2  0
  3  4  1  0
  4  5  1  0
  5  6  1  0
  5  7  1  0
  5  8  1  0
  4  9  1  0
  9 10  1  0
 10 11  2  0
 11 12  1  0
 12 13  1  0
 13 14  1  0
 13 15  1  0
 15 16  2  0
 15 17  1  0
 17 18  1  0
 17 19  1  0
 17 20  1  0
 20 21  2  0
 21 22  1  0
 21 23  1  0
 23 24  1  0
 24 25  1  0
 25 26  1  0
 25 27  1  0
 25 28  1  0
 23 29  2  0
 29 30  1  0
 29 31  1  0
 31 32  1  0
 31 33  2  0
 33 34  1  0
 34 35  1  0
 35 36  1  0
 35 37  1  0
 35 38  1  0
 12 39  2  0
 39 40  1  0
 39 41  1  0
 41 42  1  0
 42 43  1  0
 42 44  1  0
 41 45  2  0
 45 46  1  0
 46 47  3  0
  9 48  2  0
 48 49  1  0
 48  2  1  0
 45 10  1  0
 33 20  1  0
M  END
>  <score>  (422) 
7.7959

$$$$

     RDKit          3D

 66 69  0  0  0  0  0  0  0  0999 V2000
   26.1092    5.5086   30.9004 H   0  0  0  0  0  0  0  0  0  0  0  0
   25.2785    4.8498   31.1303 C   0  0  0  0  0  0  0  0  0  0  0  0
   25.4895    3.7424   31.9549 C   0  0  0  0  0  0  0  0  0  0  0  0
   27.2401    3.4363   32.6677 Br  0  0  0  0  0  0  0  0  0  0  0  0
   24.4264    2.8755   32.2490 C   0  0  0  0  0  0  0  0  0  0  0  0
   24.6542    1.7795   33.0471 O   0  0  0  0  0  0  0  0  0  0  0  0
   23.6092    0.7974   33.0731 C   0  0  0  0  0  0  0  0  0  0  0  0
   23.9183   -0.0535   33.6868 H   0  0  0  0  0  0  0  0  0  0  0  0
   23.3942    0.4379   32.0605 H   0  0  0  0  0  0  0  0  0  0  0  0
   22.6948    1.2230   33.4988 H   0  0  0  0  0  0  0  0  0  0  0  0
   23.1590    3.1597   31.7198 C   0  0  0  0  0  0  0  0  0  0  0  0
   22.3276    2.5069   31.9651 H   0  0  0  0  0  0  0  0  0  0  0  0
   22.9451    4.2640   30.8916 C   0  0  0  0  0  0  0  0  0  0  0  0
   21.5437    4.5121   30.3954 C   0  0  0  0  0  0  0  0  0  0  0  0
   20.9298    3.6202   30.5451 H   0  0  0  0  0  0  0  0  0  0  0  0
   21.5548    4.7404   29.3269 H   0  0  0  0  0  0  0  0  0  0  0  0
   20.9291    5.6739   31.1622 C   0  0  0  0  0  0  0  0  0  0  0  0
   19.7774    5.6042   31.5604 O   0  0  0  0  0  0  0  0  0  0  0  0
   21.6523    6.8155   31.3272 N   0  0  0  0  0  0  0  0  0  0  0  0
   22.5318    6.9065   30.8372 H   0  0  0  0  0  0  0  0  0  0  0  0
   21.1289    7.9781   31.7476 C   0  0  0  0  0  0  0  0  0  0  0  0
   21.8893    8.9758   31.3905 N   0  0  0  0  0  0  0  0  0  0  0  0
   21.4752   10.1970   31.6948 C   0  0  0  0  0  0  0  0  0  0  0  0
   22.2843   11.2317   31.2583 N   0  0  0  0  0  0  0  0  0  0  0  0
   23.7355   10.9794   31.1373 C   0  0  0  0  0  0  0  0  0  0  0  0
   24.1726   10.7122   32.1055 H   0  0  0  0  0  0  0  0  0  0  0  0
   23.9358   10.1539   30.4417 H   0  0  0  0  0  0  0  0  0  0  0  0
   24.3680   12.2504   30.6221 C   0  0  0  0  0  0  0  0  0  0  0  0
   25.4586   12.1792   30.6509 H   0  0  0  0  0  0  0  0  0  0  0  0
   24.0465   13.0968   31.2438 H   0  0  0  0  0  0  0  0  0  0  0  0
   23.9008   12.4850   29.1891 C   0  0  0  0  0  0  0  0  0  0  0  0
   24.4200   11.7836   28.5254 H   0  0  0  0  0  0  0  0  0  0  0  0
   24.2616   13.8614   28.8192 N   0  0  0  0  0  0  0  0  0  0  0  0
   24.3279   14.1406   27.3800 C   0  0  0  0  0  0  0  0  0  0  0  0
   23.9343   15.1421   27.1827 H   0  0  0  0  0  0  0  0  0  0  0  0
   23.7526   13.4286   26.7942 H   0  0  0  0  0  0  0  0  0  0  0  0
   25.8160   14.0731   27.0146 C   0  0  0  0  0  0  0  0  0  0  0  0
   26.0999   14.9540   26.4290 H   0  0  0  0  0  0  0  0  0  0  0  0
   26.0407   13.1731   26.4334 H   0  0  0  0  0  0  0  0  0  0  0  0
   26.5731   14.0414   28.3402 C   0  0  0  0  0  0  0  0  0  0  0  0
   27.4089   14.7505   28.3637 H   0  0  0  0  0  0  0  0  0  0  0  0
   26.9575   13.0358   28.5453 H   0  0  0  0  0  0  0  0  0  0  0  0
   25.5109   14.4144   29.3512 C   0  0  0  0  0  0  0  0  0  0  0  0
   25.7466   14.0391   30.3520 H   0  0  0  0  0  0  0  0  0  0  0  0
   25.4191   15.5004   29.3843 H   0  0  0  0  0  0  0  0  0  0  0  0
   22.3771   12.2786   29.0459 C   0  0  0  0  0  0  0  0  0  0  0  0
   22.1907   11.3281   28.5373 H   0  0  0  0  0  0  0  0  0  0  0  0
   21.9570   13.0740   28.4287 H   0  0  0  0  0  0  0  0  0  0  0  0
   21.6649   12.2693   30.4046 C   0  0  0  0  0  0  0  0  0  0  0  0
   21.7581   13.2536   30.8798 H   0  0  0  0  0  0  0  0  0  0  0  0
   20.5949   12.0667   30.2642 H   0  0  0  0  0  0  0  0  0  0  0  0
   20.3063   10.4478   32.3769 C   0  0  0  0  0  0  0  0  0  0  0  0
   19.9536   11.7836   32.7237 C   0  0  0  0  0  0  0  0  0  0  0  0
   19.7324   12.8842   33.0287 N   0  0  0  0  0  0  0  0  0  0  0  0
   19.5595    9.3646   32.7340 C   0  0  0  0  0  0  0  0  0  0  0  0
   18.4088    9.4959   33.4072 N   0  0  0  0  0  0  0  0  0  0  0  0
   18.2412   10.3945   33.8469 H   0  0  0  0  0  0  0  0  0  0  0  0
   18.0661    8.6539   33.8575 H   0  0  0  0  0  0  0  0  0  0  0  0
   19.9607    8.1053   32.4412 C   0  0  0  0  0  0  0  0  0  0  0  0
   19.3852    7.2504   32.7516 H   0  0  0  0  0  0  0  0  0  0  0  0
   24.0138    5.1373   30.5955 C   0  0  0  0  0  0  0  0  0  0  0  0
   23.8005    6.2571   29.8196 O   0  0  0  0  0  0  0  0  0  0  0  0
   24.9398    7.1101   29.6186 C   0  0  0  0  0  0  0  0  0  0  0  0
   25.3139    7.4788   30.5795 H   0  0  0  0  0  0  0  0  0  0  0  0
   25.7429    6.5596   29.1176 H   0  0  0  0  0  0  0  0  0  0  0  0
   24.6682    7.9694   28.9984 H   0  0  0  0  0  0  0  0  0  0  0  0
  1  2  1  0
  2  3  2  0
  3  4  1  0
  3  5  1  0
  5  6  1  0
  6  7  1  0
  7  8  1  0
  7  9  1  0
  7 10  1  0
  5 11  2  0
 11 12  1  0
 11 13  1  0
 13 14  1  0
 14 15  1  0
 14 16  1  0
 14 17  1  0
 17 18  2  0
 17 19  1  0
 19 20  1  0
 19 21  1  0
 21 22  2  0
 22 23  1  0
 23 24  1  0
 24 25  1  0
 25 26  1  0
 25 27  1  0
 25 28  1  0
 28 29  1  0
 28 30  1  0
 28 31  1  0
 31 32  1  0
 31 33  1  0
 33 34  1  0
 34 35  1  0
 34 36  1  0
 34 37  1  0
 37 38  1  0
 37 39  1  0
 37 40  1  0
 40 41  1  0
 40 42  1  0
 40 43  1  0
 43 44  1  0
 43 45  1  0
 31 46  1  0
 46 47  1  0
 46 48  1  0
 46 49  1  0
 49 50  1  0
 49 51  1  0
 23 52  2  0
 52 53  1  0
 53 54  3  0
 52 55  1  0
 55 56  1  0
 56 57  1  0
 56 58  1  0
 55 59  2  0
 59 60  1  0
 13 61  2  0
 61 62  1  0
 62 63  1  0
 63 64  1  0
 63 65  1  0
 63 66  1  0
 61  2  1  0
 59 21  1  0
 49 24  1  0
 43 33  1  0
M  END
>  <score>  (423) 
7.79628

$$$$

     RDKit          3D

 53 56  0  0  0  0  0  0  0  0999 V2000
   26.1319    5.4659   30.8715 H   0  0  0  0  0  0  0  0  0  0  0  0
   25.2973    4.8174   31.1108 C   0  0  0  0  0  0  0  0  0  0  0  0
   25.5108    3.7207   31.9473 C   0  0  0  0  0  0  0  0  0  0  0  0
   27.2665    3.4256   32.6541 Br  0  0  0  0  0  0  0  0  0  0  0  0
   24.4449    2.8622   32.2571 C   0  0  0  0  0  0  0  0  0  0  0  0
   24.6759    1.7796   33.0739 O   0  0  0  0  0  0  0  0  0  0  0  0
   23.6518    0.7745   33.0990 C   0  0  0  0  0  0  0  0  0  0  0  0
   22.7297    1.1789   33.5299 H   0  0  0  0  0  0  0  0  0  0  0  0
   23.9783   -0.0750   33.7084 H   0  0  0  0  0  0  0  0  0  0  0  0
   23.4455    0.4154   32.0841 H   0  0  0  0  0  0  0  0  0  0  0  0
   23.1724    3.1405   31.7271 C   0  0  0  0  0  0  0  0  0  0  0  0
   22.3455    2.4829   31.9737 H   0  0  0  0  0  0  0  0  0  0  0  0
   22.9516    4.2454   30.8947 C   0  0  0  0  0  0  0  0  0  0  0  0
   21.5518    4.5144   30.3713 C   0  0  0  0  0  0  0  0  0  0  0  0
   20.9354    3.6160   30.4387 H   0  0  0  0  0  0  0  0  0  0  0  0
   21.6028    4.8076   29.3206 H   0  0  0  0  0  0  0  0  0  0  0  0
   20.8848    5.6426   31.1486 C   0  0  0  0  0  0  0  0  0  0  0  0
   19.7164    5.5714   31.4947 O   0  0  0  0  0  0  0  0  0  0  0  0
   21.5969    6.7774   31.3745 N   0  0  0  0  0  0  0  0  0  0  0  0
   22.4588    6.9003   30.8663 H   0  0  0  0  0  0  0  0  0  0  0  0
   21.0658    7.9240   31.8330 C   0  0  0  0  0  0  0  0  0  0  0  0
   21.8232    8.9283   31.4743 N   0  0  0  0  0  0  0  0  0  0  0  0
   21.4310   10.1665   31.7771 C   0  0  0  0  0  0  0  0  0  0  0  0
   22.2734   11.2604   31.2507 C   0  0  0  0  0  0  0  0  0  0  0  0
   23.6761   11.2154   31.4126 C   0  0  0  0  0  0  0  0  0  0  0  0
   24.1415   10.3976   31.9610 H   0  0  0  0  0  0  0  0  0  0  0  0
   24.4888   12.2117   30.8602 C   0  0  0  0  0  0  0  0  0  0  0  0
   25.5621   12.1866   30.9787 H   0  0  0  0  0  0  0  0  0  0  0  0
   23.9137   13.2061   30.0784 C   0  0  0  0  0  0  0  0  0  0  0  0
   24.5108   14.2521   29.2699 C   0  0  0  0  0  0  0  0  0  0  0  0
   25.5746   14.4399   29.1627 H   0  0  0  0  0  0  0  0  0  0  0  0
   23.4870   14.9232   28.6498 C   0  0  0  0  0  0  0  0  0  0  0  0
   23.6040   15.7497   27.9551 H   0  0  0  0  0  0  0  0  0  0  0  0
   22.2913   14.3378   29.0620 N   0  0  0  0  0  0  0  0  0  0  0  0
   21.3654   14.5908   28.7242 H   0  0  0  0  0  0  0  0  0  0  0  0
   22.5396   13.2752   29.9162 C   0  0  0  0  0  0  0  0  0  0  0  0
   21.7039   12.3276   30.5150 C   0  0  0  0  0  0  0  0  0  0  0  0
   20.6360   12.3939   30.3265 H   0  0  0  0  0  0  0  0  0  0  0  0
   20.2577   10.3944   32.4871 C   0  0  0  0  0  0  0  0  0  0  0  0
   19.8847   11.7218   32.8511 C   0  0  0  0  0  0  0  0  0  0  0  0
   19.6158   12.8079   33.1600 N   0  0  0  0  0  0  0  0  0  0  0  0
   19.4856    9.3098   32.8368 C   0  0  0  0  0  0  0  0  0  0  0  0
   18.3072    9.4595   33.4857 N   0  0  0  0  0  0  0  0  0  0  0  0
   17.9257    8.6243   33.9277 H   0  0  0  0  0  0  0  0  0  0  0  0
   18.1346   10.3683   33.9092 H   0  0  0  0  0  0  0  0  0  0  0  0
   19.8903    8.0475   32.5219 C   0  0  0  0  0  0  0  0  0  0  0  0
   19.3026    7.1850   32.7829 H   0  0  0  0  0  0  0  0  0  0  0  0
   24.0277    5.1028   30.5843 C   0  0  0  0  0  0  0  0  0  0  0  0
   23.8092    6.2062   29.7892 O   0  0  0  0  0  0  0  0  0  0  0  0
   24.9302    7.0871   29.6161 C   0  0  0  0  0  0  0  0  0  0  0  0
   24.6402    7.9474   29.0055 H   0  0  0  0  0  0  0  0  0  0  0  0
   25.2817    7.4519   30.5879 H   0  0  0  0  0  0  0  0  0  0  0  0
   25.7532    6.5648   29.1154 H   0  0  0  0  0  0  0  0  0  0  0  0
  1  2  1  0
  2  3  2  0
  3  4  1  0
  3  5  1  0
  5  6  1  0
  6  7  1  0
  7  8  1  0
  7  9  1  0
  7 10  1  0
  5 11  2  0
 11 12  1  0
 11 13  1  0
 13 14  1  0
 14 15  1  0
 14 16  1  0
 14 17  1  0
 17 18  2  0
 17 19  1  0
 19 20  1  0
 19 21  1  0
 21 22  2  0
 22 23  1  0
 23 24  1  0
 24 25  2  0
 25 26  1  0
 25 27  1  0
 27 28  1  0
 27 29  2  0
 29 30  1  0
 30 31  1  0
 30 32  2  0
 32 33  1  0
 32 34  1  0
 34 35  1  0
 34 36  1  0
 36 37  2  0
 37 38  1  0
 23 39  2  0
 39 40  1  0
 40 41  3  0
 39 42  1  0
 42 43  1  0
 43 44  1  0
 43 45  1  0
 42 46  2  0
 46 47  1  0
 13 48  2  0
 48 49  1  0
 49 50  1  0
 50 51  1  0
 50 52  1  0
 50 53  1  0
 48  2  1  0
 46 21  1  0
 37 24  1  0
 36 29  1  0
M  END
>  <score>  (424) 
7.8026

$$$$

     RDKit          3D

 56 59  0  0  0  0  0  0  0  0999 V2000
   26.1376    5.4604   30.8686 H   0  0  0  0  0  0  0  0  0  0  0  0
   25.2972    4.8203   31.1162 C   0  0  0  0  0  0  0  0  0  0  0  0
   25.5032    3.7189   31.9485 C   0  0  0  0  0  0  0  0  0  0  0  0
   27.2581    3.4100   32.6526 Br  0  0  0  0  0  0  0  0  0  0  0  0
   24.4328    2.8669   32.2588 C   0  0  0  0  0  0  0  0  0  0  0  0
   24.6698    1.7806   33.0678 O   0  0  0  0  0  0  0  0  0  0  0  0
   23.6475    0.7759   33.0965 C   0  0  0  0  0  0  0  0  0  0  0  0
   23.9796   -0.0687   33.7071 H   0  0  0  0  0  0  0  0  0  0  0  0
   22.7256    1.1762   33.5299 H   0  0  0  0  0  0  0  0  0  0  0  0
   23.4386    0.4104   32.0852 H   0  0  0  0  0  0  0  0  0  0  0  0
   23.1602    3.1582   31.7343 C   0  0  0  0  0  0  0  0  0  0  0  0
   22.3306    2.5029   31.9774 H   0  0  0  0  0  0  0  0  0  0  0  0
   22.9464    4.2659   30.9041 C   0  0  0  0  0  0  0  0  0  0  0  0
   21.5480    4.5377   30.3833 C   0  0  0  0  0  0  0  0  0  0  0  0
   21.6017    4.8091   29.3249 H   0  0  0  0  0  0  0  0  0  0  0  0
   20.9219    3.6448   30.4695 H   0  0  0  0  0  0  0  0  0  0  0  0
   20.8964    5.6760   31.1577 C   0  0  0  0  0  0  0  0  0  0  0  0
   19.7393    5.5998   31.5387 O   0  0  0  0  0  0  0  0  0  0  0  0
   21.6030    6.8265   31.3371 N   0  0  0  0  0  0  0  0  0  0  0  0
   22.4898    6.9187   30.8630 H   0  0  0  0  0  0  0  0  0  0  0  0
   21.0734    7.9842   31.7617 C   0  0  0  0  0  0  0  0  0  0  0  0
   21.8345    8.9844   31.3844 N   0  0  0  0  0  0  0  0  0  0  0  0
   21.4952   10.2521   31.6780 C   0  0  0  0  0  0  0  0  0  0  0  0
   22.3931   11.3119   31.0952 C   0  0  0  0  0  0  0  0  0  0  0  0
   22.0535   12.5293   30.6972 N   0  0  0  0  0  0  0  0  0  0  0  0
   23.1952   13.0625   30.0908 C   0  0  0  0  0  0  0  0  0  0  0  0
   23.3747   14.2819   29.4448 C   0  0  0  0  0  0  0  0  0  0  0  0
   22.4977   14.9212   29.4110 H   0  0  0  0  0  0  0  0  0  0  0  0
   24.6343   14.6283   28.8779 C   0  0  0  0  0  0  0  0  0  0  0  0
   24.8657   15.9194   28.2113 C   0  0  0  0  0  0  0  0  0  0  0  0
   25.9205   16.2311   27.6882 O   0  0  0  0  0  0  0  0  0  0  0  0
   23.9092   16.8914   28.1780 N   0  0  0  0  0  0  0  0  0  0  0  0
   24.2757   17.8295   28.0439 H   0  0  0  0  0  0  0  0  0  0  0  0
   23.0928   16.7426   28.7581 H   0  0  0  0  0  0  0  0  0  0  0  0
   25.7018   13.7080   28.9967 C   0  0  0  0  0  0  0  0  0  0  0  0
   26.6934   13.9343   28.6038 H   0  0  0  0  0  0  0  0  0  0  0  0
   25.5051   12.4779   29.6279 C   0  0  0  0  0  0  0  0  0  0  0  0
   26.2993   11.7432   29.7378 H   0  0  0  0  0  0  0  0  0  0  0  0
   24.2526   12.1795   30.1554 C   0  0  0  0  0  0  0  0  0  0  0  0
   23.7458   11.0926   30.8056 N   0  0  0  0  0  0  0  0  0  0  0  0
   24.2451   10.2159   30.9351 H   0  0  0  0  0  0  0  0  0  0  0  0
   20.3398   10.4956   32.4416 C   0  0  0  0  0  0  0  0  0  0  0  0
   19.9467   11.8086   32.8381 C   0  0  0  0  0  0  0  0  0  0  0  0
   19.6101   12.8647   33.1952 N   0  0  0  0  0  0  0  0  0  0  0  0
   19.5679    9.4023   32.8116 C   0  0  0  0  0  0  0  0  0  0  0  0
   18.4041    9.5151   33.4956 N   0  0  0  0  0  0  0  0  0  0  0  0
   18.1521   10.4162   33.8893 H   0  0  0  0  0  0  0  0  0  0  0  0
   17.9885    8.6639   33.8702 H   0  0  0  0  0  0  0  0  0  0  0  0
   19.9259    8.1331   32.4812 C   0  0  0  0  0  0  0  0  0  0  0  0
   19.3338    7.2879   32.7978 H   0  0  0  0  0  0  0  0  0  0  0  0
   24.0276    5.1181   30.5930 C   0  0  0  0  0  0  0  0  0  0  0  0
   23.8115    6.2211   29.7964 O   0  0  0  0  0  0  0  0  0  0  0  0
   24.9346    7.0945   29.6089 C   0  0  0  0  0  0  0  0  0  0  0  0
   24.6424    7.9510   28.9954 H   0  0  0  0  0  0  0  0  0  0  0  0
   25.7524    6.5682   29.1052 H   0  0  0  0  0  0  0  0  0  0  0  0
   25.2936    7.4644   30.5752 H   0  0  0  0  0  0  0  0  0  0  0  0
  1  2  1  0
  2  3  2  0
  3  4  1  0
  3  5  1  0
  5  6  1  0
  6  7  1  0
  7  8  1  0
  7  9  1  0
  7 10  1  0
  5 11  2  0
 11 12  1  0
 11 13  1  0
 13 14  1  0
 14 15  1  0
 14 16  1  0
 14 17  1  0
 17 18  2  0
 17 19  1  0
 19 20  1  0
 19 21  1  0
 21 22  2  0
 22 23  1  0
 23 24  1  0
 24 25  2  0
 25 26  1  0
 26 27  2  0
 27 28  1  0
 27 29  1  0
 29 30  1  0
 30 31  2  0
 30 32  1  0
 32 33  1  0
 32 34  1  0
 29 35  2  0
 35 36  1  0
 35 37  1  0
 37 38  1  0
 37 39  2  0
 39 40  1  0
 40 41  1  0
 23 42  2  0
 42 43  1  0
 43 44  3  0
 42 45  1  0
 45 46  1  0
 46 47  1  0
 46 48  1  0
 45 49  2  0
 49 50  1  0
 13 51  2  0
 51 52  1  0
 52 53  1  0
 53 54  1  0
 53 55  1  0
 53 56  1  0
 51  2  1  0
 49 21  1  0
 40 24  1  0
 39 26  1  0
M  END
>  <score>  (425) 
7.80545

$$$$

     RDKit          3D

 56 58  0  0  0  0  0  0  0  0999 V2000
   26.0412    5.5618   30.9970 H   0  0  0  0  0  0  0  0  0  0  0  0
   25.2159    4.8875   31.2004 C   0  0  0  0  0  0  0  0  0  0  0  0
   25.4391    3.7564   31.9899 C   0  0  0  0  0  0  0  0  0  0  0  0
   27.2021    3.4405   32.6805 Br  0  0  0  0  0  0  0  0  0  0  0  0
   24.3779    2.8764   32.2588 C   0  0  0  0  0  0  0  0  0  0  0  0
   24.5976    1.7685   33.0442 O   0  0  0  0  0  0  0  0  0  0  0  0
   23.5455    0.7904   33.0714 C   0  0  0  0  0  0  0  0  0  0  0  0
   22.6286    1.2135   33.4956 H   0  0  0  0  0  0  0  0  0  0  0  0
   23.8482   -0.0675   33.6809 H   0  0  0  0  0  0  0  0  0  0  0  0
   23.3303    0.4388   32.0572 H   0  0  0  0  0  0  0  0  0  0  0  0
   23.1106    3.1660   31.7306 C   0  0  0  0  0  0  0  0  0  0  0  0
   22.2917    2.4861   31.9404 H   0  0  0  0  0  0  0  0  0  0  0  0
   22.8790    4.3028   30.9511 C   0  0  0  0  0  0  0  0  0  0  0  0
   21.4646    4.5518   30.4727 C   0  0  0  0  0  0  0  0  0  0  0  0
   21.4638    4.7686   29.4033 H   0  0  0  0  0  0  0  0  0  0  0  0
   20.8446    3.6674   30.6353 H   0  0  0  0  0  0  0  0  0  0  0  0
   20.8425    5.7179   31.2201 C   0  0  0  0  0  0  0  0  0  0  0  0
   19.7199    5.6323   31.6937 O   0  0  0  0  0  0  0  0  0  0  0  0
   21.5272    6.8946   31.2579 N   0  0  0  0  0  0  0  0  0  0  0  0
   22.3624    6.9832   30.6978 H   0  0  0  0  0  0  0  0  0  0  0  0
   21.0160    8.0597   31.7014 C   0  0  0  0  0  0  0  0  0  0  0  0
   21.7251    9.0895   31.2851 N   0  0  0  0  0  0  0  0  0  0  0  0
   21.3747   10.3554   31.6252 C   0  0  0  0  0  0  0  0  0  0  0  0
   22.2685   11.5137   31.1878 C   0  0  0  0  0  0  0  0  0  0  0  0
   22.4135   12.5058   31.9109 O   0  0  0  0  0  0  0  0  0  0  0  0
   23.0443   11.4623   30.0268 N   0  0  0  0  0  0  0  0  0  0  0  0
   22.4818   10.8653   28.8139 C   0  0  0  0  0  0  0  0  0  0  0  0
   22.0774   11.6535   28.1720 H   0  0  0  0  0  0  0  0  0  0  0  0
   21.6576   10.1926   29.0711 H   0  0  0  0  0  0  0  0  0  0  0  0
   23.5169   10.0590   28.0457 C   0  0  0  0  0  0  0  0  0  0  0  0
   23.1453    9.8474   27.0404 H   0  0  0  0  0  0  0  0  0  0  0  0
   23.6330    9.1131   28.5705 H   0  0  0  0  0  0  0  0  0  0  0  0
   24.8657   10.7775   27.9365 C   0  0  0  0  0  0  0  0  0  0  0  0
   24.7659   11.6672   27.3076 H   0  0  0  0  0  0  0  0  0  0  0  0
   25.5971   10.1180   27.4653 H   0  0  0  0  0  0  0  0  0  0  0  0
   25.3644   11.1912   29.3183 C   0  0  0  0  0  0  0  0  0  0  0  0
   25.5114   10.3054   29.9406 H   0  0  0  0  0  0  0  0  0  0  0  0
   26.3322   11.6904   29.2306 H   0  0  0  0  0  0  0  0  0  0  0  0
   24.3471   12.1214   29.9742 C   0  0  0  0  0  0  0  0  0  0  0  0
   24.2687   13.0492   29.4064 H   0  0  0  0  0  0  0  0  0  0  0  0
   24.6883   12.3683   30.9861 H   0  0  0  0  0  0  0  0  0  0  0  0
   20.2258   10.5395   32.4202 C   0  0  0  0  0  0  0  0  0  0  0  0
   19.8050   11.8350   32.8454 C   0  0  0  0  0  0  0  0  0  0  0  0
   19.4503   12.8739   33.2287 N   0  0  0  0  0  0  0  0  0  0  0  0
   19.5009    9.4329   32.8241 C   0  0  0  0  0  0  0  0  0  0  0  0
   18.3736    9.5337   33.5772 N   0  0  0  0  0  0  0  0  0  0  0  0
   18.1156    8.7201   34.1342 H   0  0  0  0  0  0  0  0  0  0  0  0
   18.1010   10.4634   33.8895 H   0  0  0  0  0  0  0  0  0  0  0  0
   19.9046    8.1829   32.4808 C   0  0  0  0  0  0  0  0  0  0  0  0
   19.3555    7.3248   32.8182 H   0  0  0  0  0  0  0  0  0  0  0  0
   23.9485    5.1835   30.6686 C   0  0  0  0  0  0  0  0  0  0  0  0
   23.7458    6.3079   29.8946 O   0  0  0  0  0  0  0  0  0  0  0  0
   24.9235    7.0883   29.6249 C   0  0  0  0  0  0  0  0  0  0  0  0
   25.3202    7.5035   30.5562 H   0  0  0  0  0  0  0  0  0  0  0  0
   25.6989    6.4701   29.1614 H   0  0  0  0  0  0  0  0  0  0  0  0
   24.6977    7.9085   28.9452 H   0  0  0  0  0  0  0  0  0  0  0  0
  1  2  1  0
  2  3  2  0
  3  4  1  0
  3  5  1  0
  5  6  1  0
  6  7  1  0
  7  8  1  0
  7  9  1  0
  7 10  1  0
  5 11  2  0
 11 12  1  0
 11 13  1  0
 13 14  1  0
 14 15  1  0
 14 16  1  0
 14 17  1  0
 17 18  2  0
 17 19  1  0
 19 20  1  0
 19 21  1  0
 21 22  2  0
 22 23  1  0
 23 24  1  0
 24 25  2  0
 24 26  1  0
 26 27  1  0
 27 28  1  0
 27 29  1  0
 27 30  1  0
 30 31  1  0
 30 32  1  0
 30 33  1  0
 33 34  1  0
 33 35  1  0
 33 36  1  0
 36 37  1  0
 36 38  1  0
 36 39  1  0
 39 40  1  0
 39 41  1  0
 23 42  2  0
 42 43  1  0
 43 44  3  0
 42 45  1  0
 45 46  1  0
 46 47  1  0
 46 48  1  0
 45 49  2  0
 49 50  1  0
 13 51  2  0
 51 52  1  0
 52 53  1  0
 53 54  1  0
 53 55  1  0
 53 56  1  0
 51  2  1  0
 49 21  1  0
 39 26  1  0
M  END
>  <score>  (426) 
7.80736

$$$$

     RDKit          3D

 54 56  0  0  0  0  0  0  0  0999 V2000
   26.1203    5.5184   30.9168 H   0  0  0  0  0  0  0  0  0  0  0  0
   25.2978    4.8486   31.1412 C   0  0  0  0  0  0  0  0  0  0  0  0
   25.5087    3.7395   31.9689 C   0  0  0  0  0  0  0  0  0  0  0  0
   27.2540    3.4422   32.7005 Br  0  0  0  0  0  0  0  0  0  0  0  0
   24.4482    2.8630   32.2470 C   0  0  0  0  0  0  0  0  0  0  0  0
   24.6620    1.7691   33.0519 O   0  0  0  0  0  0  0  0  0  0  0  0
   23.6054    0.7972   33.0772 C   0  0  0  0  0  0  0  0  0  0  0  0
   23.8972   -0.0599   33.6899 H   0  0  0  0  0  0  0  0  0  0  0  0
   23.3892    0.4422   32.0645 H   0  0  0  0  0  0  0  0  0  0  0  0
   22.6929    1.2305   33.4982 H   0  0  0  0  0  0  0  0  0  0  0  0
   23.1883    3.1373   31.6995 C   0  0  0  0  0  0  0  0  0  0  0  0
   22.3692    2.4597   31.9189 H   0  0  0  0  0  0  0  0  0  0  0  0
   22.9710    4.2519   30.8868 C   0  0  0  0  0  0  0  0  0  0  0  0
   21.5706    4.4840   30.3759 C   0  0  0  0  0  0  0  0  0  0  0  0
   20.9727    3.5765   30.4971 H   0  0  0  0  0  0  0  0  0  0  0  0
   21.6017    4.7332   29.3155 H   0  0  0  0  0  0  0  0  0  0  0  0
   20.8929    5.6266   31.1161 C   0  0  0  0  0  0  0  0  0  0  0  0
   19.7428    5.5157   31.5068 O   0  0  0  0  0  0  0  0  0  0  0  0
   21.5531    6.8162   31.2298 N   0  0  0  0  0  0  0  0  0  0  0  0
   22.4445    6.9287   30.7721 H   0  0  0  0  0  0  0  0  0  0  0  0
   21.0033    7.9575   31.6781 C   0  0  0  0  0  0  0  0  0  0  0  0
   21.7401    8.9883   31.3710 N   0  0  0  0  0  0  0  0  0  0  0  0
   21.3208   10.1808   31.7526 C   0  0  0  0  0  0  0  0  0  0  0  0
   22.0763   11.2484   31.3412 N   0  0  0  0  0  0  0  0  0  0  0  0
   21.5374   12.0719   31.1230 H   0  0  0  0  0  0  0  0  0  0  0  0
   23.3339   11.1231   30.7491 C   0  0  0  0  0  0  0  0  0  0  0  0
   23.7954   12.0972   29.8664 C   0  0  0  0  0  0  0  0  0  0  0  0
   23.1471   12.9319   29.6266 H   0  0  0  0  0  0  0  0  0  0  0  0
   25.0753   11.9895   29.2902 C   0  0  0  0  0  0  0  0  0  0  0  0
   25.4287   12.7596   28.6100 H   0  0  0  0  0  0  0  0  0  0  0  0
   25.9049   10.8999   29.6041 C   0  0  0  0  0  0  0  0  0  0  0  0
   27.3078   10.7921   29.0534 C   0  0  0  0  0  0  0  0  0  0  0  0
   27.2861   10.7125   27.9642 H   0  0  0  0  0  0  0  0  0  0  0  0
   27.8945   11.6769   29.3200 H   0  0  0  0  0  0  0  0  0  0  0  0
   27.8182    9.9065   29.4514 H   0  0  0  0  0  0  0  0  0  0  0  0
   25.4227    9.9166   30.4765 C   0  0  0  0  0  0  0  0  0  0  0  0
   26.0493    9.0715   30.7320 H   0  0  0  0  0  0  0  0  0  0  0  0
   24.1508   10.0346   31.0454 C   0  0  0  0  0  0  0  0  0  0  0  0
   23.7770    9.2934   31.7389 H   0  0  0  0  0  0  0  0  0  0  0  0
   20.1491   10.3919   32.4407 C   0  0  0  0  0  0  0  0  0  0  0  0
   19.7537   11.7009   32.8417 C   0  0  0  0  0  0  0  0  0  0  0  0
   19.4768   12.7848   33.1603 N   0  0  0  0  0  0  0  0  0  0  0  0
   19.4199    9.2743   32.7439 C   0  0  0  0  0  0  0  0  0  0  0  0
   18.2916    9.3311   33.4750 N   0  0  0  0  0  0  0  0  0  0  0  0
   18.1722   10.1647   34.0404 H   0  0  0  0  0  0  0  0  0  0  0  0
   17.9971    8.4378   33.8648 H   0  0  0  0  0  0  0  0  0  0  0  0
   19.8316    8.0373   32.3692 C   0  0  0  0  0  0  0  0  0  0  0  0
   19.2577    7.1623   32.6297 H   0  0  0  0  0  0  0  0  0  0  0  0
   24.0357    5.1287   30.5920 C   0  0  0  0  0  0  0  0  0  0  0  0
   23.8137    6.2344   29.7975 O   0  0  0  0  0  0  0  0  0  0  0  0
   24.9387    7.1077   29.6158 C   0  0  0  0  0  0  0  0  0  0  0  0
   25.3208    7.4348   30.5872 H   0  0  0  0  0  0  0  0  0  0  0  0
   24.6461    7.9896   29.0402 H   0  0  0  0  0  0  0  0  0  0  0  0
   25.7434    6.5952   29.0790 H   0  0  0  0  0  0  0  0  0  0  0  0
  1  2  1  0
  2  3  2  0
  3  4  1  0
  3  5  1  0
  5  6  1  0
  6  7  1  0
  7  8  1  0
  7  9  1  0
  7 10  1  0
  5 11  2  0
 11 12  1  0
 11 13  1  0
 13 14  1  0
 14 15  1  0
 14 16  1  0
 14 17  1  0
 17 18  2  0
 17 19  1  0
 19 20  1  0
 19 21  1  0
 21 22  2  0
 22 23  1  0
 23 24  1  0
 24 25  1  0
 24 26  1  0
 26 27  2  0
 27 28  1  0
 27 29  1  0
 29 30  1  0
 29 31  2  0
 31 32  1  0
 32 33  1  0
 32 34  1  0
 32 35  1  0
 31 36  1  0
 36 37  1  0
 36 38  2  0
 38 39  1  0
 23 40  2  0
 40 41  1  0
 41 42  3  0
 40 43  1  0
 43 44  1  0
 44 45  1  0
 44 46  1  0
 43 47  2  0
 47 48  1  0
 13 49  2  0
 49 50  1  0
 50 51  1  0
 51 52  1  0
 51 53  1  0
 51 54  1  0
 49  2  1  0
 47 21  1  0
 38 26  1  0
M  END
>  <score>  (427) 
7.80898

$$$$

     RDKit          3D

 53 55  0  0  0  0  0  0  0  0999 V2000
   24.7673   15.3994   28.8951 H   0  0  0  0  0  0  0  0  0  0  0  0
   24.8837   14.3275   28.9909 C   0  0  0  0  0  0  0  0  0  0  0  0
   23.9141   13.5009   29.5896 C   0  0  0  0  0  0  0  0  0  0  0  0
   23.0083   13.9236   30.0177 H   0  0  0  0  0  0  0  0  0  0  0  0
   24.1116   12.1106   29.5949 C   0  0  0  0  0  0  0  0  0  0  0  0
   23.2085   11.1843   30.0989 N   0  0  0  0  0  0  0  0  0  0  0  0
   23.3615   10.2256   29.8006 H   0  0  0  0  0  0  0  0  0  0  0  0
   22.2620   11.3919   31.1041 C   0  0  0  0  0  0  0  0  0  0  0  0
   22.1316   12.5366   31.5335 O   0  0  0  0  0  0  0  0  0  0  0  0
   21.4331   10.2362   31.6580 C   0  0  0  0  0  0  0  0  0  0  0  0
   21.7936    8.9706   31.3389 N   0  0  0  0  0  0  0  0  0  0  0  0
   21.0789    7.9359   31.7294 C   0  0  0  0  0  0  0  0  0  0  0  0
   21.6047    6.7785   31.2792 N   0  0  0  0  0  0  0  0  0  0  0  0
   22.4696    6.8642   30.7625 H   0  0  0  0  0  0  0  0  0  0  0  0
   20.8950    5.6311   31.1226 C   0  0  0  0  0  0  0  0  0  0  0  0
   19.7236    5.5792   31.4659 O   0  0  0  0  0  0  0  0  0  0  0  0
   21.5596    4.4976   30.3575 C   0  0  0  0  0  0  0  0  0  0  0  0
   20.9449    3.5964   30.4204 H   0  0  0  0  0  0  0  0  0  0  0  0
   21.6203    4.7923   29.3090 H   0  0  0  0  0  0  0  0  0  0  0  0
   22.9595    4.2323   30.8808 C   0  0  0  0  0  0  0  0  0  0  0  0
   23.1790    3.1299   31.7189 C   0  0  0  0  0  0  0  0  0  0  0  0
   22.3581    2.4667   31.9706 H   0  0  0  0  0  0  0  0  0  0  0  0
   24.4489    2.8533   32.2602 C   0  0  0  0  0  0  0  0  0  0  0  0
   24.6827    1.7764   33.0847 O   0  0  0  0  0  0  0  0  0  0  0  0
   23.6594    0.7722   33.1040 C   0  0  0  0  0  0  0  0  0  0  0  0
   23.4545    0.4152   32.0899 H   0  0  0  0  0  0  0  0  0  0  0  0
   22.7354    1.1708   33.5328 H   0  0  0  0  0  0  0  0  0  0  0  0
   23.9828   -0.0781   33.7094 H   0  0  0  0  0  0  0  0  0  0  0  0
   25.5152    3.7126   31.9497 C   0  0  0  0  0  0  0  0  0  0  0  0
   27.2747    3.4274   32.6526 Br  0  0  0  0  0  0  0  0  0  0  0  0
   25.3035    4.8118   31.1129 C   0  0  0  0  0  0  0  0  0  0  0  0
   26.1343    5.4681   30.8708 H   0  0  0  0  0  0  0  0  0  0  0  0
   24.0352    5.0932   30.5761 C   0  0  0  0  0  0  0  0  0  0  0  0
   23.8099    6.1999   29.7870 O   0  0  0  0  0  0  0  0  0  0  0  0
   24.9309    7.0791   29.6160 C   0  0  0  0  0  0  0  0  0  0  0  0
   25.7548    6.5588   29.1175 H   0  0  0  0  0  0  0  0  0  0  0  0
   24.6439    7.9384   29.0060 H   0  0  0  0  0  0  0  0  0  0  0  0
   25.2821    7.4446   30.5863 H   0  0  0  0  0  0  0  0  0  0  0  0
   19.9425    8.0481   32.4765 C   0  0  0  0  0  0  0  0  0  0  0  0
   19.3692    7.1894   32.7839 H   0  0  0  0  0  0  0  0  0  0  0  0
   19.5657    9.3021   32.8409 C   0  0  0  0  0  0  0  0  0  0  0  0
   18.4618    9.4058   33.6216 N   0  0  0  0  0  0  0  0  0  0  0  0
   17.5894    9.2719   33.1183 H   0  0  0  0  0  0  0  0  0  0  0  0
   18.5247    8.8696   34.4809 H   0  0  0  0  0  0  0  0  0  0  0  0
   20.2929   10.4125   32.4591 C   0  0  0  0  0  0  0  0  0  0  0  0
   19.8815   11.7006   32.9109 C   0  0  0  0  0  0  0  0  0  0  0  0
   19.5475   12.7338   33.3264 N   0  0  0  0  0  0  0  0  0  0  0  0
   25.2734   11.5682   29.0459 C   0  0  0  0  0  0  0  0  0  0  0  0
   25.3931   10.4871   29.0546 H   0  0  0  0  0  0  0  0  0  0  0  0
   26.2591   12.3986   28.5053 C   0  0  0  0  0  0  0  0  0  0  0  0
   27.1667   11.9642   28.0953 H   0  0  0  0  0  0  0  0  0  0  0  0
   26.0571   13.7802   28.4665 C   0  0  0  0  0  0  0  0  0  0  0  0
   26.9920   14.5824   27.9142 F   0  0  0  0  0  0  0  0  0  0  0  0
  1  2  1  0
  2  3  2  0
  3  4  1  0
  3  5  1  0
  5  6  1  0
  6  7  1  0
  6  8  1  0
  8  9  2  0
  8 10  1  0
 10 11  2  0
 11 12  1  0
 12 13  1  0
 13 14  1  0
 13 15  1  0
 15 16  2  0
 15 17  1  0
 17 18  1  0
 17 19  1  0
 17 20  1  0
 20 21  2  0
 21 22  1  0
 21 23  1  0
 23 24  1  0
 24 25  1  0
 25 26  1  0
 25 27  1  0
 25 28  1  0
 23 29  2  0
 29 30  1  0
 29 31  1  0
 31 32  1  0
 31 33  2  0
 33 34  1  0
 34 35  1  0
 35 36  1  0
 35 37  1  0
 35 38  1  0
 12 39  2  0
 39 40  1  0
 39 41  1  0
 41 42  1  0
 42 43  1  0
 42 44  1  0
 41 45  2  0
 45 46  1  0
 46 47  3  0
  5 48  2  0
 48 49  1  0
 48 50  1  0
 50 51  1  0
 50 52  2  0
 52 53  1  0
 52  2  1  0
 45 10  1  0
 33 20  1  0
M  END
>  <score>  (428) 
7.81043

$$$$

     RDKit          3D

 52 54  0  0  0  0  0  0  0  0999 V2000
   26.1886    5.4134   30.8456 H   0  0  0  0  0  0  0  0  0  0  0  0
   25.3440    4.7813   31.1017 C   0  0  0  0  0  0  0  0  0  0  0  0
   25.5232    3.6745   31.9460 C   0  0  0  0  0  0  0  0  0  0  0  0
   27.2726    3.3044   32.6360 Br  0  0  0  0  0  0  0  0  0  0  0  0
   24.4385    2.8440   32.2729 C   0  0  0  0  0  0  0  0  0  0  0  0
   24.6645    1.7832   33.1225 O   0  0  0  0  0  0  0  0  0  0  0  0
   23.6898    0.7331   33.1414 C   0  0  0  0  0  0  0  0  0  0  0  0
   24.0692   -0.0966   33.7433 H   0  0  0  0  0  0  0  0  0  0  0  0
   22.7505    1.0746   33.5845 H   0  0  0  0  0  0  0  0  0  0  0  0
   23.4972    0.3612   32.1309 H   0  0  0  0  0  0  0  0  0  0  0  0
   23.1773    3.1446   31.7311 C   0  0  0  0  0  0  0  0  0  0  0  0
   22.3432    2.4979   31.9808 H   0  0  0  0  0  0  0  0  0  0  0  0
   22.9927    4.2518   30.8845 C   0  0  0  0  0  0  0  0  0  0  0  0
   21.6136    4.5470   30.3352 C   0  0  0  0  0  0  0  0  0  0  0  0
   21.0052    3.6377   30.3250 H   0  0  0  0  0  0  0  0  0  0  0  0
   21.7146    4.8857   29.3024 H   0  0  0  0  0  0  0  0  0  0  0  0
   20.9116    5.6487   31.1282 C   0  0  0  0  0  0  0  0  0  0  0  0
   19.7239    5.5626   31.3893 O   0  0  0  0  0  0  0  0  0  0  0  0
   21.5793    6.8131   31.3727 N   0  0  0  0  0  0  0  0  0  0  0  0
   22.4690    6.9370   30.9238 H   0  0  0  0  0  0  0  0  0  0  0  0
   20.9997    7.9807   31.7263 C   0  0  0  0  0  0  0  0  0  0  0  0
   21.7488    8.9922   31.3333 N   0  0  0  0  0  0  0  0  0  0  0  0
   21.4025   10.2415   31.6758 C   0  0  0  0  0  0  0  0  0  0  0  0
   22.2661   11.4206   31.2242 C   0  0  0  0  0  0  0  0  0  0  0  0
   22.3219   12.1282   32.0568 H   0  0  0  0  0  0  0  0  0  0  0  0
   21.6640   12.1363   30.0052 C   0  0  0  0  0  0  0  0  0  0  0  0
   20.7819   11.6139   29.6534 H   0  0  0  0  0  0  0  0  0  0  0  0
   21.3660   13.1633   30.2382 H   0  0  0  0  0  0  0  0  0  0  0  0
   22.6986   12.1079   28.8957 C   0  0  0  0  0  0  0  0  0  0  0  0
   23.2176   13.0686   28.8314 H   0  0  0  0  0  0  0  0  0  0  0  0
   22.2128   11.9069   27.9413 H   0  0  0  0  0  0  0  0  0  0  0  0
   23.6744   11.0092   29.2712 C   0  0  0  0  0  0  0  0  0  0  0  0
   23.3076   10.0432   28.9133 H   0  0  0  0  0  0  0  0  0  0  0  0
   24.6668   11.1809   28.8433 H   0  0  0  0  0  0  0  0  0  0  0  0
   23.6909   11.0308   30.7924 C   0  0  0  0  0  0  0  0  0  0  0  0
   24.0022   10.0656   31.2045 H   0  0  0  0  0  0  0  0  0  0  0  0
   24.3994   11.7919   31.1342 H   0  0  0  0  0  0  0  0  0  0  0  0
   20.2794   10.4695   32.4628 C   0  0  0  0  0  0  0  0  0  0  0  0
   19.9456   11.7945   32.8809 C   0  0  0  0  0  0  0  0  0  0  0  0
   19.7050   12.8883   33.1945 N   0  0  0  0  0  0  0  0  0  0  0  0
   19.5286    9.3777   32.8402 C   0  0  0  0  0  0  0  0  0  0  0  0
   18.4610    9.4953   33.6588 N   0  0  0  0  0  0  0  0  0  0  0  0
   18.1495   10.4176   33.9440 H   0  0  0  0  0  0  0  0  0  0  0  0
   17.9209    8.6671   33.8954 H   0  0  0  0  0  0  0  0  0  0  0  0
   19.8551    8.1146   32.4551 C   0  0  0  0  0  0  0  0  0  0  0  0
   19.2521    7.2738   32.7623 H   0  0  0  0  0  0  0  0  0  0  0  0
   24.0831    5.0887   30.5686 C   0  0  0  0  0  0  0  0  0  0  0  0
   23.8610    6.1785   29.7528 O   0  0  0  0  0  0  0  0  0  0  0  0
   24.9314    7.1188   29.5862 C   0  0  0  0  0  0  0  0  0  0  0  0
   25.7901    6.6551   29.0926 H   0  0  0  0  0  0  0  0  0  0  0  0
   25.2471    7.5228   30.5524 H   0  0  0  0  0  0  0  0  0  0  0  0
   24.5903    7.9504   28.9638 H   0  0  0  0  0  0  0  0  0  0  0  0
  1  2  1  0
  2  3  2  0
  3  4  1  0
  3  5  1  0
  5  6  1  0
  6  7  1  0
  7  8  1  0
  7  9  1  0
  7 10  1  0
  5 11  2  0
 11 12  1  0
 11 13  1  0
 13 14  1  0
 14 15  1  0
 14 16  1  0
 14 17  1  0
 17 18  2  0
 17 19  1  0
 19 20  1  0
 19 21  1  0
 21 22  2  0
 22 23  1  0
 23 24  1  0
 24 25  1  0
 24 26  1  0
 26 27  1  0
 26 28  1  0
 26 29  1  0
 29 30  1  0
 29 31  1  0
 29 32  1  0
 32 33  1  0
 32 34  1  0
 32 35  1  0
 35 36  1  0
 35 37  1  0
 23 38  2  0
 38 39  1  0
 39 40  3  0
 38 41  1  0
 41 42  1  0
 42 43  1  0
 42 44  1  0
 41 45  2  0
 45 46  1  0
 13 47  2  0
 47 48  1  0
 48 49  1  0
 49 50  1  0
 49 51  1  0
 49 52  1  0
 47  2  1  0
 45 21  1  0
 35 24  1  0
M  END
>  <score>  (429) 
7.81386

$$$$

     RDKit          3D

 52 54  0  0  0  0  0  0  0  0999 V2000
   24.7144   14.0145   30.0646 H   0  0  0  0  0  0  0  0  0  0  0  0
   24.0205   13.2415   30.3879 C   0  0  0  0  0  0  0  0  0  0  0  0
   24.4926   12.1477   31.0273 N   0  0  0  0  0  0  0  0  0  0  0  0
   23.6106   11.2014   31.3841 C   0  0  0  0  0  0  0  0  0  0  0  0
   23.9632   10.3225   31.9148 H   0  0  0  0  0  0  0  0  0  0  0  0
   22.2433   11.3328   31.1622 C   0  0  0  0  0  0  0  0  0  0  0  0
   21.4109   10.2502   31.6541 C   0  0  0  0  0  0  0  0  0  0  0  0
   21.8436    9.0185   31.3837 N   0  0  0  0  0  0  0  0  0  0  0  0
   21.1085    8.0010   31.7664 C   0  0  0  0  0  0  0  0  0  0  0  0
   21.6525    6.8400   31.3493 N   0  0  0  0  0  0  0  0  0  0  0  0
   22.5149    6.9486   30.8371 H   0  0  0  0  0  0  0  0  0  0  0  0
   20.9392    5.7002   31.1447 C   0  0  0  0  0  0  0  0  0  0  0  0
   19.7530    5.6574   31.4154 O   0  0  0  0  0  0  0  0  0  0  0  0
   21.5917    4.5697   30.3660 C   0  0  0  0  0  0  0  0  0  0  0  0
   21.6612    4.8909   29.3236 H   0  0  0  0  0  0  0  0  0  0  0  0
   20.9521    3.6893   30.4228 H   0  0  0  0  0  0  0  0  0  0  0  0
   22.9745    4.2519   30.8946 C   0  0  0  0  0  0  0  0  0  0  0  0
   23.1775    3.1421   31.7314 C   0  0  0  0  0  0  0  0  0  0  0  0
   22.3428    2.4934   31.9816 H   0  0  0  0  0  0  0  0  0  0  0  0
   24.4477    2.8540   32.2658 C   0  0  0  0  0  0  0  0  0  0  0  0
   24.6722    1.7836   33.1027 O   0  0  0  0  0  0  0  0  0  0  0  0
   23.6744    0.7519   33.1233 C   0  0  0  0  0  0  0  0  0  0  0  0
   24.0282   -0.0910   33.7271 H   0  0  0  0  0  0  0  0  0  0  0  0
   22.7409    1.1232   33.5572 H   0  0  0  0  0  0  0  0  0  0  0  0
   23.4767    0.3909   32.1092 H   0  0  0  0  0  0  0  0  0  0  0  0
   25.5231    3.7002   31.9444 C   0  0  0  0  0  0  0  0  0  0  0  0
   27.2757    3.3650   32.6390 Br  0  0  0  0  0  0  0  0  0  0  0  0
   25.3249    4.7969   31.1015 C   0  0  0  0  0  0  0  0  0  0  0  0
   26.1674    5.4328   30.8543 H   0  0  0  0  0  0  0  0  0  0  0  0
   24.0591    5.0945   30.5766 C   0  0  0  0  0  0  0  0  0  0  0  0
   23.8399    6.1896   29.7705 O   0  0  0  0  0  0  0  0  0  0  0  0
   24.9339    7.1027   29.6012 C   0  0  0  0  0  0  0  0  0  0  0  0
   24.6131    7.9560   28.9957 H   0  0  0  0  0  0  0  0  0  0  0  0
   25.7720    6.6130   29.0964 H   0  0  0  0  0  0  0  0  0  0  0  0
   25.2730    7.4730   30.5730 H   0  0  0  0  0  0  0  0  0  0  0  0
   19.9292    8.1244   32.4583 C   0  0  0  0  0  0  0  0  0  0  0  0
   19.3282    7.2738   32.7299 H   0  0  0  0  0  0  0  0  0  0  0  0
   19.5416    9.3818   32.8150 C   0  0  0  0  0  0  0  0  0  0  0  0
   18.4293    9.5070   33.5828 N   0  0  0  0  0  0  0  0  0  0  0  0
   18.1519   10.4277   33.9187 H   0  0  0  0  0  0  0  0  0  0  0  0
   17.9431    8.6676   33.8906 H   0  0  0  0  0  0  0  0  0  0  0  0
   20.2702   10.4721   32.4119 C   0  0  0  0  0  0  0  0  0  0  0  0
   19.9097   11.7916   32.8168 C   0  0  0  0  0  0  0  0  0  0  0  0
   19.6779   12.8674   33.1880 N   0  0  0  0  0  0  0  0  0  0  0  0
   21.7493   12.4718   30.5037 C   0  0  0  0  0  0  0  0  0  0  0  0
   20.6872   12.6008   30.3081 H   0  0  0  0  0  0  0  0  0  0  0  0
   22.6636   13.4477   30.0818 C   0  0  0  0  0  0  0  0  0  0  0  0
   22.3057   14.5879   29.3932 O   0  0  0  0  0  0  0  0  0  0  0  0
   20.9091   14.7431   29.1287 C   0  0  0  0  0  0  0  0  0  0  0  0
   20.5365   13.9156   28.5160 H   0  0  0  0  0  0  0  0  0  0  0  0
   20.7345   15.6864   28.6020 H   0  0  0  0  0  0  0  0  0  0  0  0
   20.3480   14.7606   30.0659 H   0  0  0  0  0  0  0  0  0  0  0  0
  1  2  1  0
  2  3  2  0
  3  4  1  0
  4  5  1  0
  4  6  2  0
  6  7  1  0
  7  8  2  0
  8  9  1  0
  9 10  1  0
 10 11  1  0
 10 12  1  0
 12 13  2  0
 12 14  1  0
 14 15  1  0
 14 16  1  0
 14 17  1  0
 17 18  2  0
 18 19  1  0
 18 20  1  0
 20 21  1  0
 21 22  1  0
 22 23  1  0
 22 24  1  0
 22 25  1  0
 20 26  2  0
 26 27  1  0
 26 28  1  0
 28 29  1  0
 28 30  2  0
 30 31  1  0
 31 32  1  0
 32 33  1  0
 32 34  1  0
 32 35  1  0
  9 36  2  0
 36 37  1  0
 36 38  1  0
 38 39  1  0
 39 40  1  0
 39 41  1  0
 38 42  2  0
 42 43  1  0
 43 44  3  0
  6 45  1  0
 45 46  1  0
 45 47  2  0
 47 48  1  0
 48 49  1  0
 49 50  1  0
 49 51  1  0
 49 52  1  0
 47  2  1  0
 42  7  1  0
 30 17  1  0
M  END
>  <score>  (430) 
7.81644

$$$$

     RDKit          3D

 51 53  0  0  0  0  0  0  0  0999 V2000
   20.5937   12.3997   30.6018 H   0  0  0  0  0  0  0  0  0  0  0  0
   21.6752   12.3256   30.6321 C   0  0  0  0  0  0  0  0  0  0  0  0
   22.3805   13.1864   29.8763 N   0  0  0  0  0  0  0  0  0  0  0  0
   23.7357   13.0883   29.8234 C   0  0  0  0  0  0  0  0  0  0  0  0
   24.5967   13.9067   28.8377 C   0  0  0  0  0  0  0  0  0  0  0  0
   24.0743   15.1351   28.5826 F   0  0  0  0  0  0  0  0  0  0  0  0
   25.8433   14.1012   29.3593 F   0  0  0  0  0  0  0  0  0  0  0  0
   24.7371   13.2548   27.6409 F   0  0  0  0  0  0  0  0  0  0  0  0
   24.3923   12.1352   30.6252 C   0  0  0  0  0  0  0  0  0  0  0  0
   25.4738   12.0726   30.6221 H   0  0  0  0  0  0  0  0  0  0  0  0
   23.6732   11.2154   31.3704 C   0  0  0  0  0  0  0  0  0  0  0  0
   24.1848   10.4273   31.9218 H   0  0  0  0  0  0  0  0  0  0  0  0
   22.2812   11.2938   31.3426 C   0  0  0  0  0  0  0  0  0  0  0  0
   21.4501   10.2262   31.8659 C   0  0  0  0  0  0  0  0  0  0  0  0
   21.8414    9.0024   31.5207 N   0  0  0  0  0  0  0  0  0  0  0  0
   21.0790    7.9791   31.8270 C   0  0  0  0  0  0  0  0  0  0  0  0
   21.6001    6.8423   31.3238 N   0  0  0  0  0  0  0  0  0  0  0  0
   22.4818    6.9515   30.8473 H   0  0  0  0  0  0  0  0  0  0  0  0
   20.9061    5.6823   31.1312 C   0  0  0  0  0  0  0  0  0  0  0  0
   19.7525    5.5962   31.5067 O   0  0  0  0  0  0  0  0  0  0  0  0
   21.5592    4.5343   30.3733 C   0  0  0  0  0  0  0  0  0  0  0  0
   21.6104    4.7977   29.3148 H   0  0  0  0  0  0  0  0  0  0  0  0
   20.9316    3.6433   30.4632 H   0  0  0  0  0  0  0  0  0  0  0  0
   22.9515    4.2600   30.9017 C   0  0  0  0  0  0  0  0  0  0  0  0
   23.1668    3.1500   31.7293 C   0  0  0  0  0  0  0  0  0  0  0  0
   22.3396    2.4916   31.9733 H   0  0  0  0  0  0  0  0  0  0  0  0
   24.4386    2.8635   32.2566 C   0  0  0  0  0  0  0  0  0  0  0  0
   24.6727    1.7798   33.0708 O   0  0  0  0  0  0  0  0  0  0  0  0
   23.6508    0.7731   33.0991 C   0  0  0  0  0  0  0  0  0  0  0  0
   23.4426    0.4091   32.0870 H   0  0  0  0  0  0  0  0  0  0  0  0
   22.7277    1.1723   33.5317 H   0  0  0  0  0  0  0  0  0  0  0  0
   23.9814   -0.0733   33.7089 H   0  0  0  0  0  0  0  0  0  0  0  0
   25.5071    3.7191   31.9473 C   0  0  0  0  0  0  0  0  0  0  0  0
   27.2615    3.4100   32.6538 Br  0  0  0  0  0  0  0  0  0  0  0  0
   25.2984    4.8211   31.1156 C   0  0  0  0  0  0  0  0  0  0  0  0
   26.1361    5.4657   30.8732 H   0  0  0  0  0  0  0  0  0  0  0  0
   24.0295    5.1146   30.5922 C   0  0  0  0  0  0  0  0  0  0  0  0
   23.8103    6.2187   29.7987 O   0  0  0  0  0  0  0  0  0  0  0  0
   24.9333    7.0943   29.6126 C   0  0  0  0  0  0  0  0  0  0  0  0
   24.6411    7.9510   28.9993 H   0  0  0  0  0  0  0  0  0  0  0  0
   25.7527    6.5704   29.1080 H   0  0  0  0  0  0  0  0  0  0  0  0
   25.2921    7.4656   30.5788 H   0  0  0  0  0  0  0  0  0  0  0  0
   19.8954    8.0908   32.5040 C   0  0  0  0  0  0  0  0  0  0  0  0
   19.2954    7.2230   32.7257 H   0  0  0  0  0  0  0  0  0  0  0  0
   19.4933    9.3448   32.8571 C   0  0  0  0  0  0  0  0  0  0  0  0
   18.2962    9.4575   33.4762 N   0  0  0  0  0  0  0  0  0  0  0  0
   18.1137   10.3495   33.9285 H   0  0  0  0  0  0  0  0  0  0  0  0
   17.9328    8.6095   33.9118 H   0  0  0  0  0  0  0  0  0  0  0  0
   20.2687   10.4461   32.5625 C   0  0  0  0  0  0  0  0  0  0  0  0
   19.8685   11.7652   32.9308 C   0  0  0  0  0  0  0  0  0  0  0  0
   19.5847   12.8605   33.2017 N   0  0  0  0  0  0  0  0  0  0  0  0
  1  2  1  0
  2  3  2  0
  3  4  1  0
  4  5  1  0
  5  6  1  0
  5  7  1  0
  5  8  1  0
  4  9  2  0
  9 10  1  0
  9 11  1  0
 11 12  1  0
 11 13  2  0
 13 14  1  0
 14 15  2  0
 15 16  1  0
 16 17  1  0
 17 18  1  0
 17 19  1  0
 19 20  2  0
 19 21  1  0
 21 22  1  0
 21 23  1  0
 21 24  1  0
 24 25  2  0
 25 26  1  0
 25 27  1  0
 27 28  1  0
 28 29  1  0
 29 30  1  0
 29 31  1  0
 29 32  1  0
 27 33  2  0
 33 34  1  0
 33 35  1  0
 35 36  1  0
 35 37  2  0
 37 38  1  0
 38 39  1  0
 39 40  1  0
 39 41  1  0
 39 42  1  0
 16 43  2  0
 43 44  1  0
 43 45  1  0
 45 46  1  0
 46 47  1  0
 46 48  1  0
 45 49  2  0
 49 50  1  0
 50 51  3  0
 13  2  1  0
 49 14  1  0
 37 24  1  0
M  END
>  <score>  (431) 
7.82022

$$$$

     RDKit          3D

 61 64  0  0  0  0  0  0  0  0999 V2000
   25.7425   14.5701   25.8920 H   0  0  0  0  0  0  0  0  0  0  0  0
   25.8177   13.6826   26.5124 C   0  0  0  0  0  0  0  0  0  0  0  0
   24.9038   13.4637   27.4441 N   0  0  0  0  0  0  0  0  0  0  0  0
   25.0326   12.3572   28.1668 C   0  0  0  0  0  0  0  0  0  0  0  0
   24.1290   12.1145   29.1868 N   0  0  0  0  0  0  0  0  0  0  0  0
   24.3732   11.0001   30.1371 C   0  0  0  0  0  0  0  0  0  0  0  0
   25.4417   10.9297   30.3685 H   0  0  0  0  0  0  0  0  0  0  0  0
   24.0425   10.0438   29.7193 H   0  0  0  0  0  0  0  0  0  0  0  0
   23.5934   11.2350   31.4315 C   0  0  0  0  0  0  0  0  0  0  0  0
   23.8233   10.4326   32.1414 H   0  0  0  0  0  0  0  0  0  0  0  0
   23.9372   12.1833   31.8604 H   0  0  0  0  0  0  0  0  0  0  0  0
   22.1320   11.3125   31.1777 N   0  0  0  0  0  0  0  0  0  0  0  0
   21.3603   10.2370   31.6012 C   0  0  0  0  0  0  0  0  0  0  0  0
   21.7842    9.0422   31.2066 N   0  0  0  0  0  0  0  0  0  0  0  0
   21.1338    7.9966   31.6458 C   0  0  0  0  0  0  0  0  0  0  0  0
   21.6471    6.8513   31.1539 N   0  0  0  0  0  0  0  0  0  0  0  0
   22.4700    6.9576   30.5829 H   0  0  0  0  0  0  0  0  0  0  0  0
   20.9446    5.6867   31.0799 C   0  0  0  0  0  0  0  0  0  0  0  0
   19.8156    5.6272   31.5427 O   0  0  0  0  0  0  0  0  0  0  0  0
   21.5723    4.4998   30.3648 C   0  0  0  0  0  0  0  0  0  0  0  0
   21.5967    4.7111   29.2972 H   0  0  0  0  0  0  0  0  0  0  0  0
   20.9498    3.6157   30.5145 H   0  0  0  0  0  0  0  0  0  0  0  0
   22.9735    4.2483   30.8740 C   0  0  0  0  0  0  0  0  0  0  0  0
   23.1890    3.1264   31.6787 C   0  0  0  0  0  0  0  0  0  0  0  0
   22.3673    2.4493   31.8901 H   0  0  0  0  0  0  0  0  0  0  0  0
   24.4465    2.8544   32.2383 C   0  0  0  0  0  0  0  0  0  0  0  0
   24.6599    1.7668   33.0532 O   0  0  0  0  0  0  0  0  0  0  0  0
   23.6119    0.7866   33.0860 C   0  0  0  0  0  0  0  0  0  0  0  0
   23.9107   -0.0686   33.6981 H   0  0  0  0  0  0  0  0  0  0  0  0
   22.6978    1.2116   33.5088 H   0  0  0  0  0  0  0  0  0  0  0  0
   23.3959    0.4292   32.0757 H   0  0  0  0  0  0  0  0  0  0  0  0
   25.5068    3.7380   31.9734 C   0  0  0  0  0  0  0  0  0  0  0  0
   27.2561    3.4486   32.7069 Br  0  0  0  0  0  0  0  0  0  0  0  0
   25.2987    4.8514   31.1513 C   0  0  0  0  0  0  0  0  0  0  0  0
   26.1235    5.5265   30.9517 H   0  0  0  0  0  0  0  0  0  0  0  0
   24.0392    5.1281   30.5921 C   0  0  0  0  0  0  0  0  0  0  0  0
   23.8114    6.2359   29.8045 O   0  0  0  0  0  0  0  0  0  0  0  0
   24.9347    7.1062   29.6073 C   0  0  0  0  0  0  0  0  0  0  0  0
   25.3003    7.4826   30.5675 H   0  0  0  0  0  0  0  0  0  0  0  0
   25.7496    6.5767   29.1044 H   0  0  0  0  0  0  0  0  0  0  0  0
   24.6434    7.9580   28.9893 H   0  0  0  0  0  0  0  0  0  0  0  0
   20.0743    8.0575   32.5132 C   0  0  0  0  0  0  0  0  0  0  0  0
   19.5875    7.1825   32.9117 H   0  0  0  0  0  0  0  0  0  0  0  0
   19.6385    9.2900   32.8744 C   0  0  0  0  0  0  0  0  0  0  0  0
   18.5544    9.3503   33.6714 N   0  0  0  0  0  0  0  0  0  0  0  0
   18.0047    8.4926   33.7024 H   0  0  0  0  0  0  0  0  0  0  0  0
   18.0646   10.2413   33.6923 H   0  0  0  0  0  0  0  0  0  0  0  0
   20.2653   10.4110   32.4149 C   0  0  0  0  0  0  0  0  0  0  0  0
   19.8550   11.7194   32.7945 C   0  0  0  0  0  0  0  0  0  0  0  0
   19.5621   12.7999   33.1072 N   0  0  0  0  0  0  0  0  0  0  0  0
   21.7383   12.0246   29.9270 C   0  0  0  0  0  0  0  0  0  0  0  0
   21.4673   11.3132   29.1377 H   0  0  0  0  0  0  0  0  0  0  0  0
   20.8667   12.6519   30.1349 H   0  0  0  0  0  0  0  0  0  0  0  0
   22.8830   12.9093   29.3644 C   0  0  0  0  0  0  0  0  0  0  0  0
   22.5524   13.3482   28.4170 H   0  0  0  0  0  0  0  0  0  0  0  0
   23.0640   13.7285   30.0686 H   0  0  0  0  0  0  0  0  0  0  0  0
   26.0004   11.4600   28.0196 N   0  0  0  0  0  0  0  0  0  0  0  0
   26.9123   11.6765   27.0931 C   0  0  0  0  0  0  0  0  0  0  0  0
   27.7172   10.9588   26.9675 H   0  0  0  0  0  0  0  0  0  0  0  0
   26.8514   12.7972   26.3016 C   0  0  0  0  0  0  0  0  0  0  0  0
   27.5970   12.9755   25.5410 H   0  0  0  0  0  0  0  0  0  0  0  0
  1  2  1  0
  2  3  2  0
  3  4  1  0
  4  5  1  0
  5  6  1  0
  6  7  1  0
  6  8  1  0
  6  9  1  0
  9 10  1  0
  9 11  1  0
  9 12  1  0
 12 13  1  0
 13 14  2  0
 14 15  1  0
 15 16  1  0
 16 17  1  0
 16 18  1  0
 18 19  2  0
 18 20  1  0
 20 21  1  0
 20 22  1  0
 20 23  1  0
 23 24  2  0
 24 25  1  0
 24 26  1  0
 26 27  1  0
 27 28  1  0
 28 29  1  0
 28 30  1  0
 28 31  1  0
 26 32  2  0
 32 33  1  0
 32 34  1  0
 34 35  1  0
 34 36  2  0
 36 37  1  0
 37 38  1  0
 38 39  1  0
 38 40  1  0
 38 41  1  0
 15 42  2  0
 42 43  1  0
 42 44  1  0
 44 45  1  0
 45 46  1  0
 45 47  1  0
 44 48  2  0
 48 49  1  0
 49 50  3  0
 12 51  1  0
 51 52  1  0
 51 53  1  0
 51 54  1  0
 54 55  1  0
 54 56  1  0
  4 57  2  0
 57 58  1  0
 58 59  1  0
 58 60  2  0
 60 61  1  0
 60  2  1  0
 54  5  1  0
 48 13  1  0
 36 23  1  0
M  END
>  <score>  (432) 
7.82104

$$$$

     RDKit          3D

 51 54  0  0  0  0  0  0  0  0999 V2000
   26.0879    5.5175   30.9192 H   0  0  0  0  0  0  0  0  0  0  0  0
   25.2724    4.8325   31.1337 C   0  0  0  0  0  0  0  0  0  0  0  0
   25.4974    3.7283   31.9617 C   0  0  0  0  0  0  0  0  0  0  0  0
   27.2458    3.4727   32.6995 Br  0  0  0  0  0  0  0  0  0  0  0  0
   24.4492    2.8377   32.2421 C   0  0  0  0  0  0  0  0  0  0  0  0
   24.6778    1.7542   33.0587 O   0  0  0  0  0  0  0  0  0  0  0  0
   23.6247    0.7790   33.0888 C   0  0  0  0  0  0  0  0  0  0  0  0
   23.4065    0.4223   32.0758 H   0  0  0  0  0  0  0  0  0  0  0  0
   23.9234   -0.0741   33.7028 H   0  0  0  0  0  0  0  0  0  0  0  0
   22.7120    1.2123   33.5117 H   0  0  0  0  0  0  0  0  0  0  0  0
   23.1875    3.0888   31.6808 C   0  0  0  0  0  0  0  0  0  0  0  0
   22.3732    2.4128   31.9167 H   0  0  0  0  0  0  0  0  0  0  0  0
   22.9545    4.1867   30.8508 C   0  0  0  0  0  0  0  0  0  0  0  0
   21.5473    4.3961   30.3447 C   0  0  0  0  0  0  0  0  0  0  0  0
   20.9751    3.4708   30.4417 H   0  0  0  0  0  0  0  0  0  0  0  0
   21.5718    4.6733   29.2886 H   0  0  0  0  0  0  0  0  0  0  0  0
   20.8683    5.4988   31.1457 C   0  0  0  0  0  0  0  0  0  0  0  0
   19.7062    5.3913   31.5021 O   0  0  0  0  0  0  0  0  0  0  0  0
   21.5633    6.6471   31.3537 N   0  0  0  0  0  0  0  0  0  0  0  0
   22.4788    6.7386   30.9395 H   0  0  0  0  0  0  0  0  0  0  0  0
   21.0196    7.8086   31.7542 C   0  0  0  0  0  0  0  0  0  0  0  0
   21.8047    8.8045   31.4272 N   0  0  0  0  0  0  0  0  0  0  0  0
   21.4822   10.0677   31.7437 C   0  0  0  0  0  0  0  0  0  0  0  0
   22.3576   11.1549   31.2328 C   0  0  0  0  0  0  0  0  0  0  0  0
   23.6408   11.0124   30.9544 N   0  0  0  0  0  0  0  0  0  0  0  0
   24.1372   12.1343   30.3209 C   0  0  0  0  0  0  0  0  0  0  0  0
   25.4525   12.2555   29.8680 C   0  0  0  0  0  0  0  0  0  0  0  0
   26.1256   11.4136   29.9943 H   0  0  0  0  0  0  0  0  0  0  0  0
   25.8642   13.4413   29.2389 C   0  0  0  0  0  0  0  0  0  0  0  0
   26.8830   13.5529   28.8770 H   0  0  0  0  0  0  0  0  0  0  0  0
   24.9316   14.4694   29.0374 C   0  0  0  0  0  0  0  0  0  0  0  0
   25.2417   15.3895   28.5557 H   0  0  0  0  0  0  0  0  0  0  0  0
   23.6063   14.3165   29.4615 C   0  0  0  0  0  0  0  0  0  0  0  0
   22.8880   15.1113   29.2987 H   0  0  0  0  0  0  0  0  0  0  0  0
   23.2205   13.1529   30.1193 C   0  0  0  0  0  0  0  0  0  0  0  0
   21.6734   12.7148   30.7873 S   0  0  0  0  0  0  0  0  0  0  0  0
   20.3033   10.3178   32.4469 C   0  0  0  0  0  0  0  0  0  0  0  0
   19.8906   11.6316   32.8167 C   0  0  0  0  0  0  0  0  0  0  0  0
   19.5469   12.7011   33.1133 N   0  0  0  0  0  0  0  0  0  0  0  0
   19.5057    9.2386   32.7485 C   0  0  0  0  0  0  0  0  0  0  0  0
   18.3546    9.3748   33.4264 N   0  0  0  0  0  0  0  0  0  0  0  0
   18.2898   10.1894   34.0300 H   0  0  0  0  0  0  0  0  0  0  0  0
   17.9419    8.5048   33.7481 H   0  0  0  0  0  0  0  0  0  0  0  0
   19.8365    7.9689   32.4009 C   0  0  0  0  0  0  0  0  0  0  0  0
   19.1957    7.1365   32.6322 H   0  0  0  0  0  0  0  0  0  0  0  0
   24.0084    5.0850   30.5743 C   0  0  0  0  0  0  0  0  0  0  0  0
   23.7787    6.2030   29.8028 O   0  0  0  0  0  0  0  0  0  0  0  0
   24.9063    7.0782   29.6216 C   0  0  0  0  0  0  0  0  0  0  0  0
   24.6282    7.9403   29.0079 H   0  0  0  0  0  0  0  0  0  0  0  0
   25.7241    6.5460   29.1234 H   0  0  0  0  0  0  0  0  0  0  0  0
   25.2657    7.4416   30.5906 H   0  0  0  0  0  0  0  0  0  0  0  0
  1  2  1  0
  2  3  2  0
  3  4  1  0
  3  5  1  0
  5  6  1  0
  6  7  1  0
  7  8  1  0
  7  9  1  0
  7 10  1  0
  5 11  2  0
 11 12  1  0
 11 13  1  0
 13 14  1  0
 14 15  1  0
 14 16  1  0
 14 17  1  0
 17 18  2  0
 17 19  1  0
 19 20  1  0
 19 21  1  0
 21 22  2  0
 22 23  1  0
 23 24  1  0
 24 25  2  0
 25 26  1  0
 26 27  2  0
 27 28  1  0
 27 29  1  0
 29 30  1  0
 29 31  2  0
 31 32  1  0
 31 33  1  0
 33 34  1  0
 33 35  2  0
 35 36  1  0
 23 37  2  0
 37 38  1  0
 38 39  3  0
 37 40  1  0
 40 41  1  0
 41 42  1  0
 41 43  1  0
 40 44  2  0
 44 45  1  0
 13 46  2  0
 46 47  1  0
 47 48  1  0
 48 49  1  0
 48 50  1  0
 48 51  1  0
 46  2  1  0
 44 21  1  0
 36 24  1  0
 35 26  1  0
M  END
>  <score>  (433) 
7.82163

$$$$

     RDKit          3D

 52 55  0  0  0  0  0  0  0  0999 V2000
   26.1432    5.4598   30.8648 H   0  0  0  0  0  0  0  0  0  0  0  0
   25.3086    4.8109   31.1105 C   0  0  0  0  0  0  0  0  0  0  0  0
   25.5133    3.7113   31.9489 C   0  0  0  0  0  0  0  0  0  0  0  0
   27.2746    3.4187   32.6474 Br  0  0  0  0  0  0  0  0  0  0  0  0
   24.4428    2.8576   32.2601 C   0  0  0  0  0  0  0  0  0  0  0  0
   24.6786    1.7796   33.0821 O   0  0  0  0  0  0  0  0  0  0  0  0
   23.6591    0.7716   33.1040 C   0  0  0  0  0  0  0  0  0  0  0  0
   22.7342    1.1680   33.5339 H   0  0  0  0  0  0  0  0  0  0  0  0
   23.4539    0.4131   32.0899 H   0  0  0  0  0  0  0  0  0  0  0  0
   23.9878   -0.0774   33.7104 H   0  0  0  0  0  0  0  0  0  0  0  0
   23.1722    3.1444   31.7262 C   0  0  0  0  0  0  0  0  0  0  0  0
   22.3470    2.4868   31.9783 H   0  0  0  0  0  0  0  0  0  0  0  0
   22.9586    4.2550   30.8949 C   0  0  0  0  0  0  0  0  0  0  0  0
   21.5577    4.5393   30.3784 C   0  0  0  0  0  0  0  0  0  0  0  0
   21.6144    4.8400   29.3306 H   0  0  0  0  0  0  0  0  0  0  0  0
   20.9328    3.6467   30.4459 H   0  0  0  0  0  0  0  0  0  0  0  0
   20.8919    5.6699   31.1475 C   0  0  0  0  0  0  0  0  0  0  0  0
   19.7163    5.6160   31.4794 O   0  0  0  0  0  0  0  0  0  0  0  0
   21.6112    6.8043   31.3442 N   0  0  0  0  0  0  0  0  0  0  0  0
   22.4736    6.9281   30.8322 H   0  0  0  0  0  0  0  0  0  0  0  0
   21.0817    7.9425   31.8064 C   0  0  0  0  0  0  0  0  0  0  0  0
   21.8506    8.9269   31.4473 N   0  0  0  0  0  0  0  0  0  0  0  0
   21.4621   10.1619   31.7464 C   0  0  0  0  0  0  0  0  0  0  0  0
   22.3178   11.2104   31.2083 C   0  0  0  0  0  0  0  0  0  0  0  0
   21.6849   12.7502   30.6406 S   0  0  0  0  0  0  0  0  0  0  0  0
   23.2729   13.2227   30.0596 C   0  0  0  0  0  0  0  0  0  0  0  0
   23.6313   14.3946   29.4003 C   0  0  0  0  0  0  0  0  0  0  0  0
   22.8754   15.1347   29.1762 H   0  0  0  0  0  0  0  0  0  0  0  0
   24.9746   14.6337   29.0691 C   0  0  0  0  0  0  0  0  0  0  0  0
   25.2654   15.5699   28.6000 H   0  0  0  0  0  0  0  0  0  0  0  0
   25.9509   13.6698   29.3545 C   0  0  0  0  0  0  0  0  0  0  0  0
   26.9972   13.8428   29.1061 H   0  0  0  0  0  0  0  0  0  0  0  0
   25.5672   12.4578   29.9431 C   0  0  0  0  0  0  0  0  0  0  0  0
   26.2975   11.6766   30.1024 H   0  0  0  0  0  0  0  0  0  0  0  0
   24.2338   12.2571   30.3189 C   0  0  0  0  0  0  0  0  0  0  0  0
   23.6704   11.0861   30.9634 C   0  0  0  0  0  0  0  0  0  0  0  0
   24.2589   10.2029   31.1964 H   0  0  0  0  0  0  0  0  0  0  0  0
   20.2930   10.4242   32.4549 C   0  0  0  0  0  0  0  0  0  0  0  0
   19.9294   11.7492   32.8323 C   0  0  0  0  0  0  0  0  0  0  0  0
   19.6689   12.8341   33.1647 N   0  0  0  0  0  0  0  0  0  0  0  0
   19.5258    9.3491   32.8303 C   0  0  0  0  0  0  0  0  0  0  0  0
   18.3611    9.4991   33.5082 N   0  0  0  0  0  0  0  0  0  0  0  0
   18.1390   10.4128   33.8957 H   0  0  0  0  0  0  0  0  0  0  0  0
   17.9297    8.6696   33.9050 H   0  0  0  0  0  0  0  0  0  0  0  0
   19.9156    8.0829   32.5054 C   0  0  0  0  0  0  0  0  0  0  0  0
   19.3231    7.2239   32.7619 H   0  0  0  0  0  0  0  0  0  0  0  0
   24.0407    5.1022   30.5795 C   0  0  0  0  0  0  0  0  0  0  0  0
   23.8142    6.2047   29.7852 O   0  0  0  0  0  0  0  0  0  0  0  0
   24.9314    7.0880   29.6139 C   0  0  0  0  0  0  0  0  0  0  0  0
   25.7573    6.5708   29.1133 H   0  0  0  0  0  0  0  0  0  0  0  0
   24.6368    7.9475   29.0054 H   0  0  0  0  0  0  0  0  0  0  0  0
   25.2828    7.4520   30.5858 H   0  0  0  0  0  0  0  0  0  0  0  0
  1  2  1  0
  2  3  2  0
  3  4  1  0
  3  5  1  0
  5  6  1  0
  6  7  1  0
  7  8  1  0
  7  9  1  0
  7 10  1  0
  5 11  2  0
 11 12  1  0
 11 13  1  0
 13 14  1  0
 14 15  1  0
 14 16  1  0
 14 17  1  0
 17 18  2  0
 17 19  1  0
 19 20  1  0
 19 21  1  0
 21 22  2  0
 22 23  1  0
 23 24  1  0
 24 25  1  0
 25 26  1  0
 26 27  2  0
 27 28  1  0
 27 29  1  0
 29 30  1  0
 29 31  2  0
 31 32  1  0
 31 33  1  0
 33 34  1  0
 33 35  2  0
 35 36  1  0
 36 37  1  0
 23 38  2  0
 38 39  1  0
 39 40  3  0
 38 41  1  0
 41 42  1  0
 42 43  1  0
 42 44  1  0
 41 45  2  0
 45 46  1  0
 13 47  2  0
 47 48  1  0
 48 49  1  0
 49 50  1  0
 49 51  1  0
 49 52  1  0
 47  2  1  0
 45 21  1  0
 36 24  2  0
 35 26  1  0
M  END
>  <score>  (434) 
7.82615

$$$$

     RDKit          3D

 52 54  0  0  0  0  0  0  0  0999 V2000
   26.6309   12.6192   27.6087 H   0  0  0  0  0  0  0  0  0  0  0  0
   25.7192   12.8860   28.1317 C   0  0  0  0  0  0  0  0  0  0  0  0
   25.3055   14.1582   28.0801 N   0  0  0  0  0  0  0  0  0  0  0  0
   24.1800   14.4836   28.7307 C   0  0  0  0  0  0  0  0  0  0  0  0
   23.8183   15.5032   28.6675 H   0  0  0  0  0  0  0  0  0  0  0  0
   23.4433   13.5563   29.4591 C   0  0  0  0  0  0  0  0  0  0  0  0
   22.5366   13.8446   29.9668 H   0  0  0  0  0  0  0  0  0  0  0  0
   23.8654   12.2463   29.4956 C   0  0  0  0  0  0  0  0  0  0  0  0
   23.1596   11.2490   30.1298 N   0  0  0  0  0  0  0  0  0  0  0  0
   23.3742   10.3035   29.8364 H   0  0  0  0  0  0  0  0  0  0  0  0
   22.1853   11.4083   31.1132 C   0  0  0  0  0  0  0  0  0  0  0  0
   21.9696   12.5435   31.5369 O   0  0  0  0  0  0  0  0  0  0  0  0
   21.3915   10.2199   31.6461 C   0  0  0  0  0  0  0  0  0  0  0  0
   21.7339    8.9725   31.2461 N   0  0  0  0  0  0  0  0  0  0  0  0
   21.0654    7.9245   31.6746 C   0  0  0  0  0  0  0  0  0  0  0  0
   21.6014    6.7795   31.2097 N   0  0  0  0  0  0  0  0  0  0  0  0
   22.4867    6.8728   30.7293 H   0  0  0  0  0  0  0  0  0  0  0  0
   20.9226    5.6056   31.0928 C   0  0  0  0  0  0  0  0  0  0  0  0
   19.7681    5.5185   31.4779 O   0  0  0  0  0  0  0  0  0  0  0  0
   21.5747    4.4674   30.3340 C   0  0  0  0  0  0  0  0  0  0  0  0
   21.6293    4.7282   29.2747 H   0  0  0  0  0  0  0  0  0  0  0  0
   20.9575    3.5707   30.4299 H   0  0  0  0  0  0  0  0  0  0  0  0
   22.9626    4.2262   30.8744 C   0  0  0  0  0  0  0  0  0  0  0  0
   23.1672    3.1318   31.7226 C   0  0  0  0  0  0  0  0  0  0  0  0
   22.3393    2.4752   31.9747 H   0  0  0  0  0  0  0  0  0  0  0  0
   24.4348    2.8562   32.2626 C   0  0  0  0  0  0  0  0  0  0  0  0
   24.6719    1.7763   33.0791 O   0  0  0  0  0  0  0  0  0  0  0  0
   23.6512    0.7698   33.1036 C   0  0  0  0  0  0  0  0  0  0  0  0
   23.4404    0.4071   32.0933 H   0  0  0  0  0  0  0  0  0  0  0  0
   23.9812   -0.0765   33.7114 H   0  0  0  0  0  0  0  0  0  0  0  0
   22.7264    1.1666   33.5310 H   0  0  0  0  0  0  0  0  0  0  0  0
   25.5024    3.7147   31.9564 C   0  0  0  0  0  0  0  0  0  0  0  0
   27.2606    3.4044   32.6569 Br  0  0  0  0  0  0  0  0  0  0  0  0
   25.2950    4.8169   31.1207 C   0  0  0  0  0  0  0  0  0  0  0  0
   26.1266    5.4706   30.8777 H   0  0  0  0  0  0  0  0  0  0  0  0
   24.0305    5.1007   30.5794 C   0  0  0  0  0  0  0  0  0  0  0  0
   23.8048    6.2122   29.7936 O   0  0  0  0  0  0  0  0  0  0  0  0
   24.9248    7.0933   29.6091 C   0  0  0  0  0  0  0  0  0  0  0  0
   24.6321    7.9485   28.9945 H   0  0  0  0  0  0  0  0  0  0  0  0
   25.2860    7.4666   30.5725 H   0  0  0  0  0  0  0  0  0  0  0  0
   25.7479    6.5732   29.1096 H   0  0  0  0  0  0  0  0  0  0  0  0
   20.0007    8.0067   32.5233 C   0  0  0  0  0  0  0  0  0  0  0  0
   19.4964    7.1156   32.8490 H   0  0  0  0  0  0  0  0  0  0  0  0
   19.6067    9.2440   32.9291 C   0  0  0  0  0  0  0  0  0  0  0  0
   18.5194    9.3107   33.7455 N   0  0  0  0  0  0  0  0  0  0  0  0
   17.8030    9.9954   33.5042 H   0  0  0  0  0  0  0  0  0  0  0  0
   18.2158    8.4224   34.1342 H   0  0  0  0  0  0  0  0  0  0  0  0
   20.2935   10.3671   32.5201 C   0  0  0  0  0  0  0  0  0  0  0  0
   19.8664   11.6428   32.9915 C   0  0  0  0  0  0  0  0  0  0  0  0
   19.5069   12.6916   33.3390 N   0  0  0  0  0  0  0  0  0  0  0  0
   25.0169   11.9063   28.8229 C   0  0  0  0  0  0  0  0  0  0  0  0
   25.3697   10.8861   28.8243 H   0  0  0  0  0  0  0  0  0  0  0  0
  1  2  1  0
  2  3  2  0
  3  4  1  0
  4  5  1  0
  4  6  2  0
  6  7  1  0
  6  8  1  0
  8  9  1  0
  9 10  1  0
  9 11  1  0
 11 12  2  0
 11 13  1  0
 13 14  2  0
 14 15  1  0
 15 16  1  0
 16 17  1  0
 16 18  1  0
 18 19  2  0
 18 20  1  0
 20 21  1  0
 20 22  1  0
 20 23  1  0
 23 24  2  0
 24 25  1  0
 24 26  1  0
 26 27  1  0
 27 28  1  0
 28 29  1  0
 28 30  1  0
 28 31  1  0
 26 32  2  0
 32 33  1  0
 32 34  1  0
 34 35  1  0
 34 36  2  0
 36 37  1  0
 37 38  1  0
 38 39  1  0
 38 40  1  0
 38 41  1  0
 15 42  2  0
 42 43  1  0
 42 44  1  0
 44 45  1  0
 45 46  1  0
 45 47  1  0
 44 48  2  0
 48 49  1  0
 49 50  3  0
  8 51  2  0
 51 52  1  0
 51  2  1  0
 48 13  1  0
 36 23  1  0
M  END
>  <score>  (435) 
7.82994

$$$$

     RDKit          3D

 49 51  0  0  0  0  0  0  0  0999 V2000
   24.5976   14.2270   30.0718 H   0  0  0  0  0  0  0  0  0  0  0  0
   23.9497   13.4014   30.3546 C   0  0  0  0  0  0  0  0  0  0  0  0
   24.4594   12.3266   31.0834 C   0  0  0  0  0  0  0  0  0  0  0  0
   25.4958   12.3203   31.3965 H   0  0  0  0  0  0  0  0  0  0  0  0
   23.6451   11.2431   31.4074 C   0  0  0  0  0  0  0  0  0  0  0  0
   24.1833   10.1807   32.0442 F   0  0  0  0  0  0  0  0  0  0  0  0
   22.2769   11.2894   31.1261 C   0  0  0  0  0  0  0  0  0  0  0  0
   21.4130   10.2252   31.6153 C   0  0  0  0  0  0  0  0  0  0  0  0
   21.7998    8.9837   31.3395 N   0  0  0  0  0  0  0  0  0  0  0  0
   21.0540    7.9839   31.7466 C   0  0  0  0  0  0  0  0  0  0  0  0
   21.6213    6.8200   31.3665 N   0  0  0  0  0  0  0  0  0  0  0  0
   22.4807    6.9428   30.8527 H   0  0  0  0  0  0  0  0  0  0  0  0
   20.9276    5.6714   31.1417 C   0  0  0  0  0  0  0  0  0  0  0  0
   19.7370    5.6167   31.3955 O   0  0  0  0  0  0  0  0  0  0  0  0
   21.6037    4.5580   30.3542 C   0  0  0  0  0  0  0  0  0  0  0  0
   20.9743    3.6658   30.3804 H   0  0  0  0  0  0  0  0  0  0  0  0
   21.6827    4.8944   29.3161 H   0  0  0  0  0  0  0  0  0  0  0  0
   22.9849    4.2488   30.8929 C   0  0  0  0  0  0  0  0  0  0  0  0
   23.1786    3.1396   31.7323 C   0  0  0  0  0  0  0  0  0  0  0  0
   22.3429    2.4923   31.9827 H   0  0  0  0  0  0  0  0  0  0  0  0
   24.4453    2.8524   32.2696 C   0  0  0  0  0  0  0  0  0  0  0  0
   24.6716    1.7879   33.1105 O   0  0  0  0  0  0  0  0  0  0  0  0
   23.6817    0.7446   33.1315 C   0  0  0  0  0  0  0  0  0  0  0  0
   22.7426    1.1023   33.5685 H   0  0  0  0  0  0  0  0  0  0  0  0
   23.4846    0.3783   32.1176 H   0  0  0  0  0  0  0  0  0  0  0  0
   24.0451   -0.0962   33.7348 H   0  0  0  0  0  0  0  0  0  0  0  0
   25.5249    3.6902   31.9433 C   0  0  0  0  0  0  0  0  0  0  0  0
   27.2742    3.3389   32.6378 Br  0  0  0  0  0  0  0  0  0  0  0  0
   25.3319    4.7903   31.1023 C   0  0  0  0  0  0  0  0  0  0  0  0
   26.1733    5.4244   30.8492 H   0  0  0  0  0  0  0  0  0  0  0  0
   24.0680    5.0912   30.5735 C   0  0  0  0  0  0  0  0  0  0  0  0
   23.8425    6.1813   29.7595 O   0  0  0  0  0  0  0  0  0  0  0  0
   24.9310    7.1081   29.5960 C   0  0  0  0  0  0  0  0  0  0  0  0
   25.2688    7.4867   30.5684 H   0  0  0  0  0  0  0  0  0  0  0  0
   25.7795    6.6350   29.0870 H   0  0  0  0  0  0  0  0  0  0  0  0
   24.6005    7.9598   28.9921 H   0  0  0  0  0  0  0  0  0  0  0  0
   19.8884    8.1328   32.4458 C   0  0  0  0  0  0  0  0  0  0  0  0
   19.2912    7.2907   32.7480 H   0  0  0  0  0  0  0  0  0  0  0  0
   19.5388    9.3954   32.8066 C   0  0  0  0  0  0  0  0  0  0  0  0
   18.4620    9.5130   33.6225 N   0  0  0  0  0  0  0  0  0  0  0  0
   18.1557   10.4379   33.9142 H   0  0  0  0  0  0  0  0  0  0  0  0
   17.9485    8.6683   33.8768 H   0  0  0  0  0  0  0  0  0  0  0  0
   20.2833   10.4717   32.3860 C   0  0  0  0  0  0  0  0  0  0  0  0
   19.9524   11.7897   32.8062 C   0  0  0  0  0  0  0  0  0  0  0  0
   19.7079   12.8576   33.1941 N   0  0  0  0  0  0  0  0  0  0  0  0
   21.7592   12.3582   30.3865 C   0  0  0  0  0  0  0  0  0  0  0  0
   20.4462   12.4120   30.0735 F   0  0  0  0  0  0  0  0  0  0  0  0
   22.6086   13.3848   29.9635 C   0  0  0  0  0  0  0  0  0  0  0  0
   22.2112   14.1779   29.3393 H   0  0  0  0  0  0  0  0  0  0  0  0
  1  2  1  0
  2  3  2  0
  3  4  1  0
  3  5  1  0
  5  6  1  0
  5  7  2  0
  7  8  1  0
  8  9  2  0
  9 10  1  0
 10 11  1  0
 11 12  1  0
 11 13  1  0
 13 14  2  0
 13 15  1  0
 15 16  1  0
 15 17  1  0
 15 18  1  0
 18 19  2  0
 19 20  1  0
 19 21  1  0
 21 22  1  0
 22 23  1  0
 23 24  1  0
 23 25  1  0
 23 26  1  0
 21 27  2  0
 27 28  1  0
 27 29  1  0
 29 30  1  0
 29 31  2  0
 31 32  1  0
 32 33  1  0
 33 34  1  0
 33 35  1  0
 33 36  1  0
 10 37  2  0
 37 38  1  0
 37 39  1  0
 39 40  1  0
 40 41  1  0
 40 42  1  0
 39 43  2  0
 43 44  1  0
 44 45  3  0
  7 46  1  0
 46 47  1  0
 46 48  2  0
 48 49  1  0
 48  2  1  0
 43  8  1  0
 31 18  1  0
M  END
>  <score>  (436) 
7.83176

$$$$

     RDKit          3D

 53 55  0  0  0  0  0  0  0  0999 V2000
   25.9133   14.9214   27.5459 H   0  0  0  0  0  0  0  0  0  0  0  0
   25.3391   14.1681   28.0747 C   0  0  0  0  0  0  0  0  0  0  0  0
   24.1230   14.5158   28.6736 C   0  0  0  0  0  0  0  0  0  0  0  0
   23.7526   15.5347   28.5995 H   0  0  0  0  0  0  0  0  0  0  0  0
   23.3959   13.5508   29.3809 C   0  0  0  0  0  0  0  0  0  0  0  0
   22.4544   13.8149   29.8487 H   0  0  0  0  0  0  0  0  0  0  0  0
   23.8669   12.2374   29.4698 C   0  0  0  0  0  0  0  0  0  0  0  0
   23.1643   11.2369   30.1319 N   0  0  0  0  0  0  0  0  0  0  0  0
   23.4404   10.2826   29.9268 H   0  0  0  0  0  0  0  0  0  0  0  0
   22.1194   11.4120   31.0396 C   0  0  0  0  0  0  0  0  0  0  0  0
   21.8439   12.5621   31.3854 O   0  0  0  0  0  0  0  0  0  0  0  0
   21.3740   10.2177   31.6276 C   0  0  0  0  0  0  0  0  0  0  0  0
   21.7649    8.9643   31.2822 N   0  0  0  0  0  0  0  0  0  0  0  0
   21.1135    7.9121   31.7419 C   0  0  0  0  0  0  0  0  0  0  0  0
   21.6113    6.7695   31.2265 N   0  0  0  0  0  0  0  0  0  0  0  0
   22.4579    6.8827   30.6891 H   0  0  0  0  0  0  0  0  0  0  0  0
   20.9151    5.6041   31.0919 C   0  0  0  0  0  0  0  0  0  0  0  0
   19.7763    5.5095   31.5246 O   0  0  0  0  0  0  0  0  0  0  0  0
   21.5569    4.4456   30.3377 C   0  0  0  0  0  0  0  0  0  0  0  0
   20.9484    3.5483   30.4733 H   0  0  0  0  0  0  0  0  0  0  0  0
   21.5937    4.6703   29.2673 H   0  0  0  0  0  0  0  0  0  0  0  0
   22.9523    4.2097   30.8639 C   0  0  0  0  0  0  0  0  0  0  0  0
   23.1733    3.1095   31.7013 C   0  0  0  0  0  0  0  0  0  0  0  0
   22.3536    2.4402   31.9415 H   0  0  0  0  0  0  0  0  0  0  0  0
   24.4393    2.8506   32.2515 C   0  0  0  0  0  0  0  0  0  0  0  0
   24.6733    1.7651   33.0641 O   0  0  0  0  0  0  0  0  0  0  0  0
   23.6353    0.7764   33.0928 C   0  0  0  0  0  0  0  0  0  0  0  0
   23.9502   -0.0735   33.7053 H   0  0  0  0  0  0  0  0  0  0  0  0
   22.7183    1.1964   33.5194 H   0  0  0  0  0  0  0  0  0  0  0  0
   23.4215    0.4180   32.0795 H   0  0  0  0  0  0  0  0  0  0  0  0
   25.4934    3.7290   31.9612 C   0  0  0  0  0  0  0  0  0  0  0  0
   27.2454    3.4484   32.6784 Br  0  0  0  0  0  0  0  0  0  0  0  0
   25.2742    4.8329   31.1335 C   0  0  0  0  0  0  0  0  0  0  0  0
   26.0965    5.5032   30.9097 H   0  0  0  0  0  0  0  0  0  0  0  0
   24.0112    5.0979   30.5840 C   0  0  0  0  0  0  0  0  0  0  0  0
   23.7887    6.2153   29.8064 O   0  0  0  0  0  0  0  0  0  0  0  0
   24.9205    7.0790   29.6147 C   0  0  0  0  0  0  0  0  0  0  0  0
   25.7328    6.5383   29.1179 H   0  0  0  0  0  0  0  0  0  0  0  0
   25.2861    7.4458   30.5795 H   0  0  0  0  0  0  0  0  0  0  0  0
   24.6438    7.9381   28.9961 H   0  0  0  0  0  0  0  0  0  0  0  0
   20.0444    7.9897   32.5898 C   0  0  0  0  0  0  0  0  0  0  0  0
   19.5425    7.1024   32.9467 H   0  0  0  0  0  0  0  0  0  0  0  0
   19.6290    9.2343   32.9569 C   0  0  0  0  0  0  0  0  0  0  0  0
   18.5307    9.2943   33.7479 N   0  0  0  0  0  0  0  0  0  0  0  0
   17.9167   10.0855   33.5555 H   0  0  0  0  0  0  0  0  0  0  0  0
   18.0886    8.3975   33.9323 H   0  0  0  0  0  0  0  0  0  0  0  0
   20.2774   10.3698   32.5035 C   0  0  0  0  0  0  0  0  0  0  0  0
   19.8433   11.6547   32.9624 C   0  0  0  0  0  0  0  0  0  0  0  0
   19.4864   12.6911   33.3502 N   0  0  0  0  0  0  0  0  0  0  0  0
   25.0675   11.8918   28.8471 C   0  0  0  0  0  0  0  0  0  0  0  0
   25.4167   10.8675   28.9148 H   0  0  0  0  0  0  0  0  0  0  0  0
   25.8160   12.8549   28.1594 C   0  0  0  0  0  0  0  0  0  0  0  0
   26.7588   12.5839   27.6903 H   0  0  0  0  0  0  0  0  0  0  0  0
  1  2  1  0
  2  3  2  0
  3  4  1  0
  3  5  1  0
  5  6  1  0
  5  7  2  0
  7  8  1  0
  8  9  1  0
  8 10  1  0
 10 11  2  0
 10 12  1  0
 12 13  2  0
 13 14  1  0
 14 15  1  0
 15 16  1  0
 15 17  1  0
 17 18  2  0
 17 19  1  0
 19 20  1  0
 19 21  1  0
 19 22  1  0
 22 23  2  0
 23 24  1  0
 23 25  1  0
 25 26  1  0
 26 27  1  0
 27 28  1  0
 27 29  1  0
 27 30  1  0
 25 31  2  0
 31 32  1  0
 31 33  1  0
 33 34  1  0
 33 35  2  0
 35 36  1  0
 36 37  1  0
 37 38  1  0
 37 39  1  0
 37 40  1  0
 14 41  2  0
 41 42  1  0
 41 43  1  0
 43 44  1  0
 44 45  1  0
 44 46  1  0
 43 47  2  0
 47 48  1  0
 48 49  3  0
  7 50  1  0
 50 51  1  0
 50 52  2  0
 52 53  1  0
 52  2  1  0
 47 12  1  0
 35 22  1  0
M  END
>  <score>  (437) 
7.84061

$$$$

     RDKit          3D

 53 55  0  0  0  0  0  0  0  0999 V2000
   26.1469    5.5019   30.9083 H   0  0  0  0  0  0  0  0  0  0  0  0
   25.3214    4.8347   31.1269 C   0  0  0  0  0  0  0  0  0  0  0  0
   25.5260    3.7239   31.9522 C   0  0  0  0  0  0  0  0  0  0  0  0
   27.2688    3.4266   32.6819 Br  0  0  0  0  0  0  0  0  0  0  0  0
   24.4606    2.8567   32.2455 C   0  0  0  0  0  0  0  0  0  0  0  0
   24.6732    1.7731   33.0675 O   0  0  0  0  0  0  0  0  0  0  0  0
   23.6324    0.7842   33.0902 C   0  0  0  0  0  0  0  0  0  0  0  0
   22.7131    1.1994   33.5161 H   0  0  0  0  0  0  0  0  0  0  0  0
   23.9435   -0.0688   33.7006 H   0  0  0  0  0  0  0  0  0  0  0  0
   23.4232    0.4275   32.0759 H   0  0  0  0  0  0  0  0  0  0  0  0
   23.2000    3.1329   31.6951 C   0  0  0  0  0  0  0  0  0  0  0  0
   22.3687    2.4758   31.9309 H   0  0  0  0  0  0  0  0  0  0  0  0
   22.9975    4.2381   30.8591 C   0  0  0  0  0  0  0  0  0  0  0  0
   21.6125    4.5077   30.3279 C   0  0  0  0  0  0  0  0  0  0  0  0
   21.6562    4.6896   29.2481 H   0  0  0  0  0  0  0  0  0  0  0  0
   20.9786    3.6318   30.4976 H   0  0  0  0  0  0  0  0  0  0  0  0
   20.9993    5.7148   31.0342 C   0  0  0  0  0  0  0  0  0  0  0  0
   19.8542    5.6352   31.4515 O   0  0  0  0  0  0  0  0  0  0  0  0
   21.6942    6.8954   31.1175 N   0  0  0  0  0  0  0  0  0  0  0  0
   22.6012    6.9754   30.6851 H   0  0  0  0  0  0  0  0  0  0  0  0
   21.1627    8.0484   31.5682 C   0  0  0  0  0  0  0  0  0  0  0  0
   21.8947    9.1073   31.2830 N   0  0  0  0  0  0  0  0  0  0  0  0
   21.4445   10.2897   31.7233 C   0  0  0  0  0  0  0  0  0  0  0  0
   22.0978   11.4583   31.4638 O   0  0  0  0  0  0  0  0  0  0  0  0
   23.1830   11.4675   30.5372 C   0  0  0  0  0  0  0  0  0  0  0  0
   23.5054   12.5060   30.4164 H   0  0  0  0  0  0  0  0  0  0  0  0
   22.8522   10.9058   29.1672 C   0  0  0  0  0  0  0  0  0  0  0  0
   22.2048   11.5721   28.5890 H   0  0  0  0  0  0  0  0  0  0  0  0
   22.3552    9.9389   29.2694 H   0  0  0  0  0  0  0  0  0  0  0  0
   24.2249   10.7166   28.5220 C   0  0  0  0  0  0  0  0  0  0  0  0
   24.4717   11.5927   27.9119 H   0  0  0  0  0  0  0  0  0  0  0  0
   24.2413    9.8290   27.8800 H   0  0  0  0  0  0  0  0  0  0  0  0
   25.2228   10.5923   29.6840 C   0  0  0  0  0  0  0  0  0  0  0  0
   25.8107    9.6698   29.6216 H   0  0  0  0  0  0  0  0  0  0  0  0
   25.9117   11.4442   29.6661 H   0  0  0  0  0  0  0  0  0  0  0  0
   24.3807   10.6389   30.9584 C   0  0  0  0  0  0  0  0  0  0  0  0
   24.9176   11.0827   31.8014 H   0  0  0  0  0  0  0  0  0  0  0  0
   24.0661    9.6302   31.2366 H   0  0  0  0  0  0  0  0  0  0  0  0
   20.2835   10.4184   32.4591 C   0  0  0  0  0  0  0  0  0  0  0  0
   19.8229   11.6848   32.9262 C   0  0  0  0  0  0  0  0  0  0  0  0
   19.4342   12.7127   33.3057 N   0  0  0  0  0  0  0  0  0  0  0  0
   19.5630    9.2944   32.6976 C   0  0  0  0  0  0  0  0  0  0  0  0
   18.4150    9.3262   33.4059 N   0  0  0  0  0  0  0  0  0  0  0  0
   18.3537   10.0827   34.0763 H   0  0  0  0  0  0  0  0  0  0  0  0
   18.0639    8.4139   33.6855 H   0  0  0  0  0  0  0  0  0  0  0  0
   19.9958    8.0900   32.2771 C   0  0  0  0  0  0  0  0  0  0  0  0
   19.4302    7.2109   32.5367 H   0  0  0  0  0  0  0  0  0  0  0  0
   24.0627    5.1124   30.5783 C   0  0  0  0  0  0  0  0  0  0  0  0
   23.8329    6.2245   29.7974 O   0  0  0  0  0  0  0  0  0  0  0  0
   24.9455    7.1099   29.6153 C   0  0  0  0  0  0  0  0  0  0  0  0
   25.7676    6.5866   29.1175 H   0  0  0  0  0  0  0  0  0  0  0  0
   24.6490    7.9634   28.9986 H   0  0  0  0  0  0  0  0  0  0  0  0
   25.2988    7.4829   30.5819 H   0  0  0  0  0  0  0  0  0  0  0  0
  1  2  1  0
  2  3  2  0
  3  4  1  0
  3  5  1  0
  5  6  1  0
  6  7  1  0
  7  8  1  0
  7  9  1  0
  7 10  1  0
  5 11  2  0
 11 12  1  0
 11 13  1  0
 13 14  1  0
 14 15  1  0
 14 16  1  0
 14 17  1  0
 17 18  2  0
 17 19  1  0
 19 20  1  0
 19 21  1  0
 21 22  2  0
 22 23  1  0
 23 24  1  0
 24 25  1  0
 25 26  1  0
 25 27  1  0
 27 28  1  0
 27 29  1  0
 27 30  1  0
 30 31  1  0
 30 32  1  0
 30 33  1  0
 33 34  1  0
 33 35  1  0
 33 36  1  0
 36 37  1  0
 36 38  1  0
 23 39  2  0
 39 40  1  0
 40 41  3  0
 39 42  1  0
 42 43  1  0
 43 44  1  0
 43 45  1  0
 42 46  2  0
 46 47  1  0
 13 48  2  0
 48 49  1  0
 49 50  1  0
 50 51  1  0
 50 52  1  0
 50 53  1  0
 48  2  1  0
 46 21  1  0
 36 25  1  0
M  END
>  <score>  (438) 
7.84312

$$$$

     RDKit          3D

 53 55  0  0  0  0  0  0  0  0999 V2000
   21.7776   16.5972   28.4197 H   0  0  0  0  0  0  0  0  0  0  0  0
   22.3080   15.6795   28.6596 C   0  0  0  0  0  0  0  0  0  0  0  0
   21.7361   14.7179   29.5047 C   0  0  0  0  0  0  0  0  0  0  0  0
   20.7507   14.8759   29.9225 H   0  0  0  0  0  0  0  0  0  0  0  0
   22.4200   13.5442   29.8182 C   0  0  0  0  0  0  0  0  0  0  0  0
   21.7895   12.6037   30.6388 N   0  0  0  0  0  0  0  0  0  0  0  0
   20.8225   12.7982   30.8814 H   0  0  0  0  0  0  0  0  0  0  0  0
   22.3458   11.3854   31.0460 C   0  0  0  0  0  0  0  0  0  0  0  0
   23.5567   11.2367   30.8714 O   0  0  0  0  0  0  0  0  0  0  0  0
   21.5146   10.2577   31.6572 C   0  0  0  0  0  0  0  0  0  0  0  0
   21.8311    8.9704   31.3858 N   0  0  0  0  0  0  0  0  0  0  0  0
   21.0785    7.9777   31.8082 C   0  0  0  0  0  0  0  0  0  0  0  0
   21.5835    6.8122   31.3630 N   0  0  0  0  0  0  0  0  0  0  0  0
   22.4326    6.9176   30.8232 H   0  0  0  0  0  0  0  0  0  0  0  0
   20.8596    5.6720   31.1978 C   0  0  0  0  0  0  0  0  0  0  0  0
   19.7144    5.6112   31.6094 O   0  0  0  0  0  0  0  0  0  0  0  0
   21.4920    4.5210   30.4304 C   0  0  0  0  0  0  0  0  0  0  0  0
   20.8773    3.6304   30.5686 H   0  0  0  0  0  0  0  0  0  0  0  0
   21.5027    4.7694   29.3671 H   0  0  0  0  0  0  0  0  0  0  0  0
   22.8995    4.2688   30.9245 C   0  0  0  0  0  0  0  0  0  0  0  0
   23.1283    3.1526   31.7388 C   0  0  0  0  0  0  0  0  0  0  0  0
   22.3085    2.4850   31.9857 H   0  0  0  0  0  0  0  0  0  0  0  0
   24.4023    2.8697   32.2546 C   0  0  0  0  0  0  0  0  0  0  0  0
   24.6478    1.7739   33.0486 O   0  0  0  0  0  0  0  0  0  0  0  0
   23.6143    0.7808   33.0861 C   0  0  0  0  0  0  0  0  0  0  0  0
   22.6987    1.1977   33.5165 H   0  0  0  0  0  0  0  0  0  0  0  0
   23.9346   -0.0659   33.6997 H   0  0  0  0  0  0  0  0  0  0  0  0
   23.3967    0.4159   32.0767 H   0  0  0  0  0  0  0  0  0  0  0  0
   25.4589    3.7417   31.9547 C   0  0  0  0  0  0  0  0  0  0  0  0
   27.2194    3.4399   32.6460 Br  0  0  0  0  0  0  0  0  0  0  0  0
   25.2349    4.8558   31.1432 C   0  0  0  0  0  0  0  0  0  0  0  0
   26.0582    5.5221   30.9119 H   0  0  0  0  0  0  0  0  0  0  0  0
   23.9658    5.1442   30.6224 C   0  0  0  0  0  0  0  0  0  0  0  0
   23.7473    6.2659   29.8510 O   0  0  0  0  0  0  0  0  0  0  0  0
   24.8969    7.1017   29.6244 C   0  0  0  0  0  0  0  0  0  0  0  0
   25.2919    7.4793   30.5740 H   0  0  0  0  0  0  0  0  0  0  0  0
   24.6297    7.9569   28.9977 H   0  0  0  0  0  0  0  0  0  0  0  0
   25.6873    6.5362   29.1191 H   0  0  0  0  0  0  0  0  0  0  0  0
   19.9463    8.1539   32.5523 C   0  0  0  0  0  0  0  0  0  0  0  0
   19.3415    7.3169   32.8609 H   0  0  0  0  0  0  0  0  0  0  0  0
   19.6292    9.4327   32.8988 C   0  0  0  0  0  0  0  0  0  0  0  0
   18.5403    9.5796   33.6944 N   0  0  0  0  0  0  0  0  0  0  0  0
   17.9119    8.7825   33.7289 H   0  0  0  0  0  0  0  0  0  0  0  0
   18.1463   10.5046   33.7691 H   0  0  0  0  0  0  0  0  0  0  0  0
   20.3817   10.5065   32.4511 C   0  0  0  0  0  0  0  0  0  0  0  0
   20.0271   11.8392   32.8147 C   0  0  0  0  0  0  0  0  0  0  0  0
   19.7918   12.9394   33.1046 N   0  0  0  0  0  0  0  0  0  0  0  0
   23.6900   13.3319   29.2654 C   0  0  0  0  0  0  0  0  0  0  0  0
   24.2268   12.4171   29.4705 H   0  0  0  0  0  0  0  0  0  0  0  0
   24.2697   14.2860   28.4181 C   0  0  0  0  0  0  0  0  0  0  0  0
   25.2610   14.1281   27.9993 H   0  0  0  0  0  0  0  0  0  0  0  0
   23.5811   15.4643   28.1203 C   0  0  0  0  0  0  0  0  0  0  0  0
   24.3135   16.6615   27.0812 Cl  0  0  0  0  0  0  0  0  0  0  0  0
  1  2  1  0
  2  3  2  0
  3  4  1  0
  3  5  1  0
  5  6  1  0
  6  7  1  0
  6  8  1  0
  8  9  2  0
  8 10  1  0
 10 11  2  0
 11 12  1  0
 12 13  1  0
 13 14  1  0
 13 15  1  0
 15 16  2  0
 15 17  1  0
 17 18  1  0
 17 19  1  0
 17 20  1  0
 20 21  2  0
 21 22  1  0
 21 23  1  0
 23 24  1  0
 24 25  1  0
 25 26  1  0
 25 27  1  0
 25 28  1  0
 23 29  2  0
 29 30  1  0
 29 31  1  0
 31 32  1  0
 31 33  2  0
 33 34  1  0
 34 35  1  0
 35 36  1  0
 35 37  1  0
 35 38  1  0
 12 39  2  0
 39 40  1  0
 39 41  1  0
 41 42  1  0
 42 43  1  0
 42 44  1  0
 41 45  2  0
 45 46  1  0
 46 47  3  0
  5 48  2  0
 48 49  1  0
 48 50  1  0
 50 51  1  0
 50 52  2  0
 52 53  1  0
 52  2  1  0
 45 10  1  0
 33 20  1  0
M  END
>  <score>  (439) 
7.8452

$$$$

     RDKit          3D

 57 59  0  0  0  0  0  0  0  0999 V2000
   26.1667    5.4264   30.8440 H   0  0  0  0  0  0  0  0  0  0  0  0
   25.3208    4.7968   31.0973 C   0  0  0  0  0  0  0  0  0  0  0  0
   25.5104    3.6973   31.9409 C   0  0  0  0  0  0  0  0  0  0  0  0
   27.2622    3.3388   32.6318 Br  0  0  0  0  0  0  0  0  0  0  0  0
   24.4294    2.8602   32.2644 C   0  0  0  0  0  0  0  0  0  0  0  0
   24.6598    1.7928   33.1036 O   0  0  0  0  0  0  0  0  0  0  0  0
   23.6783    0.7460   33.1291 C   0  0  0  0  0  0  0  0  0  0  0  0
   23.4824    0.3765   32.1172 H   0  0  0  0  0  0  0  0  0  0  0  0
   24.0508   -0.0888   33.7340 H   0  0  0  0  0  0  0  0  0  0  0  0
   22.7408    1.1010   33.5686 H   0  0  0  0  0  0  0  0  0  0  0  0
   23.1622    3.1538   31.7270 C   0  0  0  0  0  0  0  0  0  0  0  0
   22.3293    2.5022   31.9747 H   0  0  0  0  0  0  0  0  0  0  0  0
   22.9678    4.2632   30.8844 C   0  0  0  0  0  0  0  0  0  0  0  0
   21.5939    4.5611   30.3177 C   0  0  0  0  0  0  0  0  0  0  0  0
   20.9604    3.6736   30.3620 H   0  0  0  0  0  0  0  0  0  0  0  0
   21.6945    4.8475   29.2674 H   0  0  0  0  0  0  0  0  0  0  0  0
   20.9155    5.7070   31.0623 C   0  0  0  0  0  0  0  0  0  0  0  0
   19.8606    5.5443   31.6507 O   0  0  0  0  0  0  0  0  0  0  0  0
   21.4773    6.9458   30.9979 N   0  0  0  0  0  0  0  0  0  0  0  0
   22.3299    7.0817   30.4792 H   0  0  0  0  0  0  0  0  0  0  0  0
   21.0145    8.0546   31.5907 C   0  0  0  0  0  0  0  0  0  0  0  0
   21.7873    9.0493   31.2581 N   0  0  0  0  0  0  0  0  0  0  0  0
   21.4383   10.2504   31.6867 C   0  0  0  0  0  0  0  0  0  0  0  0
   22.2634   11.2787   31.2775 N   0  0  0  0  0  0  0  0  0  0  0  0
   23.7291   11.0663   31.2547 C   0  0  0  0  0  0  0  0  0  0  0  0
   24.0334   10.3839   30.4483 H   0  0  0  0  0  0  0  0  0  0  0  0
   24.0748   10.6236   32.1976 H   0  0  0  0  0  0  0  0  0  0  0  0
   24.3742   12.4395   31.0208 C   0  0  0  0  0  0  0  0  0  0  0  0
   23.9620   13.1586   31.7396 H   0  0  0  0  0  0  0  0  0  0  0  0
   25.4516   12.3777   31.1780 H   0  0  0  0  0  0  0  0  0  0  0  0
   24.0783   12.9167   29.5866 C   0  0  0  0  0  0  0  0  0  0  0  0
   24.2163   14.0034   29.5257 H   0  0  0  0  0  0  0  0  0  0  0  0
   25.0859   12.2425   28.6343 C   0  0  0  0  0  0  0  0  0  0  0  0
   26.1104   12.5504   28.8717 H   0  0  0  0  0  0  0  0  0  0  0  0
   25.0280   11.1549   28.7358 H   0  0  0  0  0  0  0  0  0  0  0  0
   24.8868   12.5011   27.5895 H   0  0  0  0  0  0  0  0  0  0  0  0
   22.6223   12.5421   29.1980 C   0  0  0  0  0  0  0  0  0  0  0  0
   22.6461   11.5885   28.6660 H   0  0  0  0  0  0  0  0  0  0  0  0
   22.2045   13.2973   28.5216 H   0  0  0  0  0  0  0  0  0  0  0  0
   21.7024   12.3476   30.4206 C   0  0  0  0  0  0  0  0  0  0  0  0
   20.6887   12.0991   30.0854 H   0  0  0  0  0  0  0  0  0  0  0  0
   21.6401   13.2782   30.9892 H   0  0  0  0  0  0  0  0  0  0  0  0
   20.3287   10.4923   32.4710 C   0  0  0  0  0  0  0  0  0  0  0  0
   19.9922   11.8136   32.8857 C   0  0  0  0  0  0  0  0  0  0  0  0
   19.7225   12.9043   33.1880 N   0  0  0  0  0  0  0  0  0  0  0  0
   19.5907    9.4034   32.8363 C   0  0  0  0  0  0  0  0  0  0  0  0
   18.5061    9.5100   33.6318 N   0  0  0  0  0  0  0  0  0  0  0  0
   18.1847   10.4295   33.9194 H   0  0  0  0  0  0  0  0  0  0  0  0
   17.9804    8.6706   33.8610 H   0  0  0  0  0  0  0  0  0  0  0  0
   19.9118    8.1595   32.3931 C   0  0  0  0  0  0  0  0  0  0  0  0
   19.3082    7.3056   32.6513 H   0  0  0  0  0  0  0  0  0  0  0  0
   24.0579    5.1004   30.5674 C   0  0  0  0  0  0  0  0  0  0  0  0
   23.8448    6.1875   29.7471 O   0  0  0  0  0  0  0  0  0  0  0  0
   24.9309    7.1132   29.5905 C   0  0  0  0  0  0  0  0  0  0  0  0
   24.6002    7.9663   28.9889 H   0  0  0  0  0  0  0  0  0  0  0  0
   25.2629    7.4836   30.5660 H   0  0  0  0  0  0  0  0  0  0  0  0
   25.7785    6.6385   29.0847 H   0  0  0  0  0  0  0  0  0  0  0  0
  1  2  1  0
  2  3  2  0
  3  4  1  0
  3  5  1  0
  5  6  1  0
  6  7  1  0
  7  8  1  0
  7  9  1  0
  7 10  1  0
  5 11  2  0
 11 12  1  0
 11 13  1  0
 13 14  1  0
 14 15  1  0
 14 16  1  0
 14 17  1  0
 17 18  2  0
 17 19  1  0
 19 20  1  0
 19 21  1  0
 21 22  2  0
 22 23  1  0
 23 24  1  0
 24 25  1  0
 25 26  1  0
 25 27  1  0
 25 28  1  0
 28 29  1  0
 28 30  1  0
 28 31  1  0
 31 32  1  0
 31 33  1  0
 33 34  1  0
 33 35  1  0
 33 36  1  0
 31 37  1  0
 37 38  1  0
 37 39  1  0
 37 40  1  0
 40 41  1  0
 40 42  1  0
 23 43  2  0
 43 44  1  0
 44 45  3  0
 43 46  1  0
 46 47  1  0
 47 48  1  0
 47 49  1  0
 46 50  2  0
 50 51  1  0
 13 52  2  0
 52 53  1  0
 53 54  1  0
 54 55  1  0
 54 56  1  0
 54 57  1  0
 52  2  1  0
 50 21  1  0
 40 24  1  0
M  END
>  <score>  (440) 
7.85056

$$$$

     RDKit          3D

 62 64  0  0  0  0  0  0  0  0999 V2000
   26.1398    5.4738   30.8791 H   0  0  0  0  0  0  0  0  0  0  0  0
   25.2994    4.8305   31.1162 C   0  0  0  0  0  0  0  0  0  0  0  0
   25.5074    3.7289   31.9463 C   0  0  0  0  0  0  0  0  0  0  0  0
   27.2616    3.4294   32.6567 Br  0  0  0  0  0  0  0  0  0  0  0  0
   24.4383    2.8722   32.2525 C   0  0  0  0  0  0  0  0  0  0  0  0
   24.6702    1.7819   33.0585 O   0  0  0  0  0  0  0  0  0  0  0  0
   23.6397    0.7855   33.0868 C   0  0  0  0  0  0  0  0  0  0  0  0
   23.9614   -0.0624   33.6977 H   0  0  0  0  0  0  0  0  0  0  0  0
   22.7217    1.1960   33.5176 H   0  0  0  0  0  0  0  0  0  0  0  0
   23.4286    0.4230   32.0755 H   0  0  0  0  0  0  0  0  0  0  0  0
   23.1648    3.1656   31.7313 C   0  0  0  0  0  0  0  0  0  0  0  0
   22.3323    2.5146   31.9761 H   0  0  0  0  0  0  0  0  0  0  0  0
   22.9502    4.2748   30.9038 C   0  0  0  0  0  0  0  0  0  0  0  0
   21.5549    4.5581   30.3868 C   0  0  0  0  0  0  0  0  0  0  0  0
   20.9107    3.6857   30.5217 H   0  0  0  0  0  0  0  0  0  0  0  0
   21.5931    4.7873   29.3193 H   0  0  0  0  0  0  0  0  0  0  0  0
   20.9431    5.7402   31.1181 C   0  0  0  0  0  0  0  0  0  0  0  0
   19.7912    5.6869   31.5165 O   0  0  0  0  0  0  0  0  0  0  0  0
   21.6693    6.8869   31.2644 N   0  0  0  0  0  0  0  0  0  0  0  0
   22.5535    6.9709   30.7846 H   0  0  0  0  0  0  0  0  0  0  0  0
   21.1515    8.0383   31.7122 C   0  0  0  0  0  0  0  0  0  0  0  0
   21.8819    9.0521   31.3328 N   0  0  0  0  0  0  0  0  0  0  0  0
   21.4515   10.2538   31.6763 C   0  0  0  0  0  0  0  0  0  0  0  0
   22.2325   11.3170   31.2669 N   0  0  0  0  0  0  0  0  0  0  0  0
   21.6695   12.2971   30.3275 C   0  0  0  0  0  0  0  0  0  0  0  0
   20.5768   12.2030   30.2667 H   0  0  0  0  0  0  0  0  0  0  0  0
   21.8887   13.3106   30.6780 H   0  0  0  0  0  0  0  0  0  0  0  0
   22.2838   12.0815   28.9458 C   0  0  0  0  0  0  0  0  0  0  0  0
   21.8999   11.1481   28.5248 H   0  0  0  0  0  0  0  0  0  0  0  0
   21.9725   12.8992   28.2915 H   0  0  0  0  0  0  0  0  0  0  0  0
   23.8212   12.0160   28.9963 C   0  0  0  0  0  0  0  0  0  0  0  0
   24.1887   11.7306   28.0045 H   0  0  0  0  0  0  0  0  0  0  0  0
   24.4085   13.3277   29.3388 N   0  0  0  0  0  0  0  0  0  0  0  0
   25.8521   13.3079   29.6703 C   0  0  0  0  0  0  0  0  0  0  0  0
   26.2431   14.3266   29.7157 H   0  0  0  0  0  0  0  0  0  0  0  0
   26.4385   12.7544   28.9219 H   0  0  0  0  0  0  0  0  0  0  0  0
   25.9952   12.8418   30.6536 H   0  0  0  0  0  0  0  0  0  0  0  0
   23.9942   14.4349   28.4535 C   0  0  0  0  0  0  0  0  0  0  0  0
   24.6477   15.3075   28.5732 H   0  0  0  0  0  0  0  0  0  0  0  0
   24.0430   14.1263   27.4031 H   0  0  0  0  0  0  0  0  0  0  0  0
   22.9660   14.7307   28.6955 H   0  0  0  0  0  0  0  0  0  0  0  0
   24.2979   10.9757   30.0138 C   0  0  0  0  0  0  0  0  0  0  0  0
   25.3841   11.0358   30.1038 H   0  0  0  0  0  0  0  0  0  0  0  0
   24.0362    9.9714   29.6750 H   0  0  0  0  0  0  0  0  0  0  0  0
   23.6926   11.2281   31.3805 C   0  0  0  0  0  0  0  0  0  0  0  0
   23.9828   10.4202   32.0636 H   0  0  0  0  0  0  0  0  0  0  0  0
   24.0789   12.1669   31.7949 H   0  0  0  0  0  0  0  0  0  0  0  0
   20.3024   10.4777   32.4019 C   0  0  0  0  0  0  0  0  0  0  0  0
   19.9455   11.8024   32.7791 C   0  0  0  0  0  0  0  0  0  0  0  0
   19.6950   12.8947   33.0869 N   0  0  0  0  0  0  0  0  0  0  0  0
   19.5674    9.3847   32.7592 C   0  0  0  0  0  0  0  0  0  0  0  0
   18.3991    9.5054   33.4169 N   0  0  0  0  0  0  0  0  0  0  0  0
   18.2078   10.4072   33.8368 H   0  0  0  0  0  0  0  0  0  0  0  0
   18.0318    8.6680   33.8590 H   0  0  0  0  0  0  0  0  0  0  0  0
   20.0017    8.1414   32.4443 C   0  0  0  0  0  0  0  0  0  0  0  0
   19.4583    7.2655   32.7485 H   0  0  0  0  0  0  0  0  0  0  0  0
   24.0303    5.1260   30.5940 C   0  0  0  0  0  0  0  0  0  0  0  0
   23.8148    6.2319   29.8032 O   0  0  0  0  0  0  0  0  0  0  0  0
   24.9415    7.0992   29.6195 C   0  0  0  0  0  0  0  0  0  0  0  0
   25.7640    6.5593   29.1404 H   0  0  0  0  0  0  0  0  0  0  0  0
   24.6641    7.9443   28.9855 H   0  0  0  0  0  0  0  0  0  0  0  0
   25.2848    7.4847   30.5846 H   0  0  0  0  0  0  0  0  0  0  0  0
  1  2  1  0
  2  3  2  0
  3  4  1  0
  3  5  1  0
  5  6  1  0
  6  7  1  0
  7  8  1  0
  7  9  1  0
  7 10  1  0
  5 11  2  0
 11 12  1  0
 11 13  1  0
 13 14  1  0
 14 15  1  0
 14 16  1  0
 14 17  1  0
 17 18  2  0
 17 19  1  0
 19 20  1  0
 19 21  1  0
 21 22  2  0
 22 23  1  0
 23 24  1  0
 24 25  1  0
 25 26  1  0
 25 27  1  0
 25 28  1  0
 28 29  1  0
 28 30  1  0
 28 31  1  0
 31 32  1  0
 31 33  1  0
 33 34  1  0
 34 35  1  0
 34 36  1  0
 34 37  1  0
 33 38  1  0
 38 39  1  0
 38 40  1  0
 38 41  1  0
 31 42  1  0
 42 43  1  0
 42 44  1  0
 42 45  1  0
 45 46  1  0
 45 47  1  0
 23 48  2  0
 48 49  1  0
 49 50  3  0
 48 51  1  0
 51 52  1  0
 52 53  1  0
 52 54  1  0
 51 55  2  0
 55 56  1  0
 13 57  2  0
 57 58  1  0
 58 59  1  0
 59 60  1  0
 59 61  1  0
 59 62  1  0
 57  2  1  0
 55 21  1  0
 45 24  1  0
M  END
>  <score>  (441) 
7.85071

$$$$

     RDKit          3D

 52 54  0  0  0  0  0  0  0  0999 V2000
   26.7684    9.7863   30.4354 H   0  0  0  0  0  0  0  0  0  0  0  0
   25.8965   10.1687   29.9215 C   0  0  0  0  0  0  0  0  0  0  0  0
   24.7788   10.6212   30.6262 C   0  0  0  0  0  0  0  0  0  0  0  0
   24.7810   10.5544   31.7111 H   0  0  0  0  0  0  0  0  0  0  0  0
   23.6814   11.1494   29.9328 C   0  0  0  0  0  0  0  0  0  0  0  0
   22.2274   11.7876   30.8597 S   0  0  0  0  0  0  0  0  0  0  0  0
   21.3222   12.5006   29.9302 O   0  0  0  0  0  0  0  0  0  0  0  0
   22.6948   12.7607   31.8726 O   0  0  0  0  0  0  0  0  0  0  0  0
   21.3438   10.3002   31.6375 C   0  0  0  0  0  0  0  0  0  0  0  0
   21.7254    9.0298   31.3333 N   0  0  0  0  0  0  0  0  0  0  0  0
   21.0437    7.9827   31.7704 C   0  0  0  0  0  0  0  0  0  0  0  0
   21.5958    6.8390   31.3316 N   0  0  0  0  0  0  0  0  0  0  0  0
   22.4527    6.9553   30.8080 H   0  0  0  0  0  0  0  0  0  0  0  0
   20.8900    5.6862   31.1604 C   0  0  0  0  0  0  0  0  0  0  0  0
   19.7279    5.6174   31.5255 O   0  0  0  0  0  0  0  0  0  0  0  0
   21.5411    4.5404   30.3979 C   0  0  0  0  0  0  0  0  0  0  0  0
   20.9112    3.6517   30.4928 H   0  0  0  0  0  0  0  0  0  0  0  0
   21.5853    4.8149   29.3419 H   0  0  0  0  0  0  0  0  0  0  0  0
   22.9468    4.2605   30.9033 C   0  0  0  0  0  0  0  0  0  0  0  0
   23.1712    3.1482   31.7266 C   0  0  0  0  0  0  0  0  0  0  0  0
   22.3481    2.4837   31.9699 H   0  0  0  0  0  0  0  0  0  0  0  0
   24.4455    2.8654   32.2538 C   0  0  0  0  0  0  0  0  0  0  0  0
   24.6799    1.7800   33.0655 O   0  0  0  0  0  0  0  0  0  0  0  0
   23.6489    0.7828   33.0925 C   0  0  0  0  0  0  0  0  0  0  0  0
   23.4396    0.4239   32.0792 H   0  0  0  0  0  0  0  0  0  0  0  0
   22.7297    1.1931   33.5219 H   0  0  0  0  0  0  0  0  0  0  0  0
   23.9680   -0.0675   33.7021 H   0  0  0  0  0  0  0  0  0  0  0  0
   25.5106    3.7269   31.9467 C   0  0  0  0  0  0  0  0  0  0  0  0
   27.2670    3.4445   32.6572 Br  0  0  0  0  0  0  0  0  0  0  0  0
   25.2969    4.8244   31.1112 C   0  0  0  0  0  0  0  0  0  0  0  0
   26.1295    5.4750   30.8674 H   0  0  0  0  0  0  0  0  0  0  0  0
   24.0265    5.1125   30.5858 C   0  0  0  0  0  0  0  0  0  0  0  0
   23.8072    6.2142   29.7893 O   0  0  0  0  0  0  0  0  0  0  0  0
   24.9315    7.0902   29.6186 C   0  0  0  0  0  0  0  0  0  0  0  0
   24.6488    7.9499   29.0063 H   0  0  0  0  0  0  0  0  0  0  0  0
   25.2800    7.4533   30.5913 H   0  0  0  0  0  0  0  0  0  0  0  0
   25.7544    6.5635   29.1239 H   0  0  0  0  0  0  0  0  0  0  0  0
   19.9162    8.0733   32.5374 C   0  0  0  0  0  0  0  0  0  0  0  0
   19.3758    7.2028   32.8763 H   0  0  0  0  0  0  0  0  0  0  0  0
   19.5144    9.3221   32.8967 C   0  0  0  0  0  0  0  0  0  0  0  0
   18.4026    9.4041   33.6772 N   0  0  0  0  0  0  0  0  0  0  0  0
   17.8905    8.5570   33.9134 H   0  0  0  0  0  0  0  0  0  0  0  0
   18.0354   10.3185   33.9277 H   0  0  0  0  0  0  0  0  0  0  0  0
   20.2196   10.4522   32.4873 C   0  0  0  0  0  0  0  0  0  0  0  0
   19.7812   11.7296   32.9504 C   0  0  0  0  0  0  0  0  0  0  0  0
   19.4266   12.7615   33.3607 N   0  0  0  0  0  0  0  0  0  0  0  0
   23.7174   11.1876   28.5282 C   0  0  0  0  0  0  0  0  0  0  0  0
   22.8913   11.5941   27.9562 H   0  0  0  0  0  0  0  0  0  0  0  0
   24.8322   10.7133   27.8322 C   0  0  0  0  0  0  0  0  0  0  0  0
   24.8677   10.7414   26.7456 H   0  0  0  0  0  0  0  0  0  0  0  0
   25.9306   10.2075   28.5285 C   0  0  0  0  0  0  0  0  0  0  0  0
   27.3284    9.6031   27.6622 Cl  0  0  0  0  0  0  0  0  0  0  0  0
  1  2  1  0
  2  3  2  0
  3  4  1  0
  3  5  1  0
  5  6  1  0
  6  7  2  0
  6  8  2  0
  6  9  1  0
  9 10  2  0
 10 11  1  0
 11 12  1  0
 12 13  1  0
 12 14  1  0
 14 15  2  0
 14 16  1  0
 16 17  1  0
 16 18  1  0
 16 19  1  0
 19 20  2  0
 20 21  1  0
 20 22  1  0
 22 23  1  0
 23 24  1  0
 24 25  1  0
 24 26  1  0
 24 27  1  0
 22 28  2  0
 28 29  1  0
 28 30  1  0
 30 31  1  0
 30 32  2  0
 32 33  1  0
 33 34  1  0
 34 35  1  0
 34 36  1  0
 34 37  1  0
 11 38  2  0
 38 39  1  0
 38 40  1  0
 40 41  1  0
 41 42  1  0
 41 43  1  0
 40 44  2  0
 44 45  1  0
 45 46  3  0
  5 47  2  0
 47 48  1  0
 47 49  1  0
 49 50  1  0
 49 51  2  0
 51 52  1  0
 51  2  1  0
 44  9  1  0
 32 19  1  0
M  END
>  <score>  (442) 
7.85186

$$$$

     RDKit          3D

 55 57  0  0  0  0  0  0  0  0999 V2000
   26.6436   10.5881   28.6566 H   0  0  0  0  0  0  0  0  0  0  0  0
   25.7019   10.7608   29.1676 C   0  0  0  0  0  0  0  0  0  0  0  0
   25.3787    9.9872   30.2823 C   0  0  0  0  0  0  0  0  0  0  0  0
   26.0599    9.2196   30.6372 H   0  0  0  0  0  0  0  0  0  0  0  0
   24.1673   10.2052   30.9392 C   0  0  0  0  0  0  0  0  0  0  0  0
   23.9060    9.6421   31.8261 H   0  0  0  0  0  0  0  0  0  0  0  0
   23.2633   11.1562   30.4738 C   0  0  0  0  0  0  0  0  0  0  0  0
   22.0595   11.3292   31.1403 N   0  0  0  0  0  0  0  0  0  0  0  0
   21.4665   12.0912   30.8524 H   0  0  0  0  0  0  0  0  0  0  0  0
   21.3824   10.2731   31.6909 C   0  0  0  0  0  0  0  0  0  0  0  0
   21.8136    9.0698   31.3595 N   0  0  0  0  0  0  0  0  0  0  0  0
   21.1130    8.0435   31.7523 C   0  0  0  0  0  0  0  0  0  0  0  0
   21.6380    6.8968   31.2891 N   0  0  0  0  0  0  0  0  0  0  0  0
   22.5023    7.0068   30.7801 H   0  0  0  0  0  0  0  0  0  0  0  0
   20.9325    5.7350   31.1573 C   0  0  0  0  0  0  0  0  0  0  0  0
   19.7870    5.6661   31.5716 O   0  0  0  0  0  0  0  0  0  0  0  0
   21.5479    4.5602   30.4107 C   0  0  0  0  0  0  0  0  0  0  0  0
   20.9189    3.6782   30.5534 H   0  0  0  0  0  0  0  0  0  0  0  0
   21.5687    4.7899   29.3440 H   0  0  0  0  0  0  0  0  0  0  0  0
   22.9477    4.2834   30.9059 C   0  0  0  0  0  0  0  0  0  0  0  0
   23.1613    3.1640   31.7184 C   0  0  0  0  0  0  0  0  0  0  0  0
   22.3334    2.5026   31.9547 H   0  0  0  0  0  0  0  0  0  0  0  0
   24.4301    2.8747   32.2471 C   0  0  0  0  0  0  0  0  0  0  0  0
   24.6575    1.7808   33.0498 O   0  0  0  0  0  0  0  0  0  0  0  0
   23.6159    0.7935   33.0795 C   0  0  0  0  0  0  0  0  0  0  0  0
   22.6986    1.2108   33.5064 H   0  0  0  0  0  0  0  0  0  0  0  0
   23.9269   -0.0579   33.6914 H   0  0  0  0  0  0  0  0  0  0  0  0
   23.4001    0.4313   32.0690 H   0  0  0  0  0  0  0  0  0  0  0  0
   25.4960    3.7402   31.9537 C   0  0  0  0  0  0  0  0  0  0  0  0
   27.2470    3.4305   32.6667 Br  0  0  0  0  0  0  0  0  0  0  0  0
   25.2874    4.8526   31.1331 C   0  0  0  0  0  0  0  0  0  0  0  0
   26.1192    5.5101   30.9053 H   0  0  0  0  0  0  0  0  0  0  0  0
   24.0212    5.1445   30.6016 C   0  0  0  0  0  0  0  0  0  0  0  0
   23.7990    6.2558   29.8172 O   0  0  0  0  0  0  0  0  0  0  0  0
   24.9314    7.1160   29.6193 C   0  0  0  0  0  0  0  0  0  0  0  0
   24.6468    7.9828   29.0171 H   0  0  0  0  0  0  0  0  0  0  0  0
   25.7353    6.5827   29.1013 H   0  0  0  0  0  0  0  0  0  0  0  0
   25.3118    7.4704   30.5826 H   0  0  0  0  0  0  0  0  0  0  0  0
   19.9683    8.1430   32.4824 C   0  0  0  0  0  0  0  0  0  0  0  0
   19.3957    7.2801   32.7692 H   0  0  0  0  0  0  0  0  0  0  0  0
   19.5523    9.3877   32.8144 C   0  0  0  0  0  0  0  0  0  0  0  0
   18.3915    9.4678   33.4843 N   0  0  0  0  0  0  0  0  0  0  0  0
   18.1557   10.3584   33.9115 H   0  0  0  0  0  0  0  0  0  0  0  0
   18.0422    8.6024   33.8879 H   0  0  0  0  0  0  0  0  0  0  0  0
   20.2574   10.4967   32.4461 C   0  0  0  0  0  0  0  0  0  0  0  0
   19.8644   11.8124   32.8244 C   0  0  0  0  0  0  0  0  0  0  0  0
   19.5919   12.8975   33.1450 N   0  0  0  0  0  0  0  0  0  0  0  0
   23.5638   11.9143   29.3509 C   0  0  0  0  0  0  0  0  0  0  0  0
   22.5584   12.8295   28.8471 C   0  0  0  0  0  0  0  0  0  0  0  0
   22.8500   13.8249   28.2144 O   0  0  0  0  0  0  0  0  0  0  0  0
   21.2216   12.5586   28.9095 N   0  0  0  0  0  0  0  0  0  0  0  0
   20.6810   13.0967   28.2339 H   0  0  0  0  0  0  0  0  0  0  0  0
   20.9922   11.5829   29.0455 H   0  0  0  0  0  0  0  0  0  0  0  0
   24.8090   11.7329   28.7067 C   0  0  0  0  0  0  0  0  0  0  0  0
   25.0824   12.3155   27.8300 H   0  0  0  0  0  0  0  0  0  0  0  0
  1  2  1  0
  2  3  2  0
  3  4  1  0
  3  5  1  0
  5  6  1  0
  5  7  2  0
  7  8  1  0
  8  9  1  0
  8 10  1  0
 10 11  2  0
 11 12  1  0
 12 13  1  0
 13 14  1  0
 13 15  1  0
 15 16  2  0
 15 17  1  0
 17 18  1  0
 17 19  1  0
 17 20  1  0
 20 21  2  0
 21 22  1  0
 21 23  1  0
 23 24  1  0
 24 25  1  0
 25 26  1  0
 25 27  1  0
 25 28  1  0
 23 29  2  0
 29 30  1  0
 29 31  1  0
 31 32  1  0
 31 33  2  0
 33 34  1  0
 34 35  1  0
 35 36  1  0
 35 37  1  0
 35 38  1  0
 12 39  2  0
 39 40  1  0
 39 41  1  0
 41 42  1  0
 42 43  1  0
 42 44  1  0
 41 45  2  0
 45 46  1  0
 46 47  3  0
  7 48  1  0
 48 49  1  0
 49 50  2  0
 49 51  1  0
 51 52  1  0
 51 53  1  0
 48 54  2  0
 54 55  1  0
 54  2  1  0
 45 10  1  0
 33 20  1  0
M  END
>  <score>  (443) 
7.85366

$$$$

     RDKit          3D

 63 66  0  0  0  0  0  0  0  0999 V2000
   27.9508   13.2378   25.6472 H   0  0  0  0  0  0  0  0  0  0  0  0
   27.1411   13.0316   26.3377 C   0  0  0  0  0  0  0  0  0  0  0  0
   26.9339   11.7266   26.7884 C   0  0  0  0  0  0  0  0  0  0  0  0
   27.5710   10.9166   26.4458 H   0  0  0  0  0  0  0  0  0  0  0  0
   25.9100   11.4717   27.7023 C   0  0  0  0  0  0  0  0  0  0  0  0
   25.7341   10.4702   28.0786 H   0  0  0  0  0  0  0  0  0  0  0  0
   25.0856   12.4979   28.1756 C   0  0  0  0  0  0  0  0  0  0  0  0
   24.1421   12.1956   29.1649 N   0  0  0  0  0  0  0  0  0  0  0  0
   22.9131   12.9956   29.4194 C   0  0  0  0  0  0  0  0  0  0  0  0
   23.1361   13.7535   30.1786 H   0  0  0  0  0  0  0  0  0  0  0  0
   22.5810   13.5078   28.5077 H   0  0  0  0  0  0  0  0  0  0  0  0
   21.7734   12.0776   29.9461 C   0  0  0  0  0  0  0  0  0  0  0  0
   20.8865   12.6881   30.1474 H   0  0  0  0  0  0  0  0  0  0  0  0
   21.5184   11.3608   29.1559 H   0  0  0  0  0  0  0  0  0  0  0  0
   22.1790   11.3452   31.1769 N   0  0  0  0  0  0  0  0  0  0  0  0
   21.3772   10.2968   31.5910 C   0  0  0  0  0  0  0  0  0  0  0  0
   21.8073    9.0915   31.2479 N   0  0  0  0  0  0  0  0  0  0  0  0
   21.1095    8.0748   31.6727 C   0  0  0  0  0  0  0  0  0  0  0  0
   21.6432    6.9097   31.2848 N   0  0  0  0  0  0  0  0  0  0  0  0
   22.5015    6.9900   30.7548 H   0  0  0  0  0  0  0  0  0  0  0  0
   20.9254    5.7520   31.2037 C   0  0  0  0  0  0  0  0  0  0  0  0
   19.7777    5.6839   31.6216 O   0  0  0  0  0  0  0  0  0  0  0  0
   21.5056    4.5743   30.4464 C   0  0  0  0  0  0  0  0  0  0  0  0
   21.5108    4.7970   29.3733 H   0  0  0  0  0  0  0  0  0  0  0  0
   20.8741    3.6960   30.6230 H   0  0  0  0  0  0  0  0  0  0  0  0
   22.9114    4.3052   30.9258 C   0  0  0  0  0  0  0  0  0  0  0  0
   23.1308    3.1946   31.7480 C   0  0  0  0  0  0  0  0  0  0  0  0
   22.3006    2.5423   32.0076 H   0  0  0  0  0  0  0  0  0  0  0  0
   24.4093    2.8976   32.2535 C   0  0  0  0  0  0  0  0  0  0  0  0
   24.6517    1.7917   33.0310 O   0  0  0  0  0  0  0  0  0  0  0  0
   23.5997    0.8174   33.0575 C   0  0  0  0  0  0  0  0  0  0  0  0
   23.3792    0.4605   32.0463 H   0  0  0  0  0  0  0  0  0  0  0  0
   23.9006   -0.0361   33.6699 H   0  0  0  0  0  0  0  0  0  0  0  0
   22.6867    1.2494   33.4781 H   0  0  0  0  0  0  0  0  0  0  0  0
   25.4727    3.7607   31.9495 C   0  0  0  0  0  0  0  0  0  0  0  0
   27.2314    3.4588   32.6423 Br  0  0  0  0  0  0  0  0  0  0  0  0
   25.2550    4.8708   31.1340 C   0  0  0  0  0  0  0  0  0  0  0  0
   26.0863    5.5231   30.8852 H   0  0  0  0  0  0  0  0  0  0  0  0
   23.9846    5.1704   30.6160 C   0  0  0  0  0  0  0  0  0  0  0  0
   23.7759    6.2936   29.8437 O   0  0  0  0  0  0  0  0  0  0  0  0
   24.9375    7.1138   29.6266 C   0  0  0  0  0  0  0  0  0  0  0  0
   25.7268    6.5346   29.1364 H   0  0  0  0  0  0  0  0  0  0  0  0
   25.3286    7.4768   30.5823 H   0  0  0  0  0  0  0  0  0  0  0  0
   24.6912    7.9741   28.9977 H   0  0  0  0  0  0  0  0  0  0  0  0
   19.9916    8.1766   32.4451 C   0  0  0  0  0  0  0  0  0  0  0  0
   19.4706    7.3153   32.8265 H   0  0  0  0  0  0  0  0  0  0  0  0
   19.5633    9.4214   32.7578 C   0  0  0  0  0  0  0  0  0  0  0  0
   18.4593    9.5093   33.5207 N   0  0  0  0  0  0  0  0  0  0  0  0
   17.6838    9.9657   33.0533 H   0  0  0  0  0  0  0  0  0  0  0  0
   18.6530    9.8634   34.4498 H   0  0  0  0  0  0  0  0  0  0  0  0
   20.2494   10.5279   32.3433 C   0  0  0  0  0  0  0  0  0  0  0  0
   19.9018   11.8542   32.7327 C   0  0  0  0  0  0  0  0  0  0  0  0
   19.6908   12.9567   33.0379 N   0  0  0  0  0  0  0  0  0  0  0  0
   23.6449   11.2195   31.3924 C   0  0  0  0  0  0  0  0  0  0  0  0
   23.8799   10.3792   32.0553 H   0  0  0  0  0  0  0  0  0  0  0  0
   24.0041   12.1340   31.8732 H   0  0  0  0  0  0  0  0  0  0  0  0
   24.4306   11.0653   30.0812 C   0  0  0  0  0  0  0  0  0  0  0  0
   25.5007   11.0527   30.3203 H   0  0  0  0  0  0  0  0  0  0  0  0
   24.1759   10.1188   29.5916 H   0  0  0  0  0  0  0  0  0  0  0  0
   25.2792   13.7961   27.6936 C   0  0  0  0  0  0  0  0  0  0  0  0
   24.6415   14.5864   28.0704 H   0  0  0  0  0  0  0  0  0  0  0  0
   26.3134   14.0679   26.7852 C   0  0  0  0  0  0  0  0  0  0  0  0
   26.4878   15.0828   26.4421 H   0  0  0  0  0  0  0  0  0  0  0  0
  1  2  1  0
  2  3  2  0
  3  4  1  0
  3  5  1  0
  5  6  1  0
  5  7  2  0
  7  8  1  0
  8  9  1  0
  9 10  1  0
  9 11  1  0
  9 12  1  0
 12 13  1  0
 12 14  1  0
 12 15  1  0
 15 16  1  0
 16 17  2  0
 17 18  1  0
 18 19  1  0
 19 20  1  0
 19 21  1  0
 21 22  2  0
 21 23  1  0
 23 24  1  0
 23 25  1  0
 23 26  1  0
 26 27  2  0
 27 28  1  0
 27 29  1  0
 29 30  1  0
 30 31  1  0
 31 32  1  0
 31 33  1  0
 31 34  1  0
 29 35  2  0
 35 36  1  0
 35 37  1  0
 37 38  1  0
 37 39  2  0
 39 40  1  0
 40 41  1  0
 41 42  1  0
 41 43  1  0
 41 44  1  0
 18 45  2  0
 45 46  1  0
 45 47  1  0
 47 48  1  0
 48 49  1  0
 48 50  1  0
 47 51  2  0
 51 52  1  0
 52 53  3  0
 15 54  1  0
 54 55  1  0
 54 56  1  0
 54 57  1  0
 57 58  1  0
 57 59  1  0
  7 60  1  0
 60 61  1  0
 60 62  2  0
 62 63  1  0
 62  2  1  0
 57  8  1  0
 51 16  1  0
 39 26  1  0
M  END
>  <score>  (444) 
7.86151

$$$$

     RDKit          3D

 54 57  0  0  0  0  0  0  0  0999 V2000
   24.0045   10.3592   31.9222 H   0  0  0  0  0  0  0  0  0  0  0  0
   23.6247   11.2035   31.3504 C   0  0  0  0  0  0  0  0  0  0  0  0
   24.4881   12.0833   30.8332 N   0  0  0  0  0  0  0  0  0  0  0  0
   24.0005   13.1112   30.1190 C   0  0  0  0  0  0  0  0  0  0  0  0
   24.9175   13.9394   29.4751 C   0  0  0  0  0  0  0  0  0  0  0  0
   25.9725   13.7378   29.6060 H   0  0  0  0  0  0  0  0  0  0  0  0
   24.4858   14.9605   28.6235 C   0  0  0  0  0  0  0  0  0  0  0  0
   25.2136   15.5724   28.0964 H   0  0  0  0  0  0  0  0  0  0  0  0
   23.1158   15.1846   28.4569 C   0  0  0  0  0  0  0  0  0  0  0  0
   22.7800   15.9796   27.7991 H   0  0  0  0  0  0  0  0  0  0  0  0
   22.1782   14.3979   29.1345 C   0  0  0  0  0  0  0  0  0  0  0  0
   21.1189   14.5889   28.9904 H   0  0  0  0  0  0  0  0  0  0  0  0
   22.6158   13.3377   29.9440 C   0  0  0  0  0  0  0  0  0  0  0  0
   21.7183   12.4342   30.5087 C   0  0  0  0  0  0  0  0  0  0  0  0
   20.6458   12.5501   30.3529 H   0  0  0  0  0  0  0  0  0  0  0  0
   22.2496   11.3378   31.2020 C   0  0  0  0  0  0  0  0  0  0  0  0
   21.4426   10.2600   31.7145 C   0  0  0  0  0  0  0  0  0  0  0  0
   21.8796    9.0389   31.4131 N   0  0  0  0  0  0  0  0  0  0  0  0
   21.1385    8.0180   31.7700 C   0  0  0  0  0  0  0  0  0  0  0  0
   21.6675    6.8646   31.3311 N   0  0  0  0  0  0  0  0  0  0  0  0
   22.5407    6.9708   30.8326 H   0  0  0  0  0  0  0  0  0  0  0  0
   20.9377    5.7288   31.1337 C   0  0  0  0  0  0  0  0  0  0  0  0
   19.7583    5.6851   31.4573 O   0  0  0  0  0  0  0  0  0  0  0  0
   21.5764    4.5742   30.3776 C   0  0  0  0  0  0  0  0  0  0  0  0
   20.9362    3.6931   30.4524 H   0  0  0  0  0  0  0  0  0  0  0  0
   21.6438    4.8612   29.3260 H   0  0  0  0  0  0  0  0  0  0  0  0
   22.9662    4.2620   30.8979 C   0  0  0  0  0  0  0  0  0  0  0  0
   23.1719    3.1479   31.7287 C   0  0  0  0  0  0  0  0  0  0  0  0
   22.3403    2.4963   31.9805 H   0  0  0  0  0  0  0  0  0  0  0  0
   24.4434    2.8565   32.2615 C   0  0  0  0  0  0  0  0  0  0  0  0
   24.6747    1.7818   33.0914 O   0  0  0  0  0  0  0  0  0  0  0  0
   23.6671    0.7612   33.1141 C   0  0  0  0  0  0  0  0  0  0  0  0
   22.7370    1.1440   33.5441 H   0  0  0  0  0  0  0  0  0  0  0  0
   24.0103   -0.0845   33.7190 H   0  0  0  0  0  0  0  0  0  0  0  0
   23.4634    0.4009   32.1012 H   0  0  0  0  0  0  0  0  0  0  0  0
   25.5191    3.7059   31.9473 C   0  0  0  0  0  0  0  0  0  0  0  0
   27.2780    3.3867   32.6447 Br  0  0  0  0  0  0  0  0  0  0  0  0
   25.3204    4.8044   31.1048 C   0  0  0  0  0  0  0  0  0  0  0  0
   26.1620    5.4453   30.8595 H   0  0  0  0  0  0  0  0  0  0  0  0
   24.0530    5.1007   30.5779 C   0  0  0  0  0  0  0  0  0  0  0  0
   23.8300    6.2005   29.7789 O   0  0  0  0  0  0  0  0  0  0  0  0
   24.9342    7.0990   29.6069 C   0  0  0  0  0  0  0  0  0  0  0  0
   25.2820    7.4654   30.5774 H   0  0  0  0  0  0  0  0  0  0  0  0
   25.7670    6.5950   29.1070 H   0  0  0  0  0  0  0  0  0  0  0  0
   24.6235    7.9546   28.9989 H   0  0  0  0  0  0  0  0  0  0  0  0
   19.9584    8.1288   32.4616 C   0  0  0  0  0  0  0  0  0  0  0  0
   19.3683    7.2677   32.7230 H   0  0  0  0  0  0  0  0  0  0  0  0
   19.5529    9.3826   32.8146 C   0  0  0  0  0  0  0  0  0  0  0  0
   18.4045    9.5111   33.5242 N   0  0  0  0  0  0  0  0  0  0  0  0
   18.1506   10.4187   33.9167 H   0  0  0  0  0  0  0  0  0  0  0  0
   17.9723    8.6675   33.8825 H   0  0  0  0  0  0  0  0  0  0  0  0
   20.2859   10.4792   32.4459 C   0  0  0  0  0  0  0  0  0  0  0  0
   19.9083   11.7936   32.8416 C   0  0  0  0  0  0  0  0  0  0  0  0
   19.6516   12.8779   33.1785 N   0  0  0  0  0  0  0  0  0  0  0  0
  1  2  1  0
  2  3  2  0
  3  4  1  0
  4  5  2  0
  5  6  1  0
  5  7  1  0
  7  8  1  0
  7  9  2  0
  9 10  1  0
  9 11  1  0
 11 12  1  0
 11 13  2  0
 13 14  1  0
 14 15  1  0
 14 16  2  0
 16 17  1  0
 17 18  2  0
 18 19  1  0
 19 20  1  0
 20 21  1  0
 20 22  1  0
 22 23  2  0
 22 24  1  0
 24 25  1  0
 24 26  1  0
 24 27  1  0
 27 28  2  0
 28 29  1  0
 28 30  1  0
 30 31  1  0
 31 32  1  0
 32 33  1  0
 32 34  1  0
 32 35  1  0
 30 36  2  0
 36 37  1  0
 36 38  1  0
 38 39  1  0
 38 40  2  0
 40 41  1  0
 41 42  1  0
 42 43  1  0
 42 44  1  0
 42 45  1  0
 19 46  2  0
 46 47  1  0
 46 48  1  0
 48 49  1  0
 49 50  1  0
 49 51  1  0
 48 52  2  0
 52 53  1  0
 53 54  3  0
 16  2  1  0
 52 17  1  0
 13  4  1  0
 40 27  1  0
M  END
>  <score>  (445) 
7.86182

$$$$

     RDKit          3D

 49 51  0  0  0  0  0  0  0  0999 V2000
   22.1713   14.2633   29.4281 H   0  0  0  0  0  0  0  0  0  0  0  0
   22.5643   13.4304   30.0019 C   0  0  0  0  0  0  0  0  0  0  0  0
   21.7059   12.4338   30.4699 C   0  0  0  0  0  0  0  0  0  0  0  0
   20.6362   12.5101   30.2824 H   0  0  0  0  0  0  0  0  0  0  0  0
   22.2387   11.3284   31.1491 C   0  0  0  0  0  0  0  0  0  0  0  0
   21.3889   10.2486   31.6149 C   0  0  0  0  0  0  0  0  0  0  0  0
   21.7351    9.0338   31.2074 N   0  0  0  0  0  0  0  0  0  0  0  0
   20.9850    8.0251   31.5671 C   0  0  0  0  0  0  0  0  0  0  0  0
   21.4826    6.9032   31.0221 N   0  0  0  0  0  0  0  0  0  0  0  0
   22.3601    7.0175   30.5345 H   0  0  0  0  0  0  0  0  0  0  0  0
   20.9211    5.6691   31.0898 C   0  0  0  0  0  0  0  0  0  0  0  0
   19.8715    5.5029   31.6858 O   0  0  0  0  0  0  0  0  0  0  0  0
   21.5833    4.5398   30.3199 C   0  0  0  0  0  0  0  0  0  0  0  0
   20.9393    3.6614   30.3859 H   0  0  0  0  0  0  0  0  0  0  0  0
   21.6735    4.8264   29.2648 H   0  0  0  0  0  0  0  0  0  0  0  0
   22.9575    4.2539   30.8848 C   0  0  0  0  0  0  0  0  0  0  0  0
   23.1602    3.1490   31.7279 C   0  0  0  0  0  0  0  0  0  0  0  0
   22.3328    2.4889   31.9739 H   0  0  0  0  0  0  0  0  0  0  0  0
   24.4305    2.8671   32.2629 C   0  0  0  0  0  0  0  0  0  0  0  0
   24.6643    1.7962   33.0951 O   0  0  0  0  0  0  0  0  0  0  0  0
   23.6715    0.7580   33.1199 C   0  0  0  0  0  0  0  0  0  0  0  0
   22.7347    1.1243   33.5550 H   0  0  0  0  0  0  0  0  0  0  0  0
   23.4729    0.3929   32.1057 H   0  0  0  0  0  0  0  0  0  0  0  0
   24.0286   -0.0849   33.7247 H   0  0  0  0  0  0  0  0  0  0  0  0
   25.5053    3.7098   31.9382 C   0  0  0  0  0  0  0  0  0  0  0  0
   27.2592    3.3729   32.6317 Br  0  0  0  0  0  0  0  0  0  0  0  0
   25.3035    4.8071   31.0989 C   0  0  0  0  0  0  0  0  0  0  0  0
   26.1435    5.4414   30.8425 H   0  0  0  0  0  0  0  0  0  0  0  0
   24.0386    5.1025   30.5704 C   0  0  0  0  0  0  0  0  0  0  0  0
   23.8269    6.1881   29.7472 O   0  0  0  0  0  0  0  0  0  0  0  0
   24.9284    7.1001   29.5978 C   0  0  0  0  0  0  0  0  0  0  0  0
   25.7759    6.6150   29.0976 H   0  0  0  0  0  0  0  0  0  0  0  0
   25.2608    7.4646   30.5774 H   0  0  0  0  0  0  0  0  0  0  0  0
   24.6190    7.9605   28.9955 H   0  0  0  0  0  0  0  0  0  0  0  0
   19.8831    8.1329   32.3753 C   0  0  0  0  0  0  0  0  0  0  0  0
   19.2967    7.2786   32.6595 H   0  0  0  0  0  0  0  0  0  0  0  0
   19.5580    9.3738   32.8286 C   0  0  0  0  0  0  0  0  0  0  0  0
   18.5144    9.4843   33.6885 N   0  0  0  0  0  0  0  0  0  0  0  0
   18.1704   10.4158   33.9098 H   0  0  0  0  0  0  0  0  0  0  0  0
   17.9503    8.6569   33.8825 H   0  0  0  0  0  0  0  0  0  0  0  0
   20.2917   10.4644   32.4373 C   0  0  0  0  0  0  0  0  0  0  0  0
   19.9554   11.7786   32.8796 C   0  0  0  0  0  0  0  0  0  0  0  0
   19.6843   12.8573   33.2071 N   0  0  0  0  0  0  0  0  0  0  0  0
   23.6168   11.2332   31.3655 C   0  0  0  0  0  0  0  0  0  0  0  0
   24.1470   10.1538   31.9836 F   0  0  0  0  0  0  0  0  0  0  0  0
   24.4498   12.2752   30.9715 C   0  0  0  0  0  0  0  0  0  0  0  0
   25.5061   12.2366   31.2059 H   0  0  0  0  0  0  0  0  0  0  0  0
   23.9352   13.3597   30.2642 C   0  0  0  0  0  0  0  0  0  0  0  0
   24.7697   14.3172   29.8080 F   0  0  0  0  0  0  0  0  0  0  0  0
  1  2  1  0
  2  3  2  0
  3  4  1  0
  3  5  1  0
  5  6  1  0
  6  7  2  0
  7  8  1  0
  8  9  1  0
  9 10  1  0
  9 11  1  0
 11 12  2  0
 11 13  1  0
 13 14  1  0
 13 15  1  0
 13 16  1  0
 16 17  2  0
 17 18  1  0
 17 19  1  0
 19 20  1  0
 20 21  1  0
 21 22  1  0
 21 23  1  0
 21 24  1  0
 19 25  2  0
 25 26  1  0
 25 27  1  0
 27 28  1  0
 27 29  2  0
 29 30  1  0
 30 31  1  0
 31 32  1  0
 31 33  1  0
 31 34  1  0
  8 35  2  0
 35 36  1  0
 35 37  1  0
 37 38  1  0
 38 39  1  0
 38 40  1  0
 37 41  2  0
 41 42  1  0
 42 43  3  0
  5 44  2  0
 44 45  1  0
 44 46  1  0
 46 47  1  0
 46 48  2  0
 48 49  1  0
 48  2  1  0
 41  6  1  0
 29 16  1  0
M  END
>  <score>  (446) 
7.86615

$$$$

     RDKit          3D

 54 57  0  0  0  0  0  0  0  0999 V2000
   25.1669   15.6252   28.1819 H   0  0  0  0  0  0  0  0  0  0  0  0
   24.4401   14.9896   28.6808 C   0  0  0  0  0  0  0  0  0  0  0  0
   24.8914   14.0223   29.4888 N   0  0  0  0  0  0  0  0  0  0  0  0
   23.9931   13.2289   30.0966 C   0  0  0  0  0  0  0  0  0  0  0  0
   24.4895   12.2260   30.9168 C   0  0  0  0  0  0  0  0  0  0  0  0
   25.5546   12.2167   31.1046 H   0  0  0  0  0  0  0  0  0  0  0  0
   23.6464   11.2535   31.4503 C   0  0  0  0  0  0  0  0  0  0  0  0
   24.0733   10.4590   32.0576 H   0  0  0  0  0  0  0  0  0  0  0  0
   22.2609   11.3130   31.2405 C   0  0  0  0  0  0  0  0  0  0  0  0
   21.4160   10.2040   31.7276 C   0  0  0  0  0  0  0  0  0  0  0  0
   21.8305    8.9617   31.4526 N   0  0  0  0  0  0  0  0  0  0  0  0
   21.0709    7.9458   31.7743 C   0  0  0  0  0  0  0  0  0  0  0  0
   21.6352    6.7948   31.3732 N   0  0  0  0  0  0  0  0  0  0  0  0
   22.4729    6.9315   30.8313 H   0  0  0  0  0  0  0  0  0  0  0  0
   20.9349    5.6557   31.1378 C   0  0  0  0  0  0  0  0  0  0  0  0
   19.7458    5.5986   31.4048 O   0  0  0  0  0  0  0  0  0  0  0  0
   21.6014    4.5426   30.3457 C   0  0  0  0  0  0  0  0  0  0  0  0
   20.9780    3.6462   30.3717 H   0  0  0  0  0  0  0  0  0  0  0  0
   21.6828    4.8750   29.3081 H   0  0  0  0  0  0  0  0  0  0  0  0
   22.9829    4.2430   30.8859 C   0  0  0  0  0  0  0  0  0  0  0  0
   23.1787    3.1383   31.7314 C   0  0  0  0  0  0  0  0  0  0  0  0
   22.3463    2.4883   31.9834 H   0  0  0  0  0  0  0  0  0  0  0  0
   24.4450    2.8505   32.2704 C   0  0  0  0  0  0  0  0  0  0  0  0
   24.6710    1.7834   33.1111 O   0  0  0  0  0  0  0  0  0  0  0  0
   23.6798    0.7460   33.1296 C   0  0  0  0  0  0  0  0  0  0  0  0
   23.4835    0.3818   32.1160 H   0  0  0  0  0  0  0  0  0  0  0  0
   24.0415   -0.0932   33.7325 H   0  0  0  0  0  0  0  0  0  0  0  0
   22.7434    1.1074   33.5658 H   0  0  0  0  0  0  0  0  0  0  0  0
   25.5227    3.6917   31.9461 C   0  0  0  0  0  0  0  0  0  0  0  0
   27.2749    3.3442   32.6386 Br  0  0  0  0  0  0  0  0  0  0  0  0
   25.3297    4.7925   31.1025 C   0  0  0  0  0  0  0  0  0  0  0  0
   26.1694    5.4302   30.8485 H   0  0  0  0  0  0  0  0  0  0  0  0
   24.0660    5.0895   30.5722 C   0  0  0  0  0  0  0  0  0  0  0  0
   23.8441    6.1845   29.7639 O   0  0  0  0  0  0  0  0  0  0  0  0
   24.9318    7.1067   29.5963 C   0  0  0  0  0  0  0  0  0  0  0  0
   24.6031    7.9581   28.9921 H   0  0  0  0  0  0  0  0  0  0  0  0
   25.2701    7.4822   30.5672 H   0  0  0  0  0  0  0  0  0  0  0  0
   25.7753    6.6280   29.0887 H   0  0  0  0  0  0  0  0  0  0  0  0
   19.8758    8.0675   32.4162 C   0  0  0  0  0  0  0  0  0  0  0  0
   19.2981    7.2100   32.7084 H   0  0  0  0  0  0  0  0  0  0  0  0
   19.4878    9.3218   32.7630 C   0  0  0  0  0  0  0  0  0  0  0  0
   18.3650    9.4023   33.5099 N   0  0  0  0  0  0  0  0  0  0  0  0
   17.6142    8.8224   33.1488 H   0  0  0  0  0  0  0  0  0  0  0  0
   18.5529    9.2375   34.4932 H   0  0  0  0  0  0  0  0  0  0  0  0
   20.2451   10.4202   32.4353 C   0  0  0  0  0  0  0  0  0  0  0  0
   19.8877   11.7304   32.8651 C   0  0  0  0  0  0  0  0  0  0  0  0
   19.6223   12.8021   33.2318 N   0  0  0  0  0  0  0  0  0  0  0  0
   21.7317   12.4129   30.5223 C   0  0  0  0  0  0  0  0  0  0  0  0
   20.6579   12.5212   30.3800 H   0  0  0  0  0  0  0  0  0  0  0  0
   22.5961   13.3604   29.9322 C   0  0  0  0  0  0  0  0  0  0  0  0
   22.1274   14.4341   29.1664 C   0  0  0  0  0  0  0  0  0  0  0  0
   21.0591   14.6101   29.0536 H   0  0  0  0  0  0  0  0  0  0  0  0
   23.0708   15.2530   28.5322 C   0  0  0  0  0  0  0  0  0  0  0  0
   22.7594   16.1105   27.9470 H   0  0  0  0  0  0  0  0  0  0  0  0
  1  2  1  0
  2  3  2  0
  3  4  1  0
  4  5  2  0
  5  6  1  0
  5  7  1  0
  7  8  1  0
  7  9  2  0
  9 10  1  0
 10 11  2  0
 11 12  1  0
 12 13  1  0
 13 14  1  0
 13 15  1  0
 15 16  2  0
 15 17  1  0
 17 18  1  0
 17 19  1  0
 17 20  1  0
 20 21  2  0
 21 22  1  0
 21 23  1  0
 23 24  1  0
 24 25  1  0
 25 26  1  0
 25 27  1  0
 25 28  1  0
 23 29  2  0
 29 30  1  0
 29 31  1  0
 31 32  1  0
 31 33  2  0
 33 34  1  0
 34 35  1  0
 35 36  1  0
 35 37  1  0
 35 38  1  0
 12 39  2  0
 39 40  1  0
 39 41  1  0
 41 42  1  0
 42 43  1  0
 42 44  1  0
 41 45  2  0
 45 46  1  0
 46 47  3  0
  9 48  1  0
 48 49  1  0
 48 50  2  0
 50 51  1  0
 51 52  1  0
 51 53  2  0
 53 54  1  0
 53  2  1  0
 50  4  1  0
 45 10  1  0
 33 20  1  0
M  END
>  <score>  (447) 
7.86984

$$$$

     RDKit          3D

 51 53  0  0  0  0  0  0  0  0999 V2000
   25.5527   12.3028   31.2388 H   0  0  0  0  0  0  0  0  0  0  0  0
   24.4927   12.3299   31.0198 C   0  0  0  0  0  0  0  0  0  0  0  0
   23.6693   11.2828   31.4331 C   0  0  0  0  0  0  0  0  0  0  0  0
   24.0990   10.4421   31.9750 H   0  0  0  0  0  0  0  0  0  0  0  0
   22.2843   11.3261   31.1982 C   0  0  0  0  0  0  0  0  0  0  0  0
   21.4075   10.2293   31.6650 C   0  0  0  0  0  0  0  0  0  0  0  0
   21.7792    8.9789   31.3735 N   0  0  0  0  0  0  0  0  0  0  0  0
   21.0268    7.9709   31.7550 C   0  0  0  0  0  0  0  0  0  0  0  0
   21.5987    6.8092   31.3792 N   0  0  0  0  0  0  0  0  0  0  0  0
   22.4731    6.9306   30.8956 H   0  0  0  0  0  0  0  0  0  0  0  0
   20.9181    5.6515   31.1368 C   0  0  0  0  0  0  0  0  0  0  0  0
   19.7295    5.5754   31.3913 O   0  0  0  0  0  0  0  0  0  0  0  0
   21.6091    4.5491   30.3447 C   0  0  0  0  0  0  0  0  0  0  0  0
   21.6971    4.8912   29.3125 H   0  0  0  0  0  0  0  0  0  0  0  0
   20.9916    3.6478   30.3513 H   0  0  0  0  0  0  0  0  0  0  0  0
   22.9883    4.2524   30.8887 C   0  0  0  0  0  0  0  0  0  0  0  0
   23.1759    3.1454   31.7324 C   0  0  0  0  0  0  0  0  0  0  0  0
   22.3412    2.4985   31.9819 H   0  0  0  0  0  0  0  0  0  0  0  0
   24.4386    2.8476   32.2717 C   0  0  0  0  0  0  0  0  0  0  0  0
   24.6670    1.7852   33.1163 O   0  0  0  0  0  0  0  0  0  0  0  0
   23.6851    0.7399   33.1354 C   0  0  0  0  0  0  0  0  0  0  0  0
   22.7472    1.0888   33.5770 H   0  0  0  0  0  0  0  0  0  0  0  0
   24.0565   -0.0940   33.7379 H   0  0  0  0  0  0  0  0  0  0  0  0
   23.4916    0.3698   32.1235 H   0  0  0  0  0  0  0  0  0  0  0  0
   25.5211    3.6798   31.9451 C   0  0  0  0  0  0  0  0  0  0  0  0
   27.2709    3.3208   32.6358 Br  0  0  0  0  0  0  0  0  0  0  0  0
   25.3371    4.7839   31.1024 C   0  0  0  0  0  0  0  0  0  0  0  0
   26.1794    5.4174   30.8451 H   0  0  0  0  0  0  0  0  0  0  0  0
   24.0760    5.0913   30.5707 C   0  0  0  0  0  0  0  0  0  0  0  0
   23.8531    6.1807   29.7552 O   0  0  0  0  0  0  0  0  0  0  0  0
   24.9318    7.1137   29.5903 C   0  0  0  0  0  0  0  0  0  0  0  0
   24.5924    7.9606   28.9882 H   0  0  0  0  0  0  0  0  0  0  0  0
   25.7794    6.6489   29.0765 H   0  0  0  0  0  0  0  0  0  0  0  0
   25.2645    7.4965   30.5604 H   0  0  0  0  0  0  0  0  0  0  0  0
   19.8619    8.1165   32.4574 C   0  0  0  0  0  0  0  0  0  0  0  0
   19.2584    7.2758   32.7537 H   0  0  0  0  0  0  0  0  0  0  0  0
   19.5185    9.3804   32.8222 C   0  0  0  0  0  0  0  0  0  0  0  0
   18.4468    9.4964   33.6409 N   0  0  0  0  0  0  0  0  0  0  0  0
   17.9163    8.6655   33.8991 H   0  0  0  0  0  0  0  0  0  0  0  0
   18.1450   10.4205   33.9323 H   0  0  0  0  0  0  0  0  0  0  0  0
   20.2637   10.4709   32.4199 C   0  0  0  0  0  0  0  0  0  0  0  0
   19.9349   11.7939   32.8409 C   0  0  0  0  0  0  0  0  0  0  0  0
   19.6956   12.8753   33.1979 N   0  0  0  0  0  0  0  0  0  0  0  0
   21.7496   12.4304   30.5023 C   0  0  0  0  0  0  0  0  0  0  0  0
   20.6834   12.4908   30.2902 H   0  0  0  0  0  0  0  0  0  0  0  0
   22.5784   13.4644   30.0172 C   0  0  0  0  0  0  0  0  0  0  0  0
   22.0467   14.5276   29.2458 N   0  0  0  0  0  4  0  0  0  0  0  0
   22.8347   15.3685   28.7946 O   0  0  0  0  0  0  0  0  0  0  0  0
   20.8266   14.5629   29.0558 O   0  0  0  0  0  1  0  0  0  0  0  0
   23.9555   13.3999   30.3063 C   0  0  0  0  0  0  0  0  0  0  0  0
   24.6237   14.1861   29.9653 H   0  0  0  0  0  0  0  0  0  0  0  0
  1  2  1  0
  2  3  2  0
  3  4  1  0
  3  5  1  0
  5  6  1  0
  6  7  2  0
  7  8  1  0
  8  9  1  0
  9 10  1  0
  9 11  1  0
 11 12  2  0
 11 13  1  0
 13 14  1  0
 13 15  1  0
 13 16  1  0
 16 17  2  0
 17 18  1  0
 17 19  1  0
 19 20  1  0
 20 21  1  0
 21 22  1  0
 21 23  1  0
 21 24  1  0
 19 25  2  0
 25 26  1  0
 25 27  1  0
 27 28  1  0
 27 29  2  0
 29 30  1  0
 30 31  1  0
 31 32  1  0
 31 33  1  0
 31 34  1  0
  8 35  2  0
 35 36  1  0
 35 37  1  0
 37 38  1  0
 38 39  1  0
 38 40  1  0
 37 41  2  0
 41 42  1  0
 42 43  3  0
  5 44  2  0
 44 45  1  0
 44 46  1  0
 46 47  1  0
 47 48  2  0
 47 49  1  0
 46 50  2  0
 50 51  1  0
 50  2  1  0
 41  6  1  0
 29 16  1  0
M  CHG  2  47   1  49  -1
M  END
>  <score>  (448) 
7.87425

$$$$

     RDKit          3D

 62 65  0  0  0  0  0  0  0  0999 V2000
   25.6917   14.2345   25.9268 H   0  0  0  0  0  0  0  0  0  0  0  0
   25.8165   13.3342   26.5208 C   0  0  0  0  0  0  0  0  0  0  0  0
   24.8756   13.0342   27.4186 N   0  0  0  0  0  0  0  0  0  0  0  0
   25.0676   11.9495   28.1654 C   0  0  0  0  0  0  0  0  0  0  0  0
   24.1257   11.6621   29.1380 N   0  0  0  0  0  0  0  0  0  0  0  0
   22.6717   11.7404   28.8444 C   0  0  0  0  0  0  0  0  0  0  0  0
   22.3310   10.7678   28.4721 H   0  0  0  0  0  0  0  0  0  0  0  0
   22.4633   12.4836   28.0704 H   0  0  0  0  0  0  0  0  0  0  0  0
   21.8443   12.1034   30.1026 C   0  0  0  0  0  0  0  0  0  0  0  0
   22.0429   13.1483   30.3581 H   0  0  0  0  0  0  0  0  0  0  0  0
   20.7772   12.0228   29.8749 H   0  0  0  0  0  0  0  0  0  0  0  0
   22.1958   11.2649   31.2665 N   0  0  0  0  0  0  0  0  0  0  0  0
   21.3574   10.2361   31.6445 C   0  0  0  0  0  0  0  0  0  0  0  0
   21.7169    9.0523   31.1955 N   0  0  0  0  0  0  0  0  0  0  0  0
   20.9703    8.0478   31.5503 C   0  0  0  0  0  0  0  0  0  0  0  0
   21.4835    6.9362   31.0074 N   0  0  0  0  0  0  0  0  0  0  0  0
   22.3511    7.0713   30.5085 H   0  0  0  0  0  0  0  0  0  0  0  0
   20.9338    5.6967   31.0906 C   0  0  0  0  0  0  0  0  0  0  0  0
   19.8791    5.5324   31.6816 O   0  0  0  0  0  0  0  0  0  0  0  0
   21.5874    4.5584   30.3283 C   0  0  0  0  0  0  0  0  0  0  0  0
   21.6761    4.8384   29.2737 H   0  0  0  0  0  0  0  0  0  0  0  0
   20.9419    3.6836   30.3963 H   0  0  0  0  0  0  0  0  0  0  0  0
   22.9602    4.2651   30.8838 C   0  0  0  0  0  0  0  0  0  0  0  0
   23.1557    3.1593   31.7280 C   0  0  0  0  0  0  0  0  0  0  0  0
   22.3233    2.5066   31.9737 H   0  0  0  0  0  0  0  0  0  0  0  0
   24.4251    2.8693   32.2618 C   0  0  0  0  0  0  0  0  0  0  0  0
   24.6587    1.7969   33.0932 O   0  0  0  0  0  0  0  0  0  0  0  0
   23.6684    0.7589   33.1178 C   0  0  0  0  0  0  0  0  0  0  0  0
   24.0295   -0.0801   33.7227 H   0  0  0  0  0  0  0  0  0  0  0  0
   22.7335    1.1231   33.5534 H   0  0  0  0  0  0  0  0  0  0  0  0
   23.4701    0.3919   32.1062 H   0  0  0  0  0  0  0  0  0  0  0  0
   25.5029    3.7105   31.9406 C   0  0  0  0  0  0  0  0  0  0  0  0
   27.2576    3.3653   32.6313 Br  0  0  0  0  0  0  0  0  0  0  0  0
   25.3077    4.8079   31.0971 C   0  0  0  0  0  0  0  0  0  0  0  0
   26.1521    5.4380   30.8410 H   0  0  0  0  0  0  0  0  0  0  0  0
   24.0444    5.1081   30.5682 C   0  0  0  0  0  0  0  0  0  0  0  0
   23.8357    6.1962   29.7471 O   0  0  0  0  0  0  0  0  0  0  0  0
   24.9329    7.1072   29.5907 C   0  0  0  0  0  0  0  0  0  0  0  0
   24.6219    7.9566   28.9753 H   0  0  0  0  0  0  0  0  0  0  0  0
   25.7820    6.6162   29.1046 H   0  0  0  0  0  0  0  0  0  0  0  0
   25.2558    7.4829   30.5660 H   0  0  0  0  0  0  0  0  0  0  0  0
   19.8732    8.1360   32.3704 C   0  0  0  0  0  0  0  0  0  0  0  0
   19.3073    7.2678   32.6587 H   0  0  0  0  0  0  0  0  0  0  0  0
   19.5439    9.3712   32.8336 C   0  0  0  0  0  0  0  0  0  0  0  0
   18.5121    9.4779   33.7001 N   0  0  0  0  0  0  0  0  0  0  0  0
   17.9453    8.6519   33.8747 H   0  0  0  0  0  0  0  0  0  0  0  0
   18.1487   10.4035   33.9187 H   0  0  0  0  0  0  0  0  0  0  0  0
   20.2669   10.4605   32.4502 C   0  0  0  0  0  0  0  0  0  0  0  0
   19.9483   11.7734   32.8891 C   0  0  0  0  0  0  0  0  0  0  0  0
   19.6953   12.8585   33.2238 N   0  0  0  0  0  0  0  0  0  0  0  0
   23.6506   11.1436   31.5111 C   0  0  0  0  0  0  0  0  0  0  0  0
   23.8528   10.3947   32.2792 H   0  0  0  0  0  0  0  0  0  0  0  0
   23.9903   12.1084   31.8918 H   0  0  0  0  0  0  0  0  0  0  0  0
   24.5103   10.8202   30.2830 C   0  0  0  0  0  0  0  0  0  0  0  0
   25.5551   11.0018   30.5468 H   0  0  0  0  0  0  0  0  0  0  0  0
   24.4196    9.7636   30.0224 H   0  0  0  0  0  0  0  0  0  0  0  0
   26.1919   11.1320   28.0433 C   0  0  0  0  0  0  0  0  0  0  0  0
   26.2937   10.2848   28.7053 H   0  0  0  0  0  0  0  0  0  0  0  0
   27.1509   11.4049   27.0816 C   0  0  0  0  0  0  0  0  0  0  0  0
   28.0254   10.7706   26.9508 H   0  0  0  0  0  0  0  0  0  0  0  0
   26.9443   12.5363   26.3034 C   0  0  0  0  0  0  0  0  0  0  0  0
   27.6594   12.8171   25.5397 H   0  0  0  0  0  0  0  0  0  0  0  0
  1  2  1  0
  2  3  2  0
  3  4  1  0
  4  5  1  0
  5  6  1  0
  6  7  1  0
  6  8  1  0
  6  9  1  0
  9 10  1  0
  9 11  1  0
  9 12  1  0
 12 13  1  0
 13 14  2  0
 14 15  1  0
 15 16  1  0
 16 17  1  0
 16 18  1  0
 18 19  2  0
 18 20  1  0
 20 21  1  0
 20 22  1  0
 20 23  1  0
 23 24  2  0
 24 25  1  0
 24 26  1  0
 26 27  1  0
 27 28  1  0
 28 29  1  0
 28 30  1  0
 28 31  1  0
 26 32  2  0
 32 33  1  0
 32 34  1  0
 34 35  1  0
 34 36  2  0
 36 37  1  0
 37 38  1  0
 38 39  1  0
 38 40  1  0
 38 41  1  0
 15 42  2  0
 42 43  1  0
 42 44  1  0
 44 45  1  0
 45 46  1  0
 45 47  1  0
 44 48  2  0
 48 49  1  0
 49 50  3  0
 12 51  1  0
 51 52  1  0
 51 53  1  0
 51 54  1  0
 54 55  1  0
 54 56  1  0
  4 57  2  0
 57 58  1  0
 57 59  1  0
 59 60  1  0
 59 61  2  0
 61 62  1  0
 61  2  1  0
 54  5  1  0
 48 13  1  0
 36 23  1  0
M  END
>  <score>  (449) 
7.88135

$$$$

     RDKit          3D

 48 50  0  0  0  0  0  0  0  0999 V2000
   22.1107   14.4930   30.0472 H   0  0  0  0  0  0  0  0  0  0  0  0
   22.5582   13.5583   30.3666 C   0  0  0  0  0  0  0  0  0  0  0  0
   21.7539   12.5908   30.8580 N   0  0  0  0  0  0  0  0  0  0  0  0
   22.2843   11.3843   31.2059 C   0  0  0  0  0  0  0  0  0  0  0  0
   21.4026   10.2423   31.6835 C   0  0  0  0  0  0  0  0  0  0  0  0
   21.7508    8.9682   31.3807 N   0  0  0  0  0  0  0  0  0  0  0  0
   20.9900    7.9551   31.7532 C   0  0  0  0  0  0  0  0  0  0  0  0
   21.5607    6.7914   31.3883 N   0  0  0  0  0  0  0  0  0  0  0  0
   22.4685    6.9164   30.9591 H   0  0  0  0  0  0  0  0  0  0  0  0
   20.9006    5.6292   31.1258 C   0  0  0  0  0  0  0  0  0  0  0  0
   19.7135    5.5298   31.3927 O   0  0  0  0  0  0  0  0  0  0  0  0
   21.6150    4.5375   30.3257 C   0  0  0  0  0  0  0  0  0  0  0  0
   21.0167    3.6224   30.3063 H   0  0  0  0  0  0  0  0  0  0  0  0
   21.7219    4.8780   29.2936 H   0  0  0  0  0  0  0  0  0  0  0  0
   22.9934    4.2476   30.8801 C   0  0  0  0  0  0  0  0  0  0  0  0
   23.1780    3.1431   31.7304 C   0  0  0  0  0  0  0  0  0  0  0  0
   22.3409    2.5002   31.9799 H   0  0  0  0  0  0  0  0  0  0  0  0
   24.4392    2.8428   32.2733 C   0  0  0  0  0  0  0  0  0  0  0  0
   24.6622    1.7825   33.1251 O   0  0  0  0  0  0  0  0  0  0  0  0
   23.6913    0.7292   33.1443 C   0  0  0  0  0  0  0  0  0  0  0  0
   23.4999    0.3572   32.1339 H   0  0  0  0  0  0  0  0  0  0  0  0
   24.0760   -0.0980   33.7463 H   0  0  0  0  0  0  0  0  0  0  0  0
   22.7521    1.0686   33.5880 H   0  0  0  0  0  0  0  0  0  0  0  0
   25.5250    3.6726   31.9462 C   0  0  0  0  0  0  0  0  0  0  0  0
   27.2727    3.2959   32.6354 Br  0  0  0  0  0  0  0  0  0  0  0  0
   25.3467    4.7783   31.1001 C   0  0  0  0  0  0  0  0  0  0  0  0
   26.1939    5.4081   30.8466 H   0  0  0  0  0  0  0  0  0  0  0  0
   24.0853    5.0858   30.5673 C   0  0  0  0  0  0  0  0  0  0  0  0
   23.8656    6.1778   29.7537 O   0  0  0  0  0  0  0  0  0  0  0  0
   24.9316    7.1219   29.5848 C   0  0  0  0  0  0  0  0  0  0  0  0
   25.7805    6.6665   29.0688 H   0  0  0  0  0  0  0  0  0  0  0  0
   24.5768    7.9636   28.9836 H   0  0  0  0  0  0  0  0  0  0  0  0
   25.2638    7.5081   30.5516 H   0  0  0  0  0  0  0  0  0  0  0  0
   19.8343    8.1018   32.4652 C   0  0  0  0  0  0  0  0  0  0  0  0
   19.2276    7.2635   32.7712 H   0  0  0  0  0  0  0  0  0  0  0  0
   19.5019    9.3714   32.8384 C   0  0  0  0  0  0  0  0  0  0  0  0
   18.4437    9.4917   33.6682 N   0  0  0  0  0  0  0  0  0  0  0  0
   18.1307   10.4136   33.9539 H   0  0  0  0  0  0  0  0  0  0  0  0
   17.9067    8.6639   33.9048 H   0  0  0  0  0  0  0  0  0  0  0  0
   20.2530   10.4684   32.4532 C   0  0  0  0  0  0  0  0  0  0  0  0
   19.9156   11.7920   32.8788 C   0  0  0  0  0  0  0  0  0  0  0  0
   19.6866   12.8860   33.2094 N   0  0  0  0  0  0  0  0  0  0  0  0
   23.6805   11.1883   31.1111 C   0  0  0  0  0  0  0  0  0  0  0  0
   24.1052   10.2344   31.4086 H   0  0  0  0  0  0  0  0  0  0  0  0
   24.5149   12.1996   30.6347 C   0  0  0  0  0  0  0  0  0  0  0  0
   25.5880   12.0624   30.5546 H   0  0  0  0  0  0  0  0  0  0  0  0
   23.9445   13.3995   30.2364 C   0  0  0  0  0  0  0  0  0  0  0  0
   24.7306   14.3726   29.7201 F   0  0  0  0  0  0  0  0  0  0  0  0
  1  2  1  0
  2  3  2  0
  3  4  1  0
  4  5  1  0
  5  6  2  0
  6  7  1  0
  7  8  1  0
  8  9  1  0
  8 10  1  0
 10 11  2  0
 10 12  1  0
 12 13  1  0
 12 14  1  0
 12 15  1  0
 15 16  2  0
 16 17  1  0
 16 18  1  0
 18 19  1  0
 19 20  1  0
 20 21  1  0
 20 22  1  0
 20 23  1  0
 18 24  2  0
 24 25  1  0
 24 26  1  0
 26 27  1  0
 26 28  2  0
 28 29  1  0
 29 30  1  0
 30 31  1  0
 30 32  1  0
 30 33  1  0
  7 34  2  0
 34 35  1  0
 34 36  1  0
 36 37  1  0
 37 38  1  0
 37 39  1  0
 36 40  2  0
 40 41  1  0
 41 42  3  0
  4 43  2  0
 43 44  1  0
 43 45  1  0
 45 46  1  0
 45 47  2  0
 47 48  1  0
 47  2  1  0
 40  5  1  0
 28 15  1  0
M  END
>  <score>  (450) 
7.88792

$$$$

     RDKit          3D

 48 50  0  0  0  0  0  0  0  0999 V2000
   24.6685   14.0601   30.0319 H   0  0  0  0  0  0  0  0  0  0  0  0
   23.9815   13.2822   30.3552 C   0  0  0  0  0  0  0  0  0  0  0  0
   24.4750   12.2233   31.0268 N   0  0  0  0  0  0  0  0  0  0  0  0
   23.6279   11.2582   31.4206 C   0  0  0  0  0  0  0  0  0  0  0  0
   24.0497   10.4230   31.9724 H   0  0  0  0  0  0  0  0  0  0  0  0
   22.2490   11.3334   31.2004 C   0  0  0  0  0  0  0  0  0  0  0  0
   21.4165   10.2415   31.6908 C   0  0  0  0  0  0  0  0  0  0  0  0
   21.8121    9.0001   31.3921 N   0  0  0  0  0  0  0  0  0  0  0  0
   21.0445    7.9898   31.7548 C   0  0  0  0  0  0  0  0  0  0  0  0
   21.6006    6.8187   31.3811 N   0  0  0  0  0  0  0  0  0  0  0  0
   22.4883    6.9368   30.9222 H   0  0  0  0  0  0  0  0  0  0  0  0
   20.9198    5.6618   31.1314 C   0  0  0  0  0  0  0  0  0  0  0  0
   19.7311    5.5869   31.3916 O   0  0  0  0  0  0  0  0  0  0  0  0
   21.6131    4.5523   30.3376 C   0  0  0  0  0  0  0  0  0  0  0  0
   21.0025    3.6436   30.3287 H   0  0  0  0  0  0  0  0  0  0  0  0
   21.7156    4.8866   29.3031 H   0  0  0  0  0  0  0  0  0  0  0  0
   22.9919    4.2520   30.8851 C   0  0  0  0  0  0  0  0  0  0  0  0
   23.1771    3.1445   31.7314 C   0  0  0  0  0  0  0  0  0  0  0  0
   22.3437    2.4969   31.9815 H   0  0  0  0  0  0  0  0  0  0  0  0
   24.4386    2.8439   32.2725 C   0  0  0  0  0  0  0  0  0  0  0  0
   24.6635    1.7831   33.1226 O   0  0  0  0  0  0  0  0  0  0  0  0
   23.6894    0.7330   33.1414 C   0  0  0  0  0  0  0  0  0  0  0  0
   23.4974    0.3617   32.1305 H   0  0  0  0  0  0  0  0  0  0  0  0
   22.7503    1.0748   33.5843 H   0  0  0  0  0  0  0  0  0  0  0  0
   24.0695   -0.0964   33.7433 H   0  0  0  0  0  0  0  0  0  0  0  0
   25.5232    3.6749   31.9456 C   0  0  0  0  0  0  0  0  0  0  0  0
   27.2721    3.3033   32.6359 Br  0  0  0  0  0  0  0  0  0  0  0  0
   25.3436    4.7810   31.1005 C   0  0  0  0  0  0  0  0  0  0  0  0
   26.1872    5.4143   30.8438 H   0  0  0  0  0  0  0  0  0  0  0  0
   24.0826    5.0886   30.5689 C   0  0  0  0  0  0  0  0  0  0  0  0
   23.8618    6.1794   29.7541 O   0  0  0  0  0  0  0  0  0  0  0  0
   24.9320    7.1189   29.5870 C   0  0  0  0  0  0  0  0  0  0  0  0
   25.7810    6.6604   29.0724 H   0  0  0  0  0  0  0  0  0  0  0  0
   24.5834    7.9626   28.9852 H   0  0  0  0  0  0  0  0  0  0  0  0
   25.2642    7.5041   30.5549 H   0  0  0  0  0  0  0  0  0  0  0  0
   19.8756    8.1284   32.4465 C   0  0  0  0  0  0  0  0  0  0  0  0
   19.2593    7.2901   32.7351 H   0  0  0  0  0  0  0  0  0  0  0  0
   19.5367    9.3919   32.8213 C   0  0  0  0  0  0  0  0  0  0  0  0
   18.4681    9.5032   33.6347 N   0  0  0  0  0  0  0  0  0  0  0  0
   17.9451    8.6690   33.8826 H   0  0  0  0  0  0  0  0  0  0  0  0
   18.1594   10.4202   33.9380 H   0  0  0  0  0  0  0  0  0  0  0  0
   20.2786   10.4857   32.4437 C   0  0  0  0  0  0  0  0  0  0  0  0
   19.9455   11.8127   32.8610 C   0  0  0  0  0  0  0  0  0  0  0  0
   19.7025   12.9018   33.1885 N   0  0  0  0  0  0  0  0  0  0  0  0
   21.7282   12.4470   30.5073 C   0  0  0  0  0  0  0  0  0  0  0  0
   20.6677   12.5557   30.2746 H   0  0  0  0  0  0  0  0  0  0  0  0
   22.6182   13.4285   30.0606 C   0  0  0  0  0  0  0  0  0  0  0  0
   22.1781   14.4983   29.3509 F   0  0  0  0  0  0  0  0  0  0  0  0
  1  2  1  0
  2  3  2  0
  3  4  1  0
  4  5  1  0
  4  6  2  0
  6  7  1  0
  7  8  2  0
  8  9  1  0
  9 10  1  0
 10 11  1  0
 10 12  1  0
 12 13  2  0
 12 14  1  0
 14 15  1  0
 14 16  1  0
 14 17  1  0
 17 18  2  0
 18 19  1  0
 18 20  1  0
 20 21  1  0
 21 22  1  0
 22 23  1  0
 22 24  1  0
 22 25  1  0
 20 26  2  0
 26 27  1  0
 26 28  1  0
 28 29  1  0
 28 30  2  0
 30 31  1  0
 31 32  1  0
 32 33  1  0
 32 34  1  0
 32 35  1  0
  9 36  2  0
 36 37  1  0
 36 38  1  0
 38 39  1  0
 39 40  1  0
 39 41  1  0
 38 42  2  0
 42 43  1  0
 43 44  3  0
  6 45  1  0
 45 46  1  0
 45 47  2  0
 47 48  1  0
 47  2  1  0
 42  7  1  0
 30 17  1  0
M  END
>  <score>  (451) 
7.8907

$$$$

     RDKit          3D

 49 51  0  0  0  0  0  0  0  0999 V2000
   24.2468   14.3985   29.8609 H   0  0  0  0  0  0  0  0  0  0  0  0
   23.6622   13.5520   30.1983 C   0  0  0  0  0  0  0  0  0  0  0  0
   22.2857   13.5101   29.9811 C   0  0  0  0  0  0  0  0  0  0  0  0
   21.6755   14.5238   29.3269 F   0  0  0  0  0  0  0  0  0  0  0  0
   21.5441   12.4252   30.4584 C   0  0  0  0  0  0  0  0  0  0  0  0
   20.4710   12.4228   30.2821 H   0  0  0  0  0  0  0  0  0  0  0  0
   22.1797   11.3595   31.1308 C   0  0  0  0  0  0  0  0  0  0  0  0
   21.3910   10.2260   31.6541 C   0  0  0  0  0  0  0  0  0  0  0  0
   21.8204    8.9956   31.3654 N   0  0  0  0  0  0  0  0  0  0  0  0
   21.1020    7.9725   31.7672 C   0  0  0  0  0  0  0  0  0  0  0  0
   21.6299    6.8132   31.3303 N   0  0  0  0  0  0  0  0  0  0  0  0
   22.4898    6.9030   30.8121 H   0  0  0  0  0  0  0  0  0  0  0  0
   20.9050    5.6765   31.1560 C   0  0  0  0  0  0  0  0  0  0  0  0
   19.7416    5.6278   31.5197 O   0  0  0  0  0  0  0  0  0  0  0  0
   21.5416    4.5279   30.3945 C   0  0  0  0  0  0  0  0  0  0  0  0
   20.9097    3.6411   30.4887 H   0  0  0  0  0  0  0  0  0  0  0  0
   21.5760    4.8112   29.3412 H   0  0  0  0  0  0  0  0  0  0  0  0
   22.9450    4.2549   30.9030 C   0  0  0  0  0  0  0  0  0  0  0  0
   23.1678    3.1487   31.7299 C   0  0  0  0  0  0  0  0  0  0  0  0
   22.3414    2.4906   31.9773 H   0  0  0  0  0  0  0  0  0  0  0  0
   24.4422    2.8683   32.2548 C   0  0  0  0  0  0  0  0  0  0  0  0
   24.6751    1.7828   33.0645 O   0  0  0  0  0  0  0  0  0  0  0  0
   23.6419    0.7864   33.0884 C   0  0  0  0  0  0  0  0  0  0  0  0
   23.9559   -0.0676   33.6981 H   0  0  0  0  0  0  0  0  0  0  0  0
   22.7225    1.2005   33.5163 H   0  0  0  0  0  0  0  0  0  0  0  0
   23.4338    0.4302   32.0728 H   0  0  0  0  0  0  0  0  0  0  0  0
   25.5075    3.7275   31.9469 C   0  0  0  0  0  0  0  0  0  0  0  0
   27.2652    3.4479   32.6550 Br  0  0  0  0  0  0  0  0  0  0  0  0
   25.2904    4.8225   31.1121 C   0  0  0  0  0  0  0  0  0  0  0  0
   26.1225    5.4739   30.8718 H   0  0  0  0  0  0  0  0  0  0  0  0
   24.0197    5.1108   30.5869 C   0  0  0  0  0  0  0  0  0  0  0  0
   23.8000    6.2145   29.7923 O   0  0  0  0  0  0  0  0  0  0  0  0
   24.9316    7.0823   29.6200 C   0  0  0  0  0  0  0  0  0  0  0  0
   24.6553    7.9452   29.0082 H   0  0  0  0  0  0  0  0  0  0  0  0
   25.7498    6.5477   29.1227 H   0  0  0  0  0  0  0  0  0  0  0  0
   25.2866    7.4428   30.5931 H   0  0  0  0  0  0  0  0  0  0  0  0
   19.9423    8.0732   32.4874 C   0  0  0  0  0  0  0  0  0  0  0  0
   19.3960    7.1964   32.7994 H   0  0  0  0  0  0  0  0  0  0  0  0
   19.5182    9.3290   32.8002 C   0  0  0  0  0  0  0  0  0  0  0  0
   18.3572    9.4573   33.4859 N   0  0  0  0  0  0  0  0  0  0  0  0
   17.9510    8.6241   33.9035 H   0  0  0  0  0  0  0  0  0  0  0  0
   18.1346   10.3784   33.8618 H   0  0  0  0  0  0  0  0  0  0  0  0
   20.2425   10.4285   32.4087 C   0  0  0  0  0  0  0  0  0  0  0  0
   19.8611   11.7430   32.8074 C   0  0  0  0  0  0  0  0  0  0  0  0
   19.5891   12.8173   33.1589 N   0  0  0  0  0  0  0  0  0  0  0  0
   23.5779   11.4052   31.2906 C   0  0  0  0  0  0  0  0  0  0  0  0
   24.0985   10.5914   31.7896 H   0  0  0  0  0  0  0  0  0  0  0  0
   24.3115   12.5090   30.8501 C   0  0  0  0  0  0  0  0  0  0  0  0
   25.6403   12.5893   31.0542 F   0  0  0  0  0  0  0  0  0  0  0  0
  1  2  1  0
  2  3  2  0
  3  4  1  0
  3  5  1  0
  5  6  1  0
  5  7  2  0
  7  8  1  0
  8  9  2  0
  9 10  1  0
 10 11  1  0
 11 12  1  0
 11 13  1  0
 13 14  2  0
 13 15  1  0
 15 16  1  0
 15 17  1  0
 15 18  1  0
 18 19  2  0
 19 20  1  0
 19 21  1  0
 21 22  1  0
 22 23  1  0
 23 24  1  0
 23 25  1  0
 23 26  1  0
 21 27  2  0
 27 28  1  0
 27 29  1  0
 29 30  1  0
 29 31  2  0
 31 32  1  0
 32 33  1  0
 33 34  1  0
 33 35  1  0
 33 36  1  0
 10 37  2  0
 37 38  1  0
 37 39  1  0
 39 40  1  0
 40 41  1  0
 40 42  1  0
 39 43  2  0
 43 44  1  0
 44 45  3  0
  7 46  1  0
 46 47  1  0
 46 48  2  0
 48 49  1  0
 48  2  1  0
 43  8  1  0
 31 18  1  0
M  END
>  <score>  (452) 
7.89237

$$$$

     RDKit          3D

 49 51  0  0  0  0  0  0  0  0999 V2000
   24.2015   14.4471   29.7713 H   0  0  0  0  0  0  0  0  0  0  0  0
   23.5949   13.6023   30.0827 C   0  0  0  0  0  0  0  0  0  0  0  0
   22.2047   13.7065   30.1296 C   0  0  0  0  0  0  0  0  0  0  0  0
   21.7262   14.6410   29.8556 H   0  0  0  0  0  0  0  0  0  0  0  0
   21.4248   12.6086   30.5097 C   0  0  0  0  0  0  0  0  0  0  0  0
   20.3405   12.7137   30.4864 H   0  0  0  0  0  0  0  0  0  0  0  0
   22.0455   11.3975   30.8955 C   0  0  0  0  0  0  0  0  0  0  0  0
   21.2766   10.2458   31.3972 C   0  0  0  0  0  0  0  0  0  0  0  0
   21.7061    9.0195   31.0750 N   0  0  0  0  0  0  0  0  0  0  0  0
   21.1088    7.9754   31.6041 C   0  0  0  0  0  0  0  0  0  0  0  0
   21.6425    6.8138   31.1945 N   0  0  0  0  0  0  0  0  0  0  0  0
   22.4321    6.9101   30.5761 H   0  0  0  0  0  0  0  0  0  0  0  0
   20.9313    5.6529   31.1437 C   0  0  0  0  0  0  0  0  0  0  0  0
   19.8008    5.6025   31.6013 O   0  0  0  0  0  0  0  0  0  0  0  0
   21.5366    4.4707   30.4054 C   0  0  0  0  0  0  0  0  0  0  0  0
   20.9307    3.5825   30.6000 H   0  0  0  0  0  0  0  0  0  0  0  0
   21.5288    4.6622   29.3304 H   0  0  0  0  0  0  0  0  0  0  0  0
   22.9471    4.2439   30.8880 C   0  0  0  0  0  0  0  0  0  0  0  0
   23.1752    3.1249   31.6909 C   0  0  0  0  0  0  0  0  0  0  0  0
   22.3589    2.4427   31.9051 H   0  0  0  0  0  0  0  0  0  0  0  0
   24.4360    2.8539   32.2382 C   0  0  0  0  0  0  0  0  0  0  0  0
   24.6598    1.7486   33.0265 O   0  0  0  0  0  0  0  0  0  0  0  0
   23.5911    0.7902   33.0693 C   0  0  0  0  0  0  0  0  0  0  0  0
   22.6880    1.2393   33.4949 H   0  0  0  0  0  0  0  0  0  0  0  0
   23.8776   -0.0633   33.6882 H   0  0  0  0  0  0  0  0  0  0  0  0
   23.3613    0.4262   32.0623 H   0  0  0  0  0  0  0  0  0  0  0  0
   25.4861    3.7465   31.9731 C   0  0  0  0  0  0  0  0  0  0  0  0
   27.2283    3.4656   32.7138 Br  0  0  0  0  0  0  0  0  0  0  0  0
   25.2648    4.8695   31.1672 C   0  0  0  0  0  0  0  0  0  0  0  0
   26.0794    5.5568   30.9646 H   0  0  0  0  0  0  0  0  0  0  0  0
   24.0033    5.1412   30.6140 C   0  0  0  0  0  0  0  0  0  0  0  0
   23.7803    6.2641   29.8439 O   0  0  0  0  0  0  0  0  0  0  0  0
   24.9209    7.1146   29.6295 C   0  0  0  0  0  0  0  0  0  0  0  0
   25.7196    6.5599   29.1262 H   0  0  0  0  0  0  0  0  0  0  0  0
   24.6485    7.9700   29.0053 H   0  0  0  0  0  0  0  0  0  0  0  0
   25.3063    7.4935   30.5821 H   0  0  0  0  0  0  0  0  0  0  0  0
   20.0860    8.0634   32.5016 C   0  0  0  0  0  0  0  0  0  0  0  0
   19.6415    7.1999   32.9671 H   0  0  0  0  0  0  0  0  0  0  0  0
   19.6044    9.2988   32.7721 C   0  0  0  0  0  0  0  0  0  0  0  0
   18.5387    9.3374   33.5908 N   0  0  0  0  0  0  0  0  0  0  0  0
   17.8956   10.1127   33.4590 H   0  0  0  0  0  0  0  0  0  0  0  0
   18.1575    8.4237   33.8231 H   0  0  0  0  0  0  0  0  0  0  0  0
   20.1784   10.4207   32.2295 C   0  0  0  0  0  0  0  0  0  0  0  0
   19.7367   11.7346   32.5702 C   0  0  0  0  0  0  0  0  0  0  0  0
   19.4248   12.8242   32.8216 N   0  0  0  0  0  0  0  0  0  0  0  0
   23.4463   11.3027   30.8459 C   0  0  0  0  0  0  0  0  0  0  0  0
   24.2715    9.8469   31.3629 Cl  0  0  0  0  0  0  0  0  0  0  0  0
   24.2016   12.3969   30.4268 C   0  0  0  0  0  0  0  0  0  0  0  0
   25.2774   12.3137   30.3933 H   0  0  0  0  0  0  0  0  0  0  0  0
  1  2  1  0
  2  3  2  0
  3  4  1  0
  3  5  1  0
  5  6  1  0
  5  7  2  0
  7  8  1  0
  8  9  2  0
  9 10  1  0
 10 11  1  0
 11 12  1  0
 11 13  1  0
 13 14  2  0
 13 15  1  0
 15 16  1  0
 15 17  1  0
 15 18  1  0
 18 19  2  0
 19 20  1  0
 19 21  1  0
 21 22  1  0
 22 23  1  0
 23 24  1  0
 23 25  1  0
 23 26  1  0
 21 27  2  0
 27 28  1  0
 27 29  1  0
 29 30  1  0
 29 31  2  0
 31 32  1  0
 32 33  1  0
 33 34  1  0
 33 35  1  0
 33 36  1  0
 10 37  2  0
 37 38  1  0
 37 39  1  0
 39 40  1  0
 40 41  1  0
 40 42  1  0
 39 43  2  0
 43 44  1  0
 44 45  3  0
  7 46  1  0
 46 47  1  0
 46 48  2  0
 48 49  1  0
 48  2  1  0
 43  8  1  0
 31 18  1  0
M  END
>  <score>  (453) 
7.90044

$$$$

     RDKit          3D

 49 51  0  0  0  0  0  0  0  0999 V2000
   21.3307   14.4326   29.4341 H   0  0  0  0  0  0  0  0  0  0  0  0
   21.9011   13.5836   29.8118 C   0  0  0  0  0  0  0  0  0  0  0  0
   23.3041   13.6117   29.8166 C   0  0  0  0  0  0  0  0  0  0  0  0
   23.8592   14.4768   29.4705 H   0  0  0  0  0  0  0  0  0  0  0  0
   24.0427   12.5276   30.2982 C   0  0  0  0  0  0  0  0  0  0  0  0
   25.7958   12.6364   30.2849 Cl  0  0  0  0  0  0  0  0  0  0  0  0
   23.3717   11.4077   30.8178 C   0  0  0  0  0  0  0  0  0  0  0  0
   24.2946   10.0768   31.4776 Cl  0  0  0  0  0  0  0  0  0  0  0  0
   21.9593   11.3841   30.8560 C   0  0  0  0  0  0  0  0  0  0  0  0
   21.2285   10.2609   31.4651 C   0  0  0  0  0  0  0  0  0  0  0  0
   21.6587    9.0345   31.1783 N   0  0  0  0  0  0  0  0  0  0  0  0
   21.0117    8.0105   31.6778 C   0  0  0  0  0  0  0  0  0  0  0  0
   21.5995    6.8618   31.3161 N   0  0  0  0  0  0  0  0  0  0  0  0
   22.4623    6.9804   30.8032 H   0  0  0  0  0  0  0  0  0  0  0  0
   20.9041    5.7030   31.1501 C   0  0  0  0  0  0  0  0  0  0  0  0
   19.7318    5.6332   31.4928 O   0  0  0  0  0  0  0  0  0  0  0  0
   21.5568    4.5550   30.3917 C   0  0  0  0  0  0  0  0  0  0  0  0
   20.9289    3.6630   30.4740 H   0  0  0  0  0  0  0  0  0  0  0  0
   21.6145    4.8308   29.3362 H   0  0  0  0  0  0  0  0  0  0  0  0
   22.9552    4.2687   30.9062 C   0  0  0  0  0  0  0  0  0  0  0  0
   23.1703    3.1545   31.7309 C   0  0  0  0  0  0  0  0  0  0  0  0
   22.3438    2.4963   31.9752 H   0  0  0  0  0  0  0  0  0  0  0  0
   24.4419    2.8623   32.2581 C   0  0  0  0  0  0  0  0  0  0  0  0
   24.6754    1.7778   33.0725 O   0  0  0  0  0  0  0  0  0  0  0  0
   23.6524    0.7744   33.0982 C   0  0  0  0  0  0  0  0  0  0  0  0
   23.4454    0.4112   32.0861 H   0  0  0  0  0  0  0  0  0  0  0  0
   22.7306    1.1737   33.5318 H   0  0  0  0  0  0  0  0  0  0  0  0
   23.9821   -0.0711   33.7073 H   0  0  0  0  0  0  0  0  0  0  0  0
   25.5120    3.7156   31.9474 C   0  0  0  0  0  0  0  0  0  0  0  0
   27.2664    3.4154   32.6528 Br  0  0  0  0  0  0  0  0  0  0  0  0
   25.3071    4.8189   31.1145 C   0  0  0  0  0  0  0  0  0  0  0  0
   26.1425    5.4661   30.8678 H   0  0  0  0  0  0  0  0  0  0  0  0
   24.0378    5.1148   30.5912 C   0  0  0  0  0  0  0  0  0  0  0  0
   23.8162    6.2164   29.7952 O   0  0  0  0  0  0  0  0  0  0  0  0
   24.9338    7.0972   29.6193 C   0  0  0  0  0  0  0  0  0  0  0  0
   25.7562    6.5779   29.1168 H   0  0  0  0  0  0  0  0  0  0  0  0
   25.2845    7.4654   30.5888 H   0  0  0  0  0  0  0  0  0  0  0  0
   24.6411    7.9544   29.0090 H   0  0  0  0  0  0  0  0  0  0  0  0
   19.9070    8.1024   32.4752 C   0  0  0  0  0  0  0  0  0  0  0  0
   19.4261    7.2303   32.8861 H   0  0  0  0  0  0  0  0  0  0  0  0
   19.4903    9.3510   32.8042 C   0  0  0  0  0  0  0  0  0  0  0  0
   18.4549    9.4431   33.6694 N   0  0  0  0  0  0  0  0  0  0  0  0
   17.9287    8.5991   33.8892 H   0  0  0  0  0  0  0  0  0  0  0  0
   18.0625   10.3619   33.8601 H   0  0  0  0  0  0  0  0  0  0  0  0
   20.1438   10.4612   32.3182 C   0  0  0  0  0  0  0  0  0  0  0  0
   19.7941   11.7687   32.7692 C   0  0  0  0  0  0  0  0  0  0  0  0
   19.5250   12.8247   33.1741 N   0  0  0  0  0  0  0  0  0  0  0  0
   21.2349   12.4647   30.3200 C   0  0  0  0  0  0  0  0  0  0  0  0
   20.1456   12.4269   30.3064 H   0  0  0  0  0  0  0  0  0  0  0  0
  1  2  1  0
  2  3  2  0
  3  4  1  0
  3  5  1  0
  5  6  1  0
  5  7  2  0
  7  8  1  0
  7  9  1  0
  9 10  1  0
 10 11  2  0
 11 12  1  0
 12 13  1  0
 13 14  1  0
 13 15  1  0
 15 16  2  0
 15 17  1  0
 17 18  1  0
 17 19  1  0
 17 20  1  0
 20 21  2  0
 21 22  1  0
 21 23  1  0
 23 24  1  0
 24 25  1  0
 25 26  1  0
 25 27  1  0
 25 28  1  0
 23 29  2  0
 29 30  1  0
 29 31  1  0
 31 32  1  0
 31 33  2  0
 33 34  1  0
 34 35  1  0
 35 36  1  0
 35 37  1  0
 35 38  1  0
 12 39  2  0
 39 40  1  0
 39 41  1  0
 41 42  1  0
 42 43  1  0
 42 44  1  0
 41 45  2  0
 45 46  1  0
 46 47  3  0
  9 48  2  0
 48 49  1  0
 48  2  1  0
 45 10  1  0
 33 20  1  0
M  END
>  <score>  (454) 
7.90861

$$$$

     RDKit          3D

 51 53  0  0  0  0  0  0  0  0999 V2000
   23.0281   14.4854   31.3586 H   0  0  0  0  0  0  0  0  0  0  0  0
   22.9450   13.5296   30.8537 C   0  0  0  0  0  0  0  0  0  0  0  0
   22.2031   12.5565   31.4115 N   0  0  0  0  0  0  0  0  0  0  0  0
   22.1141   11.3356   30.8081 C   0  0  0  0  0  0  0  0  0  0  0  0
   21.3030   10.2114   31.4335 C   0  0  0  0  0  0  0  0  0  0  0  0
   21.6694    8.9363   31.1861 N   0  0  0  0  0  0  0  0  0  0  0  0
   21.0058    7.9374   31.7210 C   0  0  0  0  0  0  0  0  0  0  0  0
   21.5354    6.7632   31.3515 N   0  0  0  0  0  0  0  0  0  0  0  0
   22.3687    6.8414   30.7881 H   0  0  0  0  0  0  0  0  0  0  0  0
   20.8443    5.5951   31.3019 C   0  0  0  0  0  0  0  0  0  0  0  0
   19.7065    5.5169   31.7358 O   0  0  0  0  0  0  0  0  0  0  0  0
   21.4891    4.4192   30.5833 C   0  0  0  0  0  0  0  0  0  0  0  0
   21.5136    4.6483   29.5159 H   0  0  0  0  0  0  0  0  0  0  0  0
   20.8665    3.5317   30.7297 H   0  0  0  0  0  0  0  0  0  0  0  0
   22.9063    4.1647   31.0683 C   0  0  0  0  0  0  0  0  0  0  0  0
   23.1703    3.0029   31.8094 C   0  0  0  0  0  0  0  0  0  0  0  0
   22.3704    2.3013   32.0241 H   0  0  0  0  0  0  0  0  0  0  0  0
   24.4559    2.7198   32.2975 C   0  0  0  0  0  0  0  0  0  0  0  0
   24.7308    1.6009   33.0500 O   0  0  0  0  0  0  0  0  0  0  0  0
   23.6806    0.6317   33.1920 C   0  0  0  0  0  0  0  0  0  0  0  0
   24.0634   -0.2458   33.7243 H   0  0  0  0  0  0  0  0  0  0  0  0
   22.8416    1.0459   33.7617 H   0  0  0  0  0  0  0  0  0  0  0  0
   23.3183    0.3106   32.2099 H   0  0  0  0  0  0  0  0  0  0  0  0
   25.4950    3.6224   32.0230 C   0  0  0  0  0  0  0  0  0  0  0  0
   27.2739    3.2953   32.6469 Br  0  0  0  0  0  0  0  0  0  0  0  0
   25.2405    4.7816   31.2847 C   0  0  0  0  0  0  0  0  0  0  0  0
   26.0504    5.4737   31.0850 H   0  0  0  0  0  0  0  0  0  0  0  0
   23.9563    5.0717   30.7974 C   0  0  0  0  0  0  0  0  0  0  0  0
   23.6942    6.2207   30.0806 O   0  0  0  0  0  0  0  0  0  0  0  0
   24.8310    7.0112   29.6922 C   0  0  0  0  0  0  0  0  0  0  0  0
   24.4999    7.9047   29.1569 H   0  0  0  0  0  0  0  0  0  0  0  0
   25.4104    7.3245   30.5684 H   0  0  0  0  0  0  0  0  0  0  0  0
   25.4831    6.4423   29.0235 H   0  0  0  0  0  0  0  0  0  0  0  0
   19.9215    8.0839   32.5265 C   0  0  0  0  0  0  0  0  0  0  0  0
   19.4078    7.2297   32.9349 H   0  0  0  0  0  0  0  0  0  0  0  0
   19.5041    9.3502   32.7675 C   0  0  0  0  0  0  0  0  0  0  0  0
   18.3842    9.4671   33.5154 N   0  0  0  0  0  0  0  0  0  0  0  0
   17.8660    8.6069   33.6713 H   0  0  0  0  0  0  0  0  0  0  0  0
   17.8584   10.3266   33.4004 H   0  0  0  0  0  0  0  0  0  0  0  0
   20.1765   10.4405   32.2449 C   0  0  0  0  0  0  0  0  0  0  0  0
   19.7119   11.7637   32.5007 C   0  0  0  0  0  0  0  0  0  0  0  0
   19.3458   12.8499   32.6929 N   0  0  0  0  0  0  0  0  0  0  0  0
   22.7894   11.1106   29.5757 C   0  0  0  0  0  0  0  0  0  0  0  0
   22.6909    9.7834   28.8620 C   0  0  0  0  0  0  0  0  0  0  0  0
   23.0641    8.9795   29.5051 H   0  0  0  0  0  0  0  0  0  0  0  0
   21.6458    9.5751   28.6074 H   0  0  0  0  0  0  0  0  0  0  0  0
   23.2794    9.7900   27.9361 H   0  0  0  0  0  0  0  0  0  0  0  0
   23.5307   12.1373   28.9858 C   0  0  0  0  0  0  0  0  0  0  0  0
   24.0220   11.9877   28.0247 H   0  0  0  0  0  0  0  0  0  0  0  0
   23.6215   13.3537   29.6487 C   0  0  0  0  0  0  0  0  0  0  0  0
   24.2023   14.1669   29.2312 H   0  0  0  0  0  0  0  0  0  0  0  0
  1  2  1  0
  2  3  2  0
  3  4  1  0
  4  5  1  0
  5  6  2  0
  6  7  1  0
  7  8  1  0
  8  9  1  0
  8 10  1  0
 10 11  2  0
 10 12  1  0
 12 13  1  0
 12 14  1  0
 12 15  1  0
 15 16  2  0
 16 17  1  0
 16 18  1  0
 18 19  1  0
 19 20  1  0
 20 21  1  0
 20 22  1  0
 20 23  1  0
 18 24  2  0
 24 25  1  0
 24 26  1  0
 26 27  1  0
 26 28  2  0
 28 29  1  0
 29 30  1  0
 30 31  1  0
 30 32  1  0
 30 33  1  0
  7 34  2  0
 34 35  1  0
 34 36  1  0
 36 37  1  0
 37 38  1  0
 37 39  1  0
 36 40  2  0
 40 41  1  0
 41 42  3  0
  4 43  2  0
 43 44  1  0
 44 45  1  0
 44 46  1  0
 44 47  1  0
 43 48  1  0
 48 49  1  0
 48 50  2  0
 50 51  1  0
 50  2  1  0
 40  5  1  0
 28 15  1  0
M  END
>  <score>  (455) 
7.92172

$$$$

     RDKit          3D

 49 51  0  0  0  0  0  0  0  0999 V2000
   23.8326   14.4937   29.2568 H   0  0  0  0  0  0  0  0  0  0  0  0
   23.3422   13.6601   29.7474 C   0  0  0  0  0  0  0  0  0  0  0  0
   24.0985   12.5825   30.1975 C   0  0  0  0  0  0  0  0  0  0  0  0
   25.8267   12.5845   29.9916 Cl  0  0  0  0  0  0  0  0  0  0  0  0
   23.4601   11.4960   30.8008 C   0  0  0  0  0  0  0  0  0  0  0  0
   24.0760   10.6671   31.1295 H   0  0  0  0  0  0  0  0  0  0  0  0
   22.0591   11.4742   30.9847 C   0  0  0  0  0  0  0  0  0  0  0  0
   21.3538   10.3012   31.5918 C   0  0  0  0  0  0  0  0  0  0  0  0
   21.8386    9.0669   31.3824 N   0  0  0  0  0  0  0  0  0  0  0  0
   21.1573    8.0296   31.8394 C   0  0  0  0  0  0  0  0  0  0  0  0
   21.6784    6.8574   31.4342 N   0  0  0  0  0  0  0  0  0  0  0  0
   22.4860    6.9595   30.8404 H   0  0  0  0  0  0  0  0  0  0  0  0
   20.9219    5.7305   31.2586 C   0  0  0  0  0  0  0  0  0  0  0  0
   19.7639    5.6920   31.6363 O   0  0  0  0  0  0  0  0  0  0  0  0
   21.5082    4.5687   30.4733 C   0  0  0  0  0  0  0  0  0  0  0  0
   20.8756    3.6882   30.6171 H   0  0  0  0  0  0  0  0  0  0  0  0
   21.5035    4.8205   29.4118 H   0  0  0  0  0  0  0  0  0  0  0  0
   22.9205    4.2853   30.9353 C   0  0  0  0  0  0  0  0  0  0  0  0
   23.1465    3.1484   31.7166 C   0  0  0  0  0  0  0  0  0  0  0  0
   22.3260    2.4734   31.9324 H   0  0  0  0  0  0  0  0  0  0  0  0
   24.4116    2.8589   32.2510 C   0  0  0  0  0  0  0  0  0  0  0  0
   24.6269    1.7555   33.0472 O   0  0  0  0  0  0  0  0  0  0  0  0
   23.5716    0.7796   33.0806 C   0  0  0  0  0  0  0  0  0  0  0  0
   22.6560    1.2048   33.5066 H   0  0  0  0  0  0  0  0  0  0  0  0
   23.8738   -0.0767   33.6923 H   0  0  0  0  0  0  0  0  0  0  0  0
   23.3529    0.4238   32.0683 H   0  0  0  0  0  0  0  0  0  0  0  0
   25.4742    3.7392   31.9767 C   0  0  0  0  0  0  0  0  0  0  0  0
   27.2339    3.4218   32.6746 Br  0  0  0  0  0  0  0  0  0  0  0  0
   25.2577    4.8732   31.1828 C   0  0  0  0  0  0  0  0  0  0  0  0
   26.0847    5.5468   30.9801 H   0  0  0  0  0  0  0  0  0  0  0  0
   23.9887    5.1643   30.6538 C   0  0  0  0  0  0  0  0  0  0  0  0
   23.7551    6.2895   29.8923 O   0  0  0  0  0  0  0  0  0  0  0  0
   24.8891    7.1255   29.6095 C   0  0  0  0  0  0  0  0  0  0  0  0
   25.6681    6.5593   29.0868 H   0  0  0  0  0  0  0  0  0  0  0  0
   24.5840    7.9653   28.9753 H   0  0  0  0  0  0  0  0  0  0  0  0
   25.3105    7.5235   30.5386 H   0  0  0  0  0  0  0  0  0  0  0  0
   19.9961    8.1317   32.5543 C   0  0  0  0  0  0  0  0  0  0  0  0
   19.4751    7.2574   32.9028 H   0  0  0  0  0  0  0  0  0  0  0  0
   19.5151    9.3773   32.7916 C   0  0  0  0  0  0  0  0  0  0  0  0
   18.3728    9.5217   33.5024 N   0  0  0  0  0  0  0  0  0  0  0  0
   18.1349   10.4735   33.7684 H   0  0  0  0  0  0  0  0  0  0  0  0
   18.1395    8.7633   34.1383 H   0  0  0  0  0  0  0  0  0  0  0  0
   20.1780   10.4834   32.3252 C   0  0  0  0  0  0  0  0  0  0  0  0
   19.7196   11.7973   32.6398 C   0  0  0  0  0  0  0  0  0  0  0  0
   19.4037   12.8789   32.9214 N   0  0  0  0  0  0  0  0  0  0  0  0
   21.3232   12.6006   30.5471 C   0  0  0  0  0  0  0  0  0  0  0  0
   20.2413   12.6675   30.6482 H   0  0  0  0  0  0  0  0  0  0  0  0
   21.9606   13.6751   29.9228 C   0  0  0  0  0  0  0  0  0  0  0  0
   21.0387   15.0288   29.3317 Cl  0  0  0  0  0  0  0  0  0  0  0  0
  1  2  1  0
  2  3  2  0
  3  4  1  0
  3  5  1  0
  5  6  1  0
  5  7  2  0
  7  8  1  0
  8  9  2  0
  9 10  1  0
 10 11  1  0
 11 12  1  0
 11 13  1  0
 13 14  2  0
 13 15  1  0
 15 16  1  0
 15 17  1  0
 15 18  1  0
 18 19  2  0
 19 20  1  0
 19 21  1  0
 21 22  1  0
 22 23  1  0
 23 24  1  0
 23 25  1  0
 23 26  1  0
 21 27  2  0
 27 28  1  0
 27 29  1  0
 29 30  1  0
 29 31  2  0
 31 32  1  0
 32 33  1  0
 33 34  1  0
 33 35  1  0
 33 36  1  0
 10 37  2  0
 37 38  1  0
 37 39  1  0
 39 40  1  0
 40 41  1  0
 40 42  1  0
 39 43  2  0
 43 44  1  0
 44 45  3  0
  7 46  1  0
 46 47  1  0
 46 48  2  0
 48 49  1  0
 48  2  1  0
 43  8  1  0
 31 18  1  0
M  END
>  <score>  (456) 
7.92343

$$$$

     RDKit          3D

 60 63  0  0  0  0  0  0  0  0999 V2000
   26.1216    5.4970   30.8880 H   0  0  0  0  0  0  0  0  0  0  0  0
   25.2943    4.8313   31.1067 C   0  0  0  0  0  0  0  0  0  0  0  0
   25.4996    3.7280   31.9414 C   0  0  0  0  0  0  0  0  0  0  0  0
   27.2496    3.4342   32.6656 Br  0  0  0  0  0  0  0  0  0  0  0  0
   24.4324    2.8670   32.2438 C   0  0  0  0  0  0  0  0  0  0  0  0
   24.6528    1.7957   33.0770 O   0  0  0  0  0  0  0  0  0  0  0  0
   23.6327    0.7873   33.0929 C   0  0  0  0  0  0  0  0  0  0  0  0
   23.9607   -0.0617   33.6994 H   0  0  0  0  0  0  0  0  0  0  0  0
   22.7050    1.1817   33.5188 H   0  0  0  0  0  0  0  0  0  0  0  0
   23.4309    0.4294   32.0780 H   0  0  0  0  0  0  0  0  0  0  0  0
   23.1703    3.1424   31.6977 C   0  0  0  0  0  0  0  0  0  0  0  0
   22.3369    2.4927   31.9471 H   0  0  0  0  0  0  0  0  0  0  0  0
   22.9676    4.2385   30.8535 C   0  0  0  0  0  0  0  0  0  0  0  0
   21.5755    4.4855   30.3309 C   0  0  0  0  0  0  0  0  0  0  0  0
   20.9589    3.5901   30.4438 H   0  0  0  0  0  0  0  0  0  0  0  0
   21.6039    4.7428   29.2710 H   0  0  0  0  0  0  0  0  0  0  0  0
   20.9389    5.6347   31.0917 C   0  0  0  0  0  0  0  0  0  0  0  0
   19.8736    5.4997   31.6636 O   0  0  0  0  0  0  0  0  0  0  0  0
   21.5359    6.8578   31.0755 N   0  0  0  0  0  0  0  0  0  0  0  0
   22.3851    6.9864   30.5519 H   0  0  0  0  0  0  0  0  0  0  0  0
   21.0031    7.9901   31.5567 C   0  0  0  0  0  0  0  0  0  0  0  0
   21.7721    8.9957   31.2649 N   0  0  0  0  0  0  0  0  0  0  0  0
   21.4204   10.1923   31.7053 C   0  0  0  0  0  0  0  0  0  0  0  0
   22.2876   11.2019   31.3194 N   0  0  0  0  0  0  0  0  0  0  0  0
   22.1377   12.6005   31.7217 C   0  0  0  0  0  0  0  0  0  0  0  0
   21.2046   13.0375   31.3487 H   0  0  0  0  0  0  0  0  0  0  0  0
   22.1588   12.7033   32.8113 H   0  0  0  0  0  0  0  0  0  0  0  0
   23.3516   13.2815   31.0888 C   0  0  0  0  0  0  0  0  0  0  0  0
   23.7366   14.0787   31.7293 H   0  0  0  0  0  0  0  0  0  0  0  0
   23.0483   13.7190   30.1323 H   0  0  0  0  0  0  0  0  0  0  0  0
   24.4039   12.1835   30.8527 C   0  0  2  0  0  0  0  0  0  0  0  0
   25.0489   12.0759   31.7301 H   0  0  0  0  0  0  0  0  0  0  0  0
   25.2477   12.3757   29.5782 C   0  0  0  0  0  0  0  0  0  0  0  0
   25.0906   13.3708   29.1452 H   0  0  0  0  0  0  0  0  0  0  0  0
   26.3172   12.2721   29.7898 H   0  0  0  0  0  0  0  0  0  0  0  0
   24.8003   11.3008   28.6733 N   0  0  0  0  0  0  0  0  0  0  0  0
   25.0668   11.4150   27.2329 C   0  0  0  0  0  0  0  0  0  0  0  0
   24.7116   12.3770   26.8498 H   0  0  0  0  0  0  0  0  0  0  0  0
   26.1408   11.3341   27.0602 H   0  0  0  0  0  0  0  0  0  0  0  0
   24.5749   10.6094   26.6780 H   0  0  0  0  0  0  0  0  0  0  0  0
   23.4901   10.7955   29.1214 C   0  0  0  0  0  0  0  0  0  0  0  0
   22.6648   11.4069   28.7372 H   0  0  0  0  0  0  0  0  0  0  0  0
   23.3282    9.7547   28.8245 H   0  0  0  0  0  0  0  0  0  0  0  0
   23.5744   10.9270   30.6401 C   0  0  2  0  0  0  0  0  0  0  0  0
   24.0927   10.0556   31.0550 H   0  0  0  0  0  0  0  0  0  0  0  0
   20.2876   10.4137   32.4633 C   0  0  0  0  0  0  0  0  0  0  0  0
   19.9578   11.7158   32.9365 C   0  0  0  0  0  0  0  0  0  0  0  0
   19.7111   12.7890   33.3092 N   0  0  0  0  0  0  0  0  0  0  0  0
   19.4943    9.3311   32.7093 C   0  0  0  0  0  0  0  0  0  0  0  0
   18.3815    9.4030   33.4637 N   0  0  0  0  0  0  0  0  0  0  0  0
   17.8666    8.5313   33.5384 H   0  0  0  0  0  0  0  0  0  0  0  0
   18.4790    9.9592   34.3078 H   0  0  0  0  0  0  0  0  0  0  0  0
   19.8349    8.1018   32.2485 C   0  0  0  0  0  0  0  0  0  0  0  0
   19.2166    7.2517   32.4552 H   0  0  0  0  0  0  0  0  0  0  0  0
   24.0340    5.1111   30.5575 C   0  0  0  0  0  0  0  0  0  0  0  0
   23.8068    6.2230   29.7741 O   0  0  0  0  0  0  0  0  0  0  0  0
   24.9246    7.1087   29.6047 C   0  0  0  0  0  0  0  0  0  0  0  0
   25.7547    6.5850   29.1197 H   0  0  0  0  0  0  0  0  0  0  0  0
   24.6391    7.9605   28.9818 H   0  0  0  0  0  0  0  0  0  0  0  0
   25.2680    7.4882   30.5732 H   0  0  0  0  0  0  0  0  0  0  0  0
  1  2  1  0
  2  3  2  0
  3  4  1  0
  3  5  1  0
  5  6  1  0
  6  7  1  0
  7  8  1  0
  7  9  1  0
  7 10  1  0
  5 11  2  0
 11 12  1  0
 11 13  1  0
 13 14  1  0
 14 15  1  0
 14 16  1  0
 14 17  1  0
 17 18  2  0
 17 19  1  0
 19 20  1  0
 19 21  1  0
 21 22  2  0
 22 23  1  0
 23 24  1  0
 24 25  1  0
 25 26  1  0
 25 27  1  0
 25 28  1  0
 28 29  1  0
 28 30  1  0
 28 31  1  0
 31 32  1  1
 31 33  1  0
 33 34  1  0
 33 35  1  0
 33 36  1  0
 36 37  1  0
 37 38  1  0
 37 39  1  0
 37 40  1  0
 36 41  1  0
 41 42  1  0
 41 43  1  0
 41 44  1  0
 44 45  1  1
 23 46  2  0
 46 47  1  0
 47 48  3  0
 46 49  1  0
 49 50  1  0
 50 51  1  0
 50 52  1  0
 49 53  2  0
 53 54  1  0
 13 55  2  0
 55 56  1  0
 56 57  1  0
 57 58  1  0
 57 59  1  0
 57 60  1  0
 55  2  1  0
 53 21  1  0
 44 24  1  0
 44 31  1  0
M  END
>  <score>  (457) 
7.97323

$$$$

     RDKit          3D

 59 61  0  0  0  0  0  0  0  0999 V2000
   26.1191    5.4797   30.8914 H   0  0  0  0  0  0  0  0  0  0  0  0
   25.2908    4.8182   31.1205 C   0  0  0  0  0  0  0  0  0  0  0  0
   25.5069    3.7185   31.9539 C   0  0  0  0  0  0  0  0  0  0  0  0
   27.2652    3.4335   32.6641 Br  0  0  0  0  0  0  0  0  0  0  0  0
   24.4449    2.8522   32.2558 C   0  0  0  0  0  0  0  0  0  0  0  0
   24.6782    1.7740   33.0753 O   0  0  0  0  0  0  0  0  0  0  0  0
   23.6509    0.7742   33.1005 C   0  0  0  0  0  0  0  0  0  0  0  0
   23.4412    0.4158   32.0877 H   0  0  0  0  0  0  0  0  0  0  0  0
   22.7299    1.1816   33.5274 H   0  0  0  0  0  0  0  0  0  0  0  0
   23.9704   -0.0764   33.7086 H   0  0  0  0  0  0  0  0  0  0  0  0
   23.1770    3.1200   31.7135 C   0  0  0  0  0  0  0  0  0  0  0  0
   22.3540    2.4567   31.9608 H   0  0  0  0  0  0  0  0  0  0  0  0
   22.9592    4.2135   30.8684 C   0  0  0  0  0  0  0  0  0  0  0  0
   21.5630    4.4410   30.3217 C   0  0  0  0  0  0  0  0  0  0  0  0
   20.9547    3.5368   30.4141 H   0  0  0  0  0  0  0  0  0  0  0  0
   21.6177    4.6963   29.2614 H   0  0  0  0  0  0  0  0  0  0  0  0
   20.8863    5.5825   31.0701 C   0  0  0  0  0  0  0  0  0  0  0  0
   19.7445    5.4800   31.4916 O   0  0  0  0  0  0  0  0  0  0  0  0
   21.5760    6.7477   31.2233 N   0  0  0  0  0  0  0  0  0  0  0  0
   22.4450    6.8589   30.7204 H   0  0  0  0  0  0  0  0  0  0  0  0
   21.0679    7.8901   31.7284 C   0  0  0  0  0  0  0  0  0  0  0  0
   21.7523    8.9330   31.3028 N   0  0  0  0  0  0  0  0  0  0  0  0
   21.4023   10.1961   31.6517 C   0  0  0  0  0  0  0  0  0  0  0  0
   22.2544   11.3649   31.1452 C   0  0  0  0  0  0  0  0  0  0  0  0
   22.1710   12.4906   31.6372 O   0  0  0  0  0  0  0  0  0  0  0  0
   23.1696   11.2217   30.1025 N   0  0  0  0  0  0  0  0  0  0  0  0
   23.1939   10.3336   29.6095 H   0  0  0  0  0  0  0  0  0  0  0  0
   24.1281   12.2345   29.6952 C   0  0  0  0  0  0  0  0  0  0  0  0
   24.7299   12.5377   30.5601 H   0  0  0  0  0  0  0  0  0  0  0  0
   25.0453   11.5874   28.6604 C   0  0  0  0  0  0  0  0  0  0  0  0
   25.4604   10.6546   29.0549 H   0  0  0  0  0  0  0  0  0  0  0  0
   24.4466   11.3416   27.7775 H   0  0  0  0  0  0  0  0  0  0  0  0
   26.1847   12.5310   28.2505 C   0  0  0  0  0  0  0  0  0  0  0  0
   27.0572   12.3530   28.8865 H   0  0  0  0  0  0  0  0  0  0  0  0
   26.4740   12.2964   27.2218 H   0  0  0  0  0  0  0  0  0  0  0  0
   25.7860   14.0111   28.3538 C   0  0  0  0  0  0  0  0  0  0  0  0
   26.0012   14.3730   29.3632 H   0  0  0  0  0  0  0  0  0  0  0  0
   26.3838   14.6011   27.6536 H   0  0  0  0  0  0  0  0  0  0  0  0
   24.2926   14.2020   28.0683 C   0  0  0  0  0  0  0  0  0  0  0  0
   24.0431   15.2672   28.0593 H   0  0  0  0  0  0  0  0  0  0  0  0
   24.0719   13.7999   27.0747 H   0  0  0  0  0  0  0  0  0  0  0  0
   23.4234   13.4704   29.1092 C   0  0  0  0  0  0  0  0  0  0  0  0
   23.1777   14.1518   29.9301 H   0  0  0  0  0  0  0  0  0  0  0  0
   22.4816   13.1750   28.6342 H   0  0  0  0  0  0  0  0  0  0  0  0
   20.2818   10.3608   32.4910 C   0  0  0  0  0  0  0  0  0  0  0  0
   19.8582   11.6473   32.9478 C   0  0  0  0  0  0  0  0  0  0  0  0
   19.5187   12.6759   33.3673 N   0  0  0  0  0  0  0  0  0  0  0  0
   19.6042    9.2388   32.9330 C   0  0  0  0  0  0  0  0  0  0  0  0
   18.4990    9.3256   33.7159 N   0  0  0  0  0  0  0  0  0  0  0  0
   18.1053    8.4442   34.0250 H   0  0  0  0  0  0  0  0  0  0  0  0
   17.8662   10.1051   33.5408 H   0  0  0  0  0  0  0  0  0  0  0  0
   20.0007    7.9858   32.5714 C   0  0  0  0  0  0  0  0  0  0  0  0
   19.4831    7.1078   32.9213 H   0  0  0  0  0  0  0  0  0  0  0  0
   24.0247    5.0940   30.5776 C   0  0  0  0  0  0  0  0  0  0  0  0
   23.7986    6.2055   29.7938 O   0  0  0  0  0  0  0  0  0  0  0  0
   24.9235    7.0815   29.6167 C   0  0  0  0  0  0  0  0  0  0  0  0
   25.2834    7.4502   30.5836 H   0  0  0  0  0  0  0  0  0  0  0  0
   24.6375    7.9402   29.0044 H   0  0  0  0  0  0  0  0  0  0  0  0
   25.7442    6.5558   29.1173 H   0  0  0  0  0  0  0  0  0  0  0  0
  1  2  1  0
  2  3  2  0
  3  4  1  0
  3  5  1  0
  5  6  1  0
  6  7  1  0
  7  8  1  0
  7  9  1  0
  7 10  1  0
  5 11  2  0
 11 12  1  0
 11 13  1  0
 13 14  1  0
 14 15  1  0
 14 16  1  0
 14 17  1  0
 17 18  2  0
 17 19  1  0
 19 20  1  0
 19 21  1  0
 21 22  2  0
 22 23  1  0
 23 24  1  0
 24 25  2  0
 24 26  1  0
 26 27  1  0
 26 28  1  0
 28 29  1  0
 28 30  1  0
 30 31  1  0
 30 32  1  0
 30 33  1  0
 33 34  1  0
 33 35  1  0
 33 36  1  0
 36 37  1  0
 36 38  1  0
 36 39  1  0
 39 40  1  0
 39 41  1  0
 39 42  1  0
 42 43  1  0
 42 44  1  0
 23 45  2  0
 45 46  1  0
 46 47  3  0
 45 48  1  0
 48 49  1  0
 49 50  1  0
 49 51  1  0
 48 52  2  0
 52 53  1  0
 13 54  2  0
 54 55  1  0
 55 56  1  0
 56 57  1  0
 56 58  1  0
 56 59  1  0
 54  2  1  0
 52 21  1  0
 42 28  1  0
M  END
>  <score>  (458) 
7.98725

$$$$

     RDKit          3D

 50 52  0  0  0  0  0  0  0  0999 V2000
   25.4412   12.1935   30.5184 H   0  0  0  0  0  0  0  0  0  0  0  0
   24.3591   12.2803   30.6083 C   0  0  0  0  0  0  0  0  0  0  0  0
   23.7434   13.4102   30.2462 N   0  0  0  0  0  0  0  0  0  0  0  0
   22.3952   13.5074   30.3252 C   0  0  0  0  0  0  0  0  0  0  0  0
   21.6704   14.7728   29.7808 C   0  0  0  0  0  0  0  0  0  0  0  0
   21.4535   15.6877   30.7766 F   0  0  0  0  0  0  0  0  0  0  0  0
   20.4688   14.4316   29.2287 F   0  0  0  0  0  0  0  0  0  0  0  0
   22.3966   15.3855   28.7950 F   0  0  0  0  0  0  0  0  0  0  0  0
   21.6756   12.4866   30.8595 N   0  0  0  0  0  0  0  0  0  0  0  0
   22.2444   11.3144   31.2266 C   0  0  0  0  0  0  0  0  0  0  0  0
   21.4031   10.1441   31.7380 C   0  0  0  0  0  0  0  0  0  0  0  0
   21.8031    8.8908   31.4429 N   0  0  0  0  0  0  0  0  0  0  0  0
   21.0882    7.8482   31.8121 C   0  0  0  0  0  0  0  0  0  0  0  0
   21.6223    6.7039   31.3342 N   0  0  0  0  0  0  0  0  0  0  0  0
   22.4784    6.8107   30.8056 H   0  0  0  0  0  0  0  0  0  0  0  0
   20.9016    5.5678   31.1159 C   0  0  0  0  0  0  0  0  0  0  0  0
   19.7306    5.4857   31.4514 O   0  0  0  0  0  0  0  0  0  0  0  0
   21.5753    4.4580   30.3241 C   0  0  0  0  0  0  0  0  0  0  0  0
   20.9762    3.5439   30.3722 H   0  0  0  0  0  0  0  0  0  0  0  0
   21.6403    4.7659   29.2781 H   0  0  0  0  0  0  0  0  0  0  0  0
   22.9674    4.2120   30.8657 C   0  0  0  0  0  0  0  0  0  0  0  0
   23.1807    3.1204   31.7164 C   0  0  0  0  0  0  0  0  0  0  0  0
   22.3554    2.4631   31.9694 H   0  0  0  0  0  0  0  0  0  0  0  0
   24.4478    2.8498   32.2618 C   0  0  0  0  0  0  0  0  0  0  0  0
   24.6781    1.7768   33.0916 O   0  0  0  0  0  0  0  0  0  0  0  0
   23.6611    0.7649   33.1104 C   0  0  0  0  0  0  0  0  0  0  0  0
   23.9937   -0.0828   33.7162 H   0  0  0  0  0  0  0  0  0  0  0  0
   22.7337    1.1570   33.5395 H   0  0  0  0  0  0  0  0  0  0  0  0
   23.4568    0.4058   32.0961 H   0  0  0  0  0  0  0  0  0  0  0  0
   25.5145    3.7083   31.9502 C   0  0  0  0  0  0  0  0  0  0  0  0
   27.2713    3.4061   32.6550 Br  0  0  0  0  0  0  0  0  0  0  0  0
   25.3038    4.8084   31.1132 C   0  0  0  0  0  0  0  0  0  0  0  0
   26.1345    5.4659   30.8761 H   0  0  0  0  0  0  0  0  0  0  0  0
   24.0374    5.0853   30.5718 C   0  0  0  0  0  0  0  0  0  0  0  0
   23.8121    6.1956   29.7864 O   0  0  0  0  0  0  0  0  0  0  0  0
   24.9259    7.0864   29.6101 C   0  0  0  0  0  0  0  0  0  0  0  0
   25.7517    6.5732   29.1066 H   0  0  0  0  0  0  0  0  0  0  0  0
   24.6274    7.9438   29.0001 H   0  0  0  0  0  0  0  0  0  0  0  0
   25.2810    7.4574   30.5778 H   0  0  0  0  0  0  0  0  0  0  0  0
   19.9549    7.9419   32.5659 C   0  0  0  0  0  0  0  0  0  0  0  0
   19.4046    7.0640   32.8555 H   0  0  0  0  0  0  0  0  0  0  0  0
   19.5610    9.1858   32.9473 C   0  0  0  0  0  0  0  0  0  0  0  0
   18.4560    9.2724   33.7331 N   0  0  0  0  0  0  0  0  0  0  0  0
   17.7700    9.9631   33.4424 H   0  0  0  0  0  0  0  0  0  0  0  0
   18.1089    8.3983   34.1296 H   0  0  0  0  0  0  0  0  0  0  0  0
   20.2456   10.3065   32.5142 C   0  0  0  0  0  0  0  0  0  0  0  0
   19.8181   11.6005   32.9307 C   0  0  0  0  0  0  0  0  0  0  0  0
   19.5232   12.6677   33.2799 N   0  0  0  0  0  0  0  0  0  0  0  0
   23.6328   11.2027   31.0850 C   0  0  0  0  0  0  0  0  0  0  0  0
   24.1458   10.2869   31.3576 H   0  0  0  0  0  0  0  0  0  0  0  0
  1  2  1  0
  2  3  2  0
  3  4  1  0
  4  5  1  0
  5  6  1  0
  5  7  1  0
  5  8  1  0
  4  9  2  0
  9 10  1  0
 10 11  1  0
 11 12  2  0
 12 13  1  0
 13 14  1  0
 14 15  1  0
 14 16  1  0
 16 17  2  0
 16 18  1  0
 18 19  1  0
 18 20  1  0
 18 21  1  0
 21 22  2  0
 22 23  1  0
 22 24  1  0
 24 25  1  0
 25 26  1  0
 26 27  1  0
 26 28  1  0
 26 29  1  0
 24 30  2  0
 30 31  1  0
 30 32  1  0
 32 33  1  0
 32 34  2  0
 34 35  1  0
 35 36  1  0
 36 37  1  0
 36 38  1  0
 36 39  1  0
 13 40  2  0
 40 41  1  0
 40 42  1  0
 42 43  1  0
 43 44  1  0
 43 45  1  0
 42 46  2  0
 46 47  1  0
 47 48  3  0
 10 49  2  0
 49 50  1  0
 49  2  1  0
 46 11  1  0
 34 21  1  0
M  END
>  <score>  (459) 
8.08946

$$$$
17124-1
     RDKit          3D

 48 49  0  0  0  0  0  0  0  0999 V2000
   21.4127   10.2773   31.6976 C   0  0  0  0  0  0  0  0  0  0  0  0
   21.7567    9.0266   31.2850 N   0  0  0  0  0  0  0  0  0  0  0  0
   20.9811    7.9971   31.6572 C   0  0  0  0  0  0  0  0  0  0  0  0
   19.8706    8.1421   32.4769 C   0  0  0  0  0  0  0  0  0  0  0  0
   19.5217    9.4143   32.8937 C   0  0  0  0  0  0  0  0  0  0  0  0
   18.3827    9.4958   33.6863 N   0  0  0  0  0  0  0  0  0  0  0  0
   20.2923   10.5202   32.5003 C   0  0  0  0  0  0  0  0  0  0  0  0
   19.9657   11.8905   32.8774 C   0  0  0  0  0  0  0  0  0  0  0  0
   19.7135   12.9814   33.1712 N   0  0  0  0  0  0  0  0  0  0  0  0
   21.4435    6.8153   31.1146 N   0  0  0  0  0  0  0  0  0  0  0  0
   20.8639    5.6146   31.0308 C   0  0  0  0  0  0  0  0  0  0  0  0
   19.7396    5.3500   31.4512 O   0  0  0  0  0  0  0  0  0  0  0  0
   21.6499    4.5466   30.2798 C   0  0  0  0  0  0  0  0  0  0  0  0
   23.0247    4.2587   30.8770 C   0  0  0  0  0  0  0  0  0  0  0  0
   24.1218    5.0797   30.5737 C   0  0  0  0  0  0  0  0  0  0  0  0
   23.8940    6.1755   29.7600 O   0  0  0  0  0  0  0  0  0  0  0  0
   24.9260    7.1419   29.5741 C   0  0  0  0  0  0  0  0  0  0  0  0
   25.3756    4.7488   31.1028 C   0  0  0  0  0  0  0  0  0  0  0  0
   25.5283    3.6468   31.9432 C   0  0  0  0  0  0  0  0  0  0  0  0
   27.2648    3.2511   32.6230 Br  0  0  0  0  0  0  0  0  0  0  0  0
   24.4329    2.8399   32.2701 C   0  0  0  0  0  0  0  0  0  0  0  0
   23.1819    3.1565   31.7231 C   0  0  0  0  0  0  0  0  0  0  0  0
   24.6457    1.7801   33.1306 O   0  0  0  0  0  0  0  0  0  0  0  0
   23.7084    0.7066   33.1601 C   0  0  0  0  0  0  0  0  0  0  0  0
    0.0000    0.0000    0.0000 H   0  0  0  0  0  0  0  0  0  0  0  0
    0.0000    0.0000    0.0000 H   0  0  0  0  0  0  0  0  0  0  0  0
    0.0000    0.0000    0.0000 H   0  0  0  0  0  0  0  0  0  0  0  0
    0.0000    0.0000    0.0000 H   0  0  0  0  0  0  0  0  0  0  0  0
    0.0000    0.0000    0.0000 H   0  0  0  0  0  0  0  0  0  0  0  0
    0.0000    0.0000    0.0000 H   0  0  0  0  0  0  0  0  0  0  0  0
    0.0000    0.0000    0.0000 H   0  0  0  0  0  0  0  0  0  0  0  0
    0.0000    0.0000    0.0000 H   0  0  0  0  0  0  0  0  0  0  0  0
    0.0000    0.0000    0.0000 H   0  0  0  0  0  0  0  0  0  0  0  0
    0.0000    0.0000    0.0000 H   0  0  0  0  0  0  0  0  0  0  0  0
    0.0000    0.0000    0.0000 H   0  0  0  0  0  0  0  0  0  0  0  0
    0.0000    0.0000    0.0000 H   0  0  0  0  0  0  0  0  0  0  0  0
    0.0000    0.0000    0.0000 H   0  0  0  0  0  0  0  0  0  0  0  0
    0.0000    0.0000    0.0000 H   0  0  0  0  0  0  0  0  0  0  0  0
   10.4755    5.0278   15.5070 C   0  0  0  0  0  0  0  0  0  0  0  0
   11.2711    4.2704   14.4715 C   0  0  0  0  0  0  0  0  0  0  0  0
    9.2786    4.1687   15.8736 C   0  0  0  0  0  0  0  0  0  0  0  0
   10.1337    6.0081   15.0798 H   0  0  0  0  0  0  0  0  0  0  0  0
   11.1515    3.1679   14.5842 H   0  0  0  0  0  0  0  0  0  0  0  0
   10.8614    4.5525   13.4758 H   0  0  0  0  0  0  0  0  0  0  0  0
   12.3308    4.5034   14.5495 H   0  0  0  0  0  0  0  0  0  0  0  0
    9.4343    3.8086   16.9194 H   0  0  0  0  0  0  0  0  0  0  0  0
    8.3412    4.7487   15.7578 H   0  0  0  0  0  0  0  0  0  0  0  0
    9.1731    3.2905   15.1896 H   0  0  0  0  0  0  0  0  0  0  0  0
  1  2  2  0
  1  7  1  0
  2  3  1  0
  3  4  2  0
  3 10  1  0
  4  5  1  0
  5  6  1  0
  5  7  2  0
  7  8  1  0
  8  9  3  0
 10 11  1  0
 11 12  2  0
 11 13  1  0
 13 14  1  0
 14 15  2  0
 14 22  1  0
 15 16  1  0
 15 18  1  0
 16 17  1  0
 18 19  2  0
 19 20  1  0
 19 21  1  0
 21 22  2  0
 21 23  1  0
 23 24  1  0
  4 25  1  0
  6 26  1  0
  6 27  1  0
 10 28  1  0
 13 29  1  0
 13 30  1  0
 17 31  1  0
 17 32  1  0
 17 33  1  0
 18 34  1  0
 22 35  1  0
 24 36  1  0
 24 37  1  0
 24 38  1  0
 39 40  1  0
 39 41  1  0
 39 42  1  0
 40 43  1  0
 40 44  1  0
 40 45  1  0
 41 46  1  0
 41 47  1  0
 41 48  1  0
  1 39  1  0
M  END
>  <attachment_point>  (460) 
24

>  <score>  (460) 
<NA>

$$$$
17124-1
     RDKit          3D

 48 50  0  0  0  0  0  0  0  0999 V2000
   21.4127   10.2773   31.6976 C   0  0  0  0  0  0  0  0  0  0  0  0
   21.7567    9.0266   31.2850 N   0  0  0  0  0  0  0  0  0  0  0  0
   20.9811    7.9971   31.6572 C   0  0  0  0  0  0  0  0  0  0  0  0
   19.8706    8.1421   32.4769 C   0  0  0  0  0  0  0  0  0  0  0  0
   19.5217    9.4143   32.8937 C   0  0  0  0  0  0  0  0  0  0  0  0
   18.3827    9.4958   33.6863 N   0  0  0  0  0  0  0  0  0  0  0  0
   20.2923   10.5202   32.5003 C   0  0  0  0  0  0  0  0  0  0  0  0
   19.9657   11.8905   32.8774 C   0  0  0  0  0  0  0  0  0  0  0  0
   19.7135   12.9814   33.1712 N   0  0  0  0  0  0  0  0  0  0  0  0
   21.4435    6.8153   31.1146 N   0  0  0  0  0  0  0  0  0  0  0  0
   20.8639    5.6146   31.0308 C   0  0  0  0  0  0  0  0  0  0  0  0
   19.7396    5.3500   31.4512 O   0  0  0  0  0  0  0  0  0  0  0  0
   21.6499    4.5466   30.2798 C   0  0  0  0  0  0  0  0  0  0  0  0
   23.0247    4.2587   30.8770 C   0  0  0  0  0  0  0  0  0  0  0  0
   24.1218    5.0797   30.5737 C   0  0  0  0  0  0  0  0  0  0  0  0
   23.8940    6.1755   29.7600 O   0  0  0  0  0  0  0  0  0  0  0  0
   24.9260    7.1419   29.5741 C   0  0  0  0  0  0  0  0  0  0  0  0
   25.3756    4.7488   31.1028 C   0  0  0  0  0  0  0  0  0  0  0  0
   25.5283    3.6468   31.9432 C   0  0  0  0  0  0  0  0  0  0  0  0
   27.2648    3.2511   32.6230 Br  0  0  0  0  0  0  0  0  0  0  0  0
   24.4329    2.8399   32.2701 C   0  0  0  0  0  0  0  0  0  0  0  0
   23.1819    3.1565   31.7231 C   0  0  0  0  0  0  0  0  0  0  0  0
   24.6457    1.7801   33.1306 O   0  0  0  0  0  0  0  0  0  0  0  0
   23.7084    0.7066   33.1601 C   0  0  0  0  0  0  0  0  0  0  0  0
    0.0000    0.0000    0.0000 H   0  0  0  0  0  0  0  0  0  0  0  0
    0.0000    0.0000    0.0000 H   0  0  0  0  0  0  0  0  0  0  0  0
    0.0000    0.0000    0.0000 H   0  0  0  0  0  0  0  0  0  0  0  0
    0.0000    0.0000    0.0000 H   0  0  0  0  0  0  0  0  0  0  0  0
    0.0000    0.0000    0.0000 H   0  0  0  0  0  0  0  0  0  0  0  0
    0.0000    0.0000    0.0000 H   0  0  0  0  0  0  0  0  0  0  0  0
    0.0000    0.0000    0.0000 H   0  0  0  0  0  0  0  0  0  0  0  0
    0.0000    0.0000    0.0000 H   0  0  0  0  0  0  0  0  0  0  0  0
    0.0000    0.0000    0.0000 H   0  0  0  0  0  0  0  0  0  0  0  0
    0.0000    0.0000    0.0000 H   0  0  0  0  0  0  0  0  0  0  0  0
    0.0000    0.0000    0.0000 H   0  0  0  0  0  0  0  0  0  0  0  0
    0.0000    0.0000    0.0000 H   0  0  0  0  0  0  0  0  0  0  0  0
    0.0000    0.0000    0.0000 H   0  0  0  0  0  0  0  0  0  0  0  0
    0.0000    0.0000    0.0000 H   0  0  0  0  0  0  0  0  0  0  0  0
   10.4767    5.0284   15.5089 C   0  0  0  0  0  0  0  0  0  0  0  0
    9.5715    5.9185   14.9882 C   0  0  0  0  0  0  0  0  0  0  0  0
    8.8191    5.5795   13.8880 C   0  0  0  0  0  0  0  0  0  0  0  0
    8.9971    4.3693   13.3498 N   0  0  0  0  0  0  0  0  0  0  0  0
    9.8611    3.4516   13.8046 C   0  0  0  0  0  0  0  0  0  0  0  0
   10.6160    3.7943   14.9101 C   0  0  0  0  0  0  0  0  0  0  0  0
    9.4389    6.9087   15.4440 H   0  0  0  0  0  0  0  0  0  0  0  0
    8.1059    6.3057   13.4932 H   0  0  0  0  0  0  0  0  0  0  0  0
    9.9971    2.4788   13.3637 H   0  0  0  0  0  0  0  0  0  0  0  0
   11.3364    3.0707   15.3150 H   0  0  0  0  0  0  0  0  0  0  0  0
  1  2  2  0
  1  7  1  0
  2  3  1  0
  3  4  2  0
  3 10  1  0
  4  5  1  0
  5  6  1  0
  5  7  2  0
  7  8  1  0
  8  9  3  0
 10 11  1  0
 11 12  2  0
 11 13  1  0
 13 14  1  0
 14 15  2  0
 14 22  1  0
 15 16  1  0
 15 18  1  0
 16 17  1  0
 18 19  2  0
 19 20  1  0
 19 21  1  0
 21 22  2  0
 21 23  1  0
 23 24  1  0
  4 25  1  0
  6 26  1  0
  6 27  1  0
 10 28  1  0
 13 29  1  0
 13 30  1  0
 17 31  1  0
 17 32  1  0
 17 33  1  0
 18 34  1  0
 22 35  1  0
 24 36  1  0
 24 37  1  0
 24 38  1  0
 39 40  2  0
 40 41  1  0
 41 42  2  0
 42 43  1  0
 43 44  2  0
 44 39  1  0
 40 45  1  0
 41 46  1  0
 43 47  1  0
 44 48  1  0
  1 39  1  0
M  END
>  <attachment_point>  (461) 
24

>  <score>  (461) 
<NA>

$$$$
17124-1
     RDKit          3D

 52 54  0  0  0  0  0  0  0  0999 V2000
   21.4127   10.2773   31.6976 C   0  0  0  0  0  0  0  0  0  0  0  0
   21.7567    9.0266   31.2850 N   0  0  0  0  0  0  0  0  0  0  0  0
   20.9811    7.9971   31.6572 C   0  0  0  0  0  0  0  0  0  0  0  0
   19.8706    8.1421   32.4769 C   0  0  0  0  0  0  0  0  0  0  0  0
   19.5217    9.4143   32.8937 C   0  0  0  0  0  0  0  0  0  0  0  0
   18.3827    9.4958   33.6863 N   0  0  0  0  0  0  0  0  0  0  0  0
   20.2923   10.5202   32.5003 C   0  0  0  0  0  0  0  0  0  0  0  0
   19.9657   11.8905   32.8774 C   0  0  0  0  0  0  0  0  0  0  0  0
   19.7135   12.9814   33.1712 N   0  0  0  0  0  0  0  0  0  0  0  0
   21.4435    6.8153   31.1146 N   0  0  0  0  0  0  0  0  0  0  0  0
   20.8639    5.6146   31.0308 C   0  0  0  0  0  0  0  0  0  0  0  0
   19.7396    5.3500   31.4512 O   0  0  0  0  0  0  0  0  0  0  0  0
   21.6499    4.5466   30.2798 C   0  0  0  0  0  0  0  0  0  0  0  0
   23.0247    4.2587   30.8770 C   0  0  0  0  0  0  0  0  0  0  0  0
   24.1218    5.0797   30.5737 C   0  0  0  0  0  0  0  0  0  0  0  0
   23.8940    6.1755   29.7600 O   0  0  0  0  0  0  0  0  0  0  0  0
   24.9260    7.1419   29.5741 C   0  0  0  0  0  0  0  0  0  0  0  0
   25.3756    4.7488   31.1028 C   0  0  0  0  0  0  0  0  0  0  0  0
   25.5283    3.6468   31.9432 C   0  0  0  0  0  0  0  0  0  0  0  0
   27.2648    3.2511   32.6230 Br  0  0  0  0  0  0  0  0  0  0  0  0
   24.4329    2.8399   32.2701 C   0  0  0  0  0  0  0  0  0  0  0  0
   23.1819    3.1565   31.7231 C   0  0  0  0  0  0  0  0  0  0  0  0
   24.6457    1.7801   33.1306 O   0  0  0  0  0  0  0  0  0  0  0  0
   23.7084    0.7066   33.1601 C   0  0  0  0  0  0  0  0  0  0  0  0
    0.0000    0.0000    0.0000 H   0  0  0  0  0  0  0  0  0  0  0  0
    0.0000    0.0000    0.0000 H   0  0  0  0  0  0  0  0  0  0  0  0
    0.0000    0.0000    0.0000 H   0  0  0  0  0  0  0  0  0  0  0  0
    0.0000    0.0000    0.0000 H   0  0  0  0  0  0  0  0  0  0  0  0
    0.0000    0.0000    0.0000 H   0  0  0  0  0  0  0  0  0  0  0  0
    0.0000    0.0000    0.0000 H   0  0  0  0  0  0  0  0  0  0  0  0
    0.0000    0.0000    0.0000 H   0  0  0  0  0  0  0  0  0  0  0  0
    0.0000    0.0000    0.0000 H   0  0  0  0  0  0  0  0  0  0  0  0
    0.0000    0.0000    0.0000 H   0  0  0  0  0  0  0  0  0  0  0  0
    0.0000    0.0000    0.0000 H   0  0  0  0  0  0  0  0  0  0  0  0
    0.0000    0.0000    0.0000 H   0  0  0  0  0  0  0  0  0  0  0  0
    0.0000    0.0000    0.0000 H   0  0  0  0  0  0  0  0  0  0  0  0
    0.0000    0.0000    0.0000 H   0  0  0  0  0  0  0  0  0  0  0  0
    0.0000    0.0000    0.0000 H   0  0  0  0  0  0  0  0  0  0  0  0
   10.5441    5.0608   15.6086 N   0  0  0  0  0  0  0  0  0  0  0  0
    9.9148    5.9906   14.6578 C   0  0  0  0  0  0  0  0  0  0  0  0
    8.4453    6.0185   15.0149 C   0  0  0  0  0  0  0  0  0  0  0  0
    8.2045    5.4563   16.2776 O   0  0  0  0  0  0  0  0  0  0  0  0
    8.4435    4.0733   16.1503 C   0  0  0  0  0  0  0  0  0  0  0  0
    9.7692    3.8182   15.4545 C   0  0  0  0  0  0  0  0  0  0  0  0
   10.3888    6.9770   14.6686 H   0  0  0  0  0  0  0  0  0  0  0  0
   10.0754    5.4963   13.6547 H   0  0  0  0  0  0  0  0  0  0  0  0
    8.0578    7.0553   15.0038 H   0  0  0  0  0  0  0  0  0  0  0  0
    7.8897    5.3720   14.2924 H   0  0  0  0  0  0  0  0  0  0  0  0
    7.6169    3.6434   15.5281 H   0  0  0  0  0  0  0  0  0  0  0  0
    8.4247    3.5942   17.1625 H   0  0  0  0  0  0  0  0  0  0  0  0
    9.6101    3.7017   14.3583 H   0  0  0  0  0  0  0  0  0  0  0  0
   10.3330    2.9889   15.8824 H   0  0  0  0  0  0  0  0  0  0  0  0
  1  2  2  0
  1  7  1  0
  2  3  1  0
  3  4  2  0
  3 10  1  0
  4  5  1  0
  5  6  1  0
  5  7  2  0
  7  8  1  0
  8  9  3  0
 10 11  1  0
 11 12  2  0
 11 13  1  0
 13 14  1  0
 14 15  2  0
 14 22  1  0
 15 16  1  0
 15 18  1  0
 16 17  1  0
 18 19  2  0
 19 20  1  0
 19 21  1  0
 21 22  2  0
 21 23  1  0
 23 24  1  0
  4 25  1  0
  6 26  1  0
  6 27  1  0
 10 28  1  0
 13 29  1  0
 13 30  1  0
 17 31  1  0
 17 32  1  0
 17 33  1  0
 18 34  1  0
 22 35  1  0
 24 36  1  0
 24 37  1  0
 24 38  1  0
 39 40  1  0
 40 41  1  0
 41 42  1  0
 42 43  1  0
 43 44  1  0
 44 39  1  0
 40 45  1  0
 40 46  1  0
 41 47  1  0
 41 48  1  0
 43 49  1  0
 43 50  1  0
 44 51  1  0
 44 52  1  0
  1 39  1  0
M  END
>  <attachment_point>  (462) 
24

>  <score>  (462) 
<NA>

$$$$
17124-1
     RDKit          3D

 51 52  0  0  0  0  0  0  0  0999 V2000
   21.4127   10.2773   31.6976 C   0  0  0  0  0  0  0  0  0  0  0  0
   21.7567    9.0266   31.2850 N   0  0  0  0  0  0  0  0  0  0  0  0
   20.9811    7.9971   31.6572 C   0  0  0  0  0  0  0  0  0  0  0  0
   19.8706    8.1421   32.4769 C   0  0  0  0  0  0  0  0  0  0  0  0
   19.5217    9.4143   32.8937 C   0  0  0  0  0  0  0  0  0  0  0  0
   18.3827    9.4958   33.6863 N   0  0  0  0  0  0  0  0  0  0  0  0
   20.2923   10.5202   32.5003 C   0  0  0  0  0  0  0  0  0  0  0  0
   19.9657   11.8905   32.8774 C   0  0  0  0  0  0  0  0  0  0  0  0
   19.7135   12.9814   33.1712 N   0  0  0  0  0  0  0  0  0  0  0  0
   21.4435    6.8153   31.1146 N   0  0  0  0  0  0  0  0  0  0  0  0
   20.8639    5.6146   31.0308 C   0  0  0  0  0  0  0  0  0  0  0  0
   19.7396    5.3500   31.4512 O   0  0  0  0  0  0  0  0  0  0  0  0
   21.6499    4.5466   30.2798 C   0  0  0  0  0  0  0  0  0  0  0  0
   23.0247    4.2587   30.8770 C   0  0  0  0  0  0  0  0  0  0  0  0
   24.1218    5.0797   30.5737 C   0  0  0  0  0  0  0  0  0  0  0  0
   23.8940    6.1755   29.7600 O   0  0  0  0  0  0  0  0  0  0  0  0
   24.9260    7.1419   29.5741 C   0  0  0  0  0  0  0  0  0  0  0  0
   25.3756    4.7488   31.1028 C   0  0  0  0  0  0  0  0  0  0  0  0
   25.5283    3.6468   31.9432 C   0  0  0  0  0  0  0  0  0  0  0  0
   27.2648    3.2511   32.6230 Br  0  0  0  0  0  0  0  0  0  0  0  0
   24.4329    2.8399   32.2701 C   0  0  0  0  0  0  0  0  0  0  0  0
   23.1819    3.1565   31.7231 C   0  0  0  0  0  0  0  0  0  0  0  0
   24.6457    1.7801   33.1306 O   0  0  0  0  0  0  0  0  0  0  0  0
   23.7084    0.7066   33.1601 C   0  0  0  0  0  0  0  0  0  0  0  0
    0.0000    0.0000    0.0000 H   0  0  0  0  0  0  0  0  0  0  0  0
    0.0000    0.0000    0.0000 H   0  0  0  0  0  0  0  0  0  0  0  0
    0.0000    0.0000    0.0000 H   0  0  0  0  0  0  0  0  0  0  0  0
    0.0000    0.0000    0.0000 H   0  0  0  0  0  0  0  0  0  0  0  0
    0.0000    0.0000    0.0000 H   0  0  0  0  0  0  0  0  0  0  0  0
    0.0000    0.0000    0.0000 H   0  0  0  0  0  0  0  0  0  0  0  0
    0.0000    0.0000    0.0000 H   0  0  0  0  0  0  0  0  0  0  0  0
    0.0000    0.0000    0.0000 H   0  0  0  0  0  0  0  0  0  0  0  0
    0.0000    0.0000    0.0000 H   0  0  0  0  0  0  0  0  0  0  0  0
    0.0000    0.0000    0.0000 H   0  0  0  0  0  0  0  0  0  0  0  0
    0.0000    0.0000    0.0000 H   0  0  0  0  0  0  0  0  0  0  0  0
    0.0000    0.0000    0.0000 H   0  0  0  0  0  0  0  0  0  0  0  0
    0.0000    0.0000    0.0000 H   0  0  0  0  0  0  0  0  0  0  0  0
    0.0000    0.0000    0.0000 H   0  0  0  0  0  0  0  0  0  0  0  0
   10.4552    5.0181   15.4770 C   0  0  0  0  0  0  0  0  0  0  0  0
    9.4734    4.0365   16.0391 C   0  0  0  0  0  0  0  0  0  0  0  0
   11.4693    4.4046   14.5656 C   0  0  0  0  0  0  0  0  0  0  0  0
    9.8412    6.2725   14.9677 C   0  0  0  0  0  0  0  0  0  0  0  0
    9.0410    3.3852   15.2632 H   0  0  0  0  0  0  0  0  0  0  0  0
    8.7008    4.6276   16.5925 H   0  0  0  0  0  0  0  0  0  0  0  0
    9.9387    3.3795   16.8235 H   0  0  0  0  0  0  0  0  0  0  0  0
   11.8822    3.5077   15.0771 H   0  0  0  0  0  0  0  0  0  0  0  0
   12.3299    5.1104   14.4546 H   0  0  0  0  0  0  0  0  0  0  0  0
   11.0021    4.1729   13.5923 H   0  0  0  0  0  0  0  0  0  0  0  0
   10.4932    6.7777   14.2306 H   0  0  0  0  0  0  0  0  0  0  0  0
    9.5723    6.9991   15.7788 H   0  0  0  0  0  0  0  0  0  0  0  0
    8.8797    6.0262   14.4639 H   0  0  0  0  0  0  0  0  0  0  0  0
  1  2  2  0
  1  7  1  0
  2  3  1  0
  3  4  2  0
  3 10  1  0
  4  5  1  0
  5  6  1  0
  5  7  2  0
  7  8  1  0
  8  9  3  0
 10 11  1  0
 11 12  2  0
 11 13  1  0
 13 14  1  0
 14 15  2  0
 14 22  1  0
 15 16  1  0
 15 18  1  0
 16 17  1  0
 18 19  2  0
 19 20  1  0
 19 21  1  0
 21 22  2  0
 21 23  1  0
 23 24  1  0
  4 25  1  0
  6 26  1  0
  6 27  1  0
 10 28  1  0
 13 29  1  0
 13 30  1  0
 17 31  1  0
 17 32  1  0
 17 33  1  0
 18 34  1  0
 22 35  1  0
 24 36  1  0
 24 37  1  0
 24 38  1  0
 39 40  1  0
 39 41  1  0
 39 42  1  0
 40 43  1  0
 40 44  1  0
 40 45  1  0
 41 46  1  0
 41 47  1  0
 41 48  1  0
 42 49  1  0
 42 50  1  0
 42 51  1  0
  1 39  1  0
M  END
>  <attachment_point>  (463) 
24

>  <score>  (463) 
<NA>

$$$$
17124-1
     RDKit          3D

 49 51  0  0  0  0  0  0  0  0999 V2000
   21.4127   10.2773   31.6976 C   0  0  0  0  0  0  0  0  0  0  0  0
   21.7567    9.0266   31.2850 N   0  0  0  0  0  0  0  0  0  0  0  0
   20.9811    7.9971   31.6572 C   0  0  0  0  0  0  0  0  0  0  0  0
   19.8706    8.1421   32.4769 C   0  0  0  0  0  0  0  0  0  0  0  0
   19.5217    9.4143   32.8937 C   0  0  0  0  0  0  0  0  0  0  0  0
   18.3827    9.4958   33.6863 N   0  0  0  0  0  0  0  0  0  0  0  0
   20.2923   10.5202   32.5003 C   0  0  0  0  0  0  0  0  0  0  0  0
   19.9657   11.8905   32.8774 C   0  0  0  0  0  0  0  0  0  0  0  0
   19.7135   12.9814   33.1712 N   0  0  0  0  0  0  0  0  0  0  0  0
   21.4435    6.8153   31.1146 N   0  0  0  0  0  0  0  0  0  0  0  0
   20.8639    5.6146   31.0308 C   0  0  0  0  0  0  0  0  0  0  0  0
   19.7396    5.3500   31.4512 O   0  0  0  0  0  0  0  0  0  0  0  0
   21.6499    4.5466   30.2798 C   0  0  0  0  0  0  0  0  0  0  0  0
   23.0247    4.2587   30.8770 C   0  0  0  0  0  0  0  0  0  0  0  0
   24.1218    5.0797   30.5737 C   0  0  0  0  0  0  0  0  0  0  0  0
   23.8940    6.1755   29.7600 O   0  0  0  0  0  0  0  0  0  0  0  0
   24.9260    7.1419   29.5741 C   0  0  0  0  0  0  0  0  0  0  0  0
   25.3756    4.7488   31.1028 C   0  0  0  0  0  0  0  0  0  0  0  0
   25.5283    3.6468   31.9432 C   0  0  0  0  0  0  0  0  0  0  0  0
   27.2648    3.2511   32.6230 Br  0  0  0  0  0  0  0  0  0  0  0  0
   24.4329    2.8399   32.2701 C   0  0  0  0  0  0  0  0  0  0  0  0
   23.1819    3.1565   31.7231 C   0  0  0  0  0  0  0  0  0  0  0  0
   24.6457    1.7801   33.1306 O   0  0  0  0  0  0  0  0  0  0  0  0
   23.7084    0.7066   33.1601 C   0  0  0  0  0  0  0  0  0  0  0  0
    0.0000    0.0000    0.0000 H   0  0  0  0  0  0  0  0  0  0  0  0
    0.0000    0.0000    0.0000 H   0  0  0  0  0  0  0  0  0  0  0  0
    0.0000    0.0000    0.0000 H   0  0  0  0  0  0  0  0  0  0  0  0
    0.0000    0.0000    0.0000 H   0  0  0  0  0  0  0  0  0  0  0  0
    0.0000    0.0000    0.0000 H   0  0  0  0  0  0  0  0  0  0  0  0
    0.0000    0.0000    0.0000 H   0  0  0  0  0  0  0  0  0  0  0  0
    0.0000    0.0000    0.0000 H   0  0  0  0  0  0  0  0  0  0  0  0
    0.0000    0.0000    0.0000 H   0  0  0  0  0  0  0  0  0  0  0  0
    0.0000    0.0000    0.0000 H   0  0  0  0  0  0  0  0  0  0  0  0
    0.0000    0.0000    0.0000 H   0  0  0  0  0  0  0  0  0  0  0  0
    0.0000    0.0000    0.0000 H   0  0  0  0  0  0  0  0  0  0  0  0
    0.0000    0.0000    0.0000 H   0  0  0  0  0  0  0  0  0  0  0  0
    0.0000    0.0000    0.0000 H   0  0  0  0  0  0  0  0  0  0  0  0
    0.0000    0.0000    0.0000 H   0  0  0  0  0  0  0  0  0  0  0  0
   10.4657    5.0232   15.4926 C   0  0  0  0  0  0  0  0  0  0  0  0
   10.4602    5.8046   14.3582 C   0  0  0  0  0  0  0  0  0  0  0  0
    9.6868    5.3942   13.2695 C   0  0  0  0  0  0  0  0  0  0  0  0
    8.9521    4.2322   13.3445 C   0  0  0  0  0  0  0  0  0  0  0  0
    8.2049    3.8606   12.2571 F   0  0  0  0  0  0  0  0  0  0  0  0
    8.9729    3.4687   14.4863 C   0  0  0  0  0  0  0  0  0  0  0  0
    9.7304    3.8591   15.5691 C   0  0  0  0  0  0  0  0  0  0  0  0
   11.0445    6.7140   14.3198 H   0  0  0  0  0  0  0  0  0  0  0  0
    9.6759    5.9976   12.3792 H   0  0  0  0  0  0  0  0  0  0  0  0
    8.3785    2.5669   14.4921 H   0  0  0  0  0  0  0  0  0  0  0  0
    9.7508    3.2613   16.4721 H   0  0  0  0  0  0  0  0  0  0  0  0
  1  2  2  0
  1  7  1  0
  2  3  1  0
  3  4  2  0
  3 10  1  0
  4  5  1  0
  5  6  1  0
  5  7  2  0
  7  8  1  0
  8  9  3  0
 10 11  1  0
 11 12  2  0
 11 13  1  0
 13 14  1  0
 14 15  2  0
 14 22  1  0
 15 16  1  0
 15 18  1  0
 16 17  1  0
 18 19  2  0
 19 20  1  0
 19 21  1  0
 21 22  2  0
 21 23  1  0
 23 24  1  0
  4 25  1  0
  6 26  1  0
  6 27  1  0
 10 28  1  0
 13 29  1  0
 13 30  1  0
 17 31  1  0
 17 32  1  0
 17 33  1  0
 18 34  1  0
 22 35  1  0
 24 36  1  0
 24 37  1  0
 24 38  1  0
 39 40  2  0
 40 41  1  0
 41 42  2  0
 42 43  1  0
 42 44  1  0
 44 45  2  0
 45 39  1  0
 40 46  1  0
 41 47  1  0
 44 48  1  0
 45 49  1  0
  1 39  1  0
M  END
>  <attachment_point>  (464) 
24

>  <score>  (464) 
<NA>

$$$$
17124-1
     RDKit          3D

 49 51  0  0  0  0  0  0  0  0999 V2000
   21.4127   10.2773   31.6976 C   0  0  0  0  0  0  0  0  0  0  0  0
   21.7567    9.0266   31.2850 N   0  0  0  0  0  0  0  0  0  0  0  0
   20.9811    7.9971   31.6572 C   0  0  0  0  0  0  0  0  0  0  0  0
   19.8706    8.1421   32.4769 C   0  0  0  0  0  0  0  0  0  0  0  0
   19.5217    9.4143   32.8937 C   0  0  0  0  0  0  0  0  0  0  0  0
   18.3827    9.4958   33.6863 N   0  0  0  0  0  0  0  0  0  0  0  0
   20.2923   10.5202   32.5003 C   0  0  0  0  0  0  0  0  0  0  0  0
   19.9657   11.8905   32.8774 C   0  0  0  0  0  0  0  0  0  0  0  0
   19.7135   12.9814   33.1712 N   0  0  0  0  0  0  0  0  0  0  0  0
   21.4435    6.8153   31.1146 N   0  0  0  0  0  0  0  0  0  0  0  0
   20.8639    5.6146   31.0308 C   0  0  0  0  0  0  0  0  0  0  0  0
   19.7396    5.3500   31.4512 O   0  0  0  0  0  0  0  0  0  0  0  0
   21.6499    4.5466   30.2798 C   0  0  0  0  0  0  0  0  0  0  0  0
   23.0247    4.2587   30.8770 C   0  0  0  0  0  0  0  0  0  0  0  0
   24.1218    5.0797   30.5737 C   0  0  0  0  0  0  0  0  0  0  0  0
   23.8940    6.1755   29.7600 O   0  0  0  0  0  0  0  0  0  0  0  0
   24.9260    7.1419   29.5741 C   0  0  0  0  0  0  0  0  0  0  0  0
   25.3756    4.7488   31.1028 C   0  0  0  0  0  0  0  0  0  0  0  0
   25.5283    3.6468   31.9432 C   0  0  0  0  0  0  0  0  0  0  0  0
   27.2648    3.2511   32.6230 Br  0  0  0  0  0  0  0  0  0  0  0  0
   24.4329    2.8399   32.2701 C   0  0  0  0  0  0  0  0  0  0  0  0
   23.1819    3.1565   31.7231 C   0  0  0  0  0  0  0  0  0  0  0  0
   24.6457    1.7801   33.1306 O   0  0  0  0  0  0  0  0  0  0  0  0
   23.7084    0.7066   33.1601 C   0  0  0  0  0  0  0  0  0  0  0  0
    0.0000    0.0000    0.0000 H   0  0  0  0  0  0  0  0  0  0  0  0
    0.0000    0.0000    0.0000 H   0  0  0  0  0  0  0  0  0  0  0  0
    0.0000    0.0000    0.0000 H   0  0  0  0  0  0  0  0  0  0  0  0
    0.0000    0.0000    0.0000 H   0  0  0  0  0  0  0  0  0  0  0  0
    0.0000    0.0000    0.0000 H   0  0  0  0  0  0  0  0  0  0  0  0
    0.0000    0.0000    0.0000 H   0  0  0  0  0  0  0  0  0  0  0  0
    0.0000    0.0000    0.0000 H   0  0  0  0  0  0  0  0  0  0  0  0
    0.0000    0.0000    0.0000 H   0  0  0  0  0  0  0  0  0  0  0  0
    0.0000    0.0000    0.0000 H   0  0  0  0  0  0  0  0  0  0  0  0
    0.0000    0.0000    0.0000 H   0  0  0  0  0  0  0  0  0  0  0  0
    0.0000    0.0000    0.0000 H   0  0  0  0  0  0  0  0  0  0  0  0
    0.0000    0.0000    0.0000 H   0  0  0  0  0  0  0  0  0  0  0  0
    0.0000    0.0000    0.0000 H   0  0  0  0  0  0  0  0  0  0  0  0
    0.0000    0.0000    0.0000 H   0  0  0  0  0  0  0  0  0  0  0  0
   10.4613    5.0210   15.4861 C   0  0  0  0  0  0  0  0  0  0  0  0
    9.0962    5.1353   15.5082 C   0  0  0  0  0  0  0  0  0  0  0  0
    8.4082    4.7542   14.3546 C   0  0  0  0  0  0  0  0  0  0  0  0
    9.0613    4.2840   13.2407 C   0  0  0  0  0  0  0  0  0  0  0  0
    8.1099    3.8253   11.8271 Cl  0  0  0  0  0  0  0  0  0  0  0  0
   10.4212    4.1914   13.2750 C   0  0  0  0  0  0  0  0  0  0  0  0
   11.1529    4.5566   14.3954 C   0  0  0  0  0  0  0  0  0  0  0  0
    8.5823    5.5023   16.3766 H   0  0  0  0  0  0  0  0  0  0  0  0
    7.3274    4.8535   14.3958 H   0  0  0  0  0  0  0  0  0  0  0  0
   10.9247    3.8223   12.3988 H   0  0  0  0  0  0  0  0  0  0  0  0
   12.2188    4.4664   14.3755 H   0  0  0  0  0  0  0  0  0  0  0  0
  1  2  2  0
  1  7  1  0
  2  3  1  0
  3  4  2  0
  3 10  1  0
  4  5  1  0
  5  6  1  0
  5  7  2  0
  7  8  1  0
  8  9  3  0
 10 11  1  0
 11 12  2  0
 11 13  1  0
 13 14  1  0
 14 15  2  0
 14 22  1  0
 15 16  1  0
 15 18  1  0
 16 17  1  0
 18 19  2  0
 19 20  1  0
 19 21  1  0
 21 22  2  0
 21 23  1  0
 23 24  1  0
  4 25  1  0
  6 26  1  0
  6 27  1  0
 10 28  1  0
 13 29  1  0
 13 30  1  0
 17 31  1  0
 17 32  1  0
 17 33  1  0
 18 34  1  0
 22 35  1  0
 24 36  1  0
 24 37  1  0
 24 38  1  0
 39 40  2  0
 40 41  1  0
 41 42  2  0
 42 43  1  0
 42 44  1  0
 44 45  2  0
 45 39  1  0
 40 46  1  0
 41 47  1  0
 44 48  1  0
 45 49  1  0
  1 39  1  0
M  END
>  <attachment_point>  (465) 
24

>  <score>  (465) 
<NA>

$$$$
17124-1
     RDKit          3D

 53 55  0  0  0  0  0  0  0  0999 V2000
   21.4127   10.2773   31.6976 C   0  0  0  0  0  0  0  0  0  0  0  0
   21.7567    9.0266   31.2850 N   0  0  0  0  0  0  0  0  0  0  0  0
   20.9811    7.9971   31.6572 C   0  0  0  0  0  0  0  0  0  0  0  0
   19.8706    8.1421   32.4769 C   0  0  0  0  0  0  0  0  0  0  0  0
   19.5217    9.4143   32.8937 C   0  0  0  0  0  0  0  0  0  0  0  0
   18.3827    9.4958   33.6863 N   0  0  0  0  0  0  0  0  0  0  0  0
   20.2923   10.5202   32.5003 C   0  0  0  0  0  0  0  0  0  0  0  0
   19.9657   11.8905   32.8774 C   0  0  0  0  0  0  0  0  0  0  0  0
   19.7135   12.9814   33.1712 N   0  0  0  0  0  0  0  0  0  0  0  0
   21.4435    6.8153   31.1146 N   0  0  0  0  0  0  0  0  0  0  0  0
   20.8639    5.6146   31.0308 C   0  0  0  0  0  0  0  0  0  0  0  0
   19.7396    5.3500   31.4512 O   0  0  0  0  0  0  0  0  0  0  0  0
   21.6499    4.5466   30.2798 C   0  0  0  0  0  0  0  0  0  0  0  0
   23.0247    4.2587   30.8770 C   0  0  0  0  0  0  0  0  0  0  0  0
   24.1218    5.0797   30.5737 C   0  0  0  0  0  0  0  0  0  0  0  0
   23.8940    6.1755   29.7600 O   0  0  0  0  0  0  0  0  0  0  0  0
   24.9260    7.1419   29.5741 C   0  0  0  0  0  0  0  0  0  0  0  0
   25.3756    4.7488   31.1028 C   0  0  0  0  0  0  0  0  0  0  0  0
   25.5283    3.6468   31.9432 C   0  0  0  0  0  0  0  0  0  0  0  0
   27.2648    3.2511   32.6230 Br  0  0  0  0  0  0  0  0  0  0  0  0
   24.4329    2.8399   32.2701 C   0  0  0  0  0  0  0  0  0  0  0  0
   23.1819    3.1565   31.7231 C   0  0  0  0  0  0  0  0  0  0  0  0
   24.6457    1.7801   33.1306 O   0  0  0  0  0  0  0  0  0  0  0  0
   23.7084    0.7066   33.1601 C   0  0  0  0  0  0  0  0  0  0  0  0
    0.0000    0.0000    0.0000 H   0  0  0  0  0  0  0  0  0  0  0  0
    0.0000    0.0000    0.0000 H   0  0  0  0  0  0  0  0  0  0  0  0
    0.0000    0.0000    0.0000 H   0  0  0  0  0  0  0  0  0  0  0  0
    0.0000    0.0000    0.0000 H   0  0  0  0  0  0  0  0  0  0  0  0
    0.0000    0.0000    0.0000 H   0  0  0  0  0  0  0  0  0  0  0  0
    0.0000    0.0000    0.0000 H   0  0  0  0  0  0  0  0  0  0  0  0
    0.0000    0.0000    0.0000 H   0  0  0  0  0  0  0  0  0  0  0  0
    0.0000    0.0000    0.0000 H   0  0  0  0  0  0  0  0  0  0  0  0
    0.0000    0.0000    0.0000 H   0  0  0  0  0  0  0  0  0  0  0  0
    0.0000    0.0000    0.0000 H   0  0  0  0  0  0  0  0  0  0  0  0
    0.0000    0.0000    0.0000 H   0  0  0  0  0  0  0  0  0  0  0  0
    0.0000    0.0000    0.0000 H   0  0  0  0  0  0  0  0  0  0  0  0
    0.0000    0.0000    0.0000 H   0  0  0  0  0  0  0  0  0  0  0  0
    0.0000    0.0000    0.0000 H   0  0  0  0  0  0  0  0  0  0  0  0
   10.4550    5.0180   15.4768 C   0  0  0  0  0  0  0  0  0  0  0  0
   10.8101    5.4722   14.2446 C   0  0  0  0  0  0  0  0  0  0  0  0
   10.0486    5.1042   13.1323 C   0  0  0  0  0  0  0  0  0  0  0  0
    8.9439    4.2781   13.3286 C   0  0  0  0  0  0  0  0  0  0  0  0
    8.5949    3.8244   14.5845 C   0  0  0  0  0  0  0  0  0  0  0  0
    7.5032    3.0152   14.7342 O   0  0  0  0  0  0  0  0  0  0  0  0
    7.1258    2.5368   16.0168 C   0  0  0  0  0  0  0  0  0  0  0  0
    9.3658    4.1996   15.6938 C   0  0  0  0  0  0  0  0  0  0  0  0
   11.6771    6.1098   14.1568 H   0  0  0  0  0  0  0  0  0  0  0  0
   10.3312    5.4639   12.1625 H   0  0  0  0  0  0  0  0  0  0  0  0
    8.3361    3.9753   12.4970 H   0  0  0  0  0  0  0  0  0  0  0  0
    7.1391    3.3696   16.7682 H   0  0  0  0  0  0  0  0  0  0  0  0
    6.1487    2.0469   16.0144 H   0  0  0  0  0  0  0  0  0  0  0  0
    7.8715    1.7951   16.3794 H   0  0  0  0  0  0  0  0  0  0  0  0
    9.1240    3.8669   16.6787 H   0  0  0  0  0  0  0  0  0  0  0  0
  1  2  2  0
  1  7  1  0
  2  3  1  0
  3  4  2  0
  3 10  1  0
  4  5  1  0
  5  6  1  0
  5  7  2  0
  7  8  1  0
  8  9  3  0
 10 11  1  0
 11 12  2  0
 11 13  1  0
 13 14  1  0
 14 15  2  0
 14 22  1  0
 15 16  1  0
 15 18  1  0
 16 17  1  0
 18 19  2  0
 19 20  1  0
 19 21  1  0
 21 22  2  0
 21 23  1  0
 23 24  1  0
  4 25  1  0
  6 26  1  0
  6 27  1  0
 10 28  1  0
 13 29  1  0
 13 30  1  0
 17 31  1  0
 17 32  1  0
 17 33  1  0
 18 34  1  0
 22 35  1  0
 24 36  1  0
 24 37  1  0
 24 38  1  0
 39 40  2  0
 40 41  1  0
 41 42  2  0
 42 43  1  0
 43 44  1  0
 44 45  1  0
 43 46  2  0
 46 39  1  0
 40 47  1  0
 41 48  1  0
 42 49  1  0
 45 50  1  0
 45 51  1  0
 45 52  1  0
 46 53  1  0
  1 39  1  0
M  END
>  <attachment_point>  (466) 
24

>  <score>  (466) 
<NA>

$$$$
17124-1
     RDKit          3D

 53 55  0  0  0  0  0  0  0  0999 V2000
   21.4127   10.2773   31.6976 C   0  0  0  0  0  0  0  0  0  0  0  0
   21.7567    9.0266   31.2850 N   0  0  0  0  0  0  0  0  0  0  0  0
   20.9811    7.9971   31.6572 C   0  0  0  0  0  0  0  0  0  0  0  0
   19.8706    8.1421   32.4769 C   0  0  0  0  0  0  0  0  0  0  0  0
   19.5217    9.4143   32.8937 C   0  0  0  0  0  0  0  0  0  0  0  0
   18.3827    9.4958   33.6863 N   0  0  0  0  0  0  0  0  0  0  0  0
   20.2923   10.5202   32.5003 C   0  0  0  0  0  0  0  0  0  0  0  0
   19.9657   11.8905   32.8774 C   0  0  0  0  0  0  0  0  0  0  0  0
   19.7135   12.9814   33.1712 N   0  0  0  0  0  0  0  0  0  0  0  0
   21.4435    6.8153   31.1146 N   0  0  0  0  0  0  0  0  0  0  0  0
   20.8639    5.6146   31.0308 C   0  0  0  0  0  0  0  0  0  0  0  0
   19.7396    5.3500   31.4512 O   0  0  0  0  0  0  0  0  0  0  0  0
   21.6499    4.5466   30.2798 C   0  0  0  0  0  0  0  0  0  0  0  0
   23.0247    4.2587   30.8770 C   0  0  0  0  0  0  0  0  0  0  0  0
   24.1218    5.0797   30.5737 C   0  0  0  0  0  0  0  0  0  0  0  0
   23.8940    6.1755   29.7600 O   0  0  0  0  0  0  0  0  0  0  0  0
   24.9260    7.1419   29.5741 C   0  0  0  0  0  0  0  0  0  0  0  0
   25.3756    4.7488   31.1028 C   0  0  0  0  0  0  0  0  0  0  0  0
   25.5283    3.6468   31.9432 C   0  0  0  0  0  0  0  0  0  0  0  0
   27.2648    3.2511   32.6230 Br  0  0  0  0  0  0  0  0  0  0  0  0
   24.4329    2.8399   32.2701 C   0  0  0  0  0  0  0  0  0  0  0  0
   23.1819    3.1565   31.7231 C   0  0  0  0  0  0  0  0  0  0  0  0
   24.6457    1.7801   33.1306 O   0  0  0  0  0  0  0  0  0  0  0  0
   23.7084    0.7066   33.1601 C   0  0  0  0  0  0  0  0  0  0  0  0
    0.0000    0.0000    0.0000 H   0  0  0  0  0  0  0  0  0  0  0  0
    0.0000    0.0000    0.0000 H   0  0  0  0  0  0  0  0  0  0  0  0
    0.0000    0.0000    0.0000 H   0  0  0  0  0  0  0  0  0  0  0  0
    0.0000    0.0000    0.0000 H   0  0  0  0  0  0  0  0  0  0  0  0
    0.0000    0.0000    0.0000 H   0  0  0  0  0  0  0  0  0  0  0  0
    0.0000    0.0000    0.0000 H   0  0  0  0  0  0  0  0  0  0  0  0
    0.0000    0.0000    0.0000 H   0  0  0  0  0  0  0  0  0  0  0  0
    0.0000    0.0000    0.0000 H   0  0  0  0  0  0  0  0  0  0  0  0
    0.0000    0.0000    0.0000 H   0  0  0  0  0  0  0  0  0  0  0  0
    0.0000    0.0000    0.0000 H   0  0  0  0  0  0  0  0  0  0  0  0
    0.0000    0.0000    0.0000 H   0  0  0  0  0  0  0  0  0  0  0  0
    0.0000    0.0000    0.0000 H   0  0  0  0  0  0  0  0  0  0  0  0
    0.0000    0.0000    0.0000 H   0  0  0  0  0  0  0  0  0  0  0  0
    0.0000    0.0000    0.0000 H   0  0  0  0  0  0  0  0  0  0  0  0
   10.4732    5.0268   15.5037 C   0  0  0  0  0  0  0  0  0  0  0  0
    9.4220    4.1842   15.5682 C   0  0  0  0  0  0  0  0  0  0  0  0
    8.6921    3.8396   14.4521 C   0  0  0  0  0  0  0  0  0  0  0  0
    9.0884    4.4002   13.2593 C   0  0  0  0  0  0  0  0  0  0  0  0
   10.1330    5.2412   13.1769 C   0  0  0  0  0  0  0  0  0  0  0  0
   10.9392    5.6420   14.3038 C   0  0  0  0  0  0  0  0  0  0  0  0
   11.8611    6.3879   14.1817 O   0  0  0  0  0  0  0  0  0  0  0  0
   12.9295    7.2526   14.0393 C   0  0  0  0  0  0  0  0  0  0  0  0
    9.0821    3.7214   16.5084 H   0  0  0  0  0  0  0  0  0  0  0  0
    7.8532    3.1638   14.5140 H   0  0  0  0  0  0  0  0  0  0  0  0
    8.4854    4.1018   12.3921 H   0  0  0  0  0  0  0  0  0  0  0  0
   10.4168    5.6697   12.2175 H   0  0  0  0  0  0  0  0  0  0  0  0
   12.9618    7.9253   14.9436 H   0  0  0  0  0  0  0  0  0  0  0  0
   12.9195    7.8715   13.1119 H   0  0  0  0  0  0  0  0  0  0  0  0
   13.8852    6.6950   14.0421 H   0  0  0  0  0  0  0  0  0  0  0  0
  1  2  2  0
  1  7  1  0
  2  3  1  0
  3  4  2  0
  3 10  1  0
  4  5  1  0
  5  6  1  0
  5  7  2  0
  7  8  1  0
  8  9  3  0
 10 11  1  0
 11 12  2  0
 11 13  1  0
 13 14  1  0
 14 15  2  0
 14 22  1  0
 15 16  1  0
 15 18  1  0
 16 17  1  0
 18 19  2  0
 19 20  1  0
 19 21  1  0
 21 22  2  0
 21 23  1  0
 23 24  1  0
  4 25  1  0
  6 26  1  0
  6 27  1  0
 10 28  1  0
 13 29  1  0
 13 30  1  0
 17 31  1  0
 17 32  1  0
 17 33  1  0
 18 34  1  0
 22 35  1  0
 24 36  1  0
 24 37  1  0
 24 38  1  0
 39 40  2  0
 40 41  1  0
 41 42  2  0
 42 43  1  0
 43 44  2  0
 44 45  1  0
 45 46  1  0
 44 39  1  0
 40 47  1  0
 41 48  1  0
 42 49  1  0
 43 50  1  0
 46 51  1  0
 46 52  1  0
 46 53  1  0
  1 39  1  0
M  END
>  <attachment_point>  (467) 
24

>  <score>  (467) 
<NA>

$$$$
17124-1
     RDKit          3D

 55 58  0  0  0  0  0  0  0  0999 V2000
   21.4127   10.2773   31.6976 C   0  0  0  0  0  0  0  0  0  0  0  0
   21.7567    9.0266   31.2850 N   0  0  0  0  0  0  0  0  0  0  0  0
   20.9811    7.9971   31.6572 C   0  0  0  0  0  0  0  0  0  0  0  0
   19.8706    8.1421   32.4769 C   0  0  0  0  0  0  0  0  0  0  0  0
   19.5217    9.4143   32.8937 C   0  0  0  0  0  0  0  0  0  0  0  0
   18.3827    9.4958   33.6863 N   0  0  0  0  0  0  0  0  0  0  0  0
   20.2923   10.5202   32.5003 C   0  0  0  0  0  0  0  0  0  0  0  0
   19.9657   11.8905   32.8774 C   0  0  0  0  0  0  0  0  0  0  0  0
   19.7135   12.9814   33.1712 N   0  0  0  0  0  0  0  0  0  0  0  0
   21.4435    6.8153   31.1146 N   0  0  0  0  0  0  0  0  0  0  0  0
   20.8639    5.6146   31.0308 C   0  0  0  0  0  0  0  0  0  0  0  0
   19.7396    5.3500   31.4512 O   0  0  0  0  0  0  0  0  0  0  0  0
   21.6499    4.5466   30.2798 C   0  0  0  0  0  0  0  0  0  0  0  0
   23.0247    4.2587   30.8770 C   0  0  0  0  0  0  0  0  0  0  0  0
   24.1218    5.0797   30.5737 C   0  0  0  0  0  0  0  0  0  0  0  0
   23.8940    6.1755   29.7600 O   0  0  0  0  0  0  0  0  0  0  0  0
   24.9260    7.1419   29.5741 C   0  0  0  0  0  0  0  0  0  0  0  0
   25.3756    4.7488   31.1028 C   0  0  0  0  0  0  0  0  0  0  0  0
   25.5283    3.6468   31.9432 C   0  0  0  0  0  0  0  0  0  0  0  0
   27.2648    3.2511   32.6230 Br  0  0  0  0  0  0  0  0  0  0  0  0
   24.4329    2.8399   32.2701 C   0  0  0  0  0  0  0  0  0  0  0  0
   23.1819    3.1565   31.7231 C   0  0  0  0  0  0  0  0  0  0  0  0
   24.6457    1.7801   33.1306 O   0  0  0  0  0  0  0  0  0  0  0  0
   23.7084    0.7066   33.1601 C   0  0  0  0  0  0  0  0  0  0  0  0
    0.0000    0.0000    0.0000 H   0  0  0  0  0  0  0  0  0  0  0  0
    0.0000    0.0000    0.0000 H   0  0  0  0  0  0  0  0  0  0  0  0
    0.0000    0.0000    0.0000 H   0  0  0  0  0  0  0  0  0  0  0  0
    0.0000    0.0000    0.0000 H   0  0  0  0  0  0  0  0  0  0  0  0
    0.0000    0.0000    0.0000 H   0  0  0  0  0  0  0  0  0  0  0  0
    0.0000    0.0000    0.0000 H   0  0  0  0  0  0  0  0  0  0  0  0
    0.0000    0.0000    0.0000 H   0  0  0  0  0  0  0  0  0  0  0  0
    0.0000    0.0000    0.0000 H   0  0  0  0  0  0  0  0  0  0  0  0
    0.0000    0.0000    0.0000 H   0  0  0  0  0  0  0  0  0  0  0  0
    0.0000    0.0000    0.0000 H   0  0  0  0  0  0  0  0  0  0  0  0
    0.0000    0.0000    0.0000 H   0  0  0  0  0  0  0  0  0  0  0  0
    0.0000    0.0000    0.0000 H   0  0  0  0  0  0  0  0  0  0  0  0
    0.0000    0.0000    0.0000 H   0  0  0  0  0  0  0  0  0  0  0  0
    0.0000    0.0000    0.0000 H   0  0  0  0  0  0  0  0  0  0  0  0
   10.4667    5.0236   15.4940 C   0  0  0  0  0  0  0  0  0  0  0  0
    9.6497    3.9134   15.5175 C   0  0  0  0  0  0  0  0  0  0  0  0
    8.9069    3.5709   14.3939 C   0  0  0  0  0  0  0  0  0  0  0  0
    9.0021    4.3563   13.2651 C   0  0  0  0  0  0  0  0  0  0  0  0
    9.8125    5.4783   13.2060 C   0  0  0  0  0  0  0  0  0  0  0  0
    9.8986    6.2603   12.0621 C   0  0  0  0  0  0  0  0  0  0  0  0
   10.7091    7.3756   12.0150 C   0  0  0  0  0  0  0  0  0  0  0  0
   11.4336    7.6854   13.1522 C   0  0  0  0  0  0  0  0  0  0  0  0
   11.3457    6.9039   14.2917 C   0  0  0  0  0  0  0  0  0  0  0  0
   10.5367    5.7912   14.3379 C   0  0  0  0  0  0  0  0  0  0  0  0
    9.5887    3.3143   16.4056 H   0  0  0  0  0  0  0  0  0  0  0  0
    8.2586    2.6914   14.4101 H   0  0  0  0  0  0  0  0  0  0  0  0
    8.4169    4.0842   12.3837 H   0  0  0  0  0  0  0  0  0  0  0  0
    9.3204    6.0009   11.1752 H   0  0  0  0  0  0  0  0  0  0  0  0
   10.7764    7.9906   11.1141 H   0  0  0  0  0  0  0  0  0  0  0  0
   12.0659    8.5400   13.1423 H   0  0  0  0  0  0  0  0  0  0  0  0
   11.9118    7.1347   15.1997 H   0  0  0  0  0  0  0  0  0  0  0  0
  1  2  2  0
  1  7  1  0
  2  3  1  0
  3  4  2  0
  3 10  1  0
  4  5  1  0
  5  6  1  0
  5  7  2  0
  7  8  1  0
  8  9  3  0
 10 11  1  0
 11 12  2  0
 11 13  1  0
 13 14  1  0
 14 15  2  0
 14 22  1  0
 15 16  1  0
 15 18  1  0
 16 17  1  0
 18 19  2  0
 19 20  1  0
 19 21  1  0
 21 22  2  0
 21 23  1  0
 23 24  1  0
  4 25  1  0
  6 26  1  0
  6 27  1  0
 10 28  1  0
 13 29  1  0
 13 30  1  0
 17 31  1  0
 17 32  1  0
 17 33  1  0
 18 34  1  0
 22 35  1  0
 24 36  1  0
 24 37  1  0
 24 38  1  0
 39 40  2  0
 40 41  1  0
 41 42  2  0
 42 43  1  0
 43 44  2  0
 44 45  1  0
 45 46  2  0
 46 47  1  0
 47 48  2  0
 48 39  1  0
 48 43  1  0
 40 49  1  0
 41 50  1  0
 42 51  1  0
 44 52  1  0
 45 53  1  0
 46 54  1  0
 47 55  1  0
  1 39  1  0
M  END
>  <attachment_point>  (468) 
24

>  <score>  (468) 
<NA>

$$$$
17124-1
     RDKit          3D

 43 44  0  0  0  0  0  0  0  0999 V2000
   21.4127   10.2773   31.6976 C   0  0  0  0  0  0  0  0  0  0  0  0
   21.7567    9.0266   31.2850 N   0  0  0  0  0  0  0  0  0  0  0  0
   20.9811    7.9971   31.6572 C   0  0  0  0  0  0  0  0  0  0  0  0
   19.8706    8.1421   32.4769 C   0  0  0  0  0  0  0  0  0  0  0  0
   19.5217    9.4143   32.8937 C   0  0  0  0  0  0  0  0  0  0  0  0
   18.3827    9.4958   33.6863 N   0  0  0  0  0  0  0  0  0  0  0  0
   20.2923   10.5202   32.5003 C   0  0  0  0  0  0  0  0  0  0  0  0
   19.9657   11.8905   32.8774 C   0  0  0  0  0  0  0  0  0  0  0  0
   19.7135   12.9814   33.1712 N   0  0  0  0  0  0  0  0  0  0  0  0
   21.4435    6.8153   31.1146 N   0  0  0  0  0  0  0  0  0  0  0  0
   20.8639    5.6146   31.0308 C   0  0  0  0  0  0  0  0  0  0  0  0
   19.7396    5.3500   31.4512 O   0  0  0  0  0  0  0  0  0  0  0  0
   21.6499    4.5466   30.2798 C   0  0  0  0  0  0  0  0  0  0  0  0
   23.0247    4.2587   30.8770 C   0  0  0  0  0  0  0  0  0  0  0  0
   24.1218    5.0797   30.5737 C   0  0  0  0  0  0  0  0  0  0  0  0
   23.8940    6.1755   29.7600 O   0  0  0  0  0  0  0  0  0  0  0  0
   24.9260    7.1419   29.5741 C   0  0  0  0  0  0  0  0  0  0  0  0
   25.3756    4.7488   31.1028 C   0  0  0  0  0  0  0  0  0  0  0  0
   25.5283    3.6468   31.9432 C   0  0  0  0  0  0  0  0  0  0  0  0
   27.2648    3.2511   32.6230 Br  0  0  0  0  0  0  0  0  0  0  0  0
   24.4329    2.8399   32.2701 C   0  0  0  0  0  0  0  0  0  0  0  0
   23.1819    3.1565   31.7231 C   0  0  0  0  0  0  0  0  0  0  0  0
   24.6457    1.7801   33.1306 O   0  0  0  0  0  0  0  0  0  0  0  0
   23.7084    0.7066   33.1601 C   0  0  0  0  0  0  0  0  0  0  0  0
    0.0000    0.0000    0.0000 H   0  0  0  0  0  0  0  0  0  0  0  0
    0.0000    0.0000    0.0000 H   0  0  0  0  0  0  0  0  0  0  0  0
    0.0000    0.0000    0.0000 H   0  0  0  0  0  0  0  0  0  0  0  0
    0.0000    0.0000    0.0000 H   0  0  0  0  0  0  0  0  0  0  0  0
    0.0000    0.0000    0.0000 H   0  0  0  0  0  0  0  0  0  0  0  0
    0.0000    0.0000    0.0000 H   0  0  0  0  0  0  0  0  0  0  0  0
    0.0000    0.0000    0.0000 H   0  0  0  0  0  0  0  0  0  0  0  0
    0.0000    0.0000    0.0000 H   0  0  0  0  0  0  0  0  0  0  0  0
    0.0000    0.0000    0.0000 H   0  0  0  0  0  0  0  0  0  0  0  0
    0.0000    0.0000    0.0000 H   0  0  0  0  0  0  0  0  0  0  0  0
    0.0000    0.0000    0.0000 H   0  0  0  0  0  0  0  0  0  0  0  0
    0.0000    0.0000    0.0000 H   0  0  0  0  0  0  0  0  0  0  0  0
    0.0000    0.0000    0.0000 H   0  0  0  0  0  0  0  0  0  0  0  0
    0.0000    0.0000    0.0000 H   0  0  0  0  0  0  0  0  0  0  0  0
   10.4297    5.0059   15.4393 B   0  0  0  0  0  0  0  0  0  0  0  0
   11.2557    4.7731   14.2470 O   0  0  0  0  0  0  0  0  0  0  0  0
    9.3513    5.9841   15.2945 O   0  0  0  0  0  0  0  0  0  0  0  0
   11.3309    5.6095   13.7452 H   0  0  0  0  0  0  0  0  0  0  0  0
    8.5070    5.4879   15.4674 H   0  0  0  0  0  0  0  0  0  0  0  0
  1  2  2  0
  1  7  1  0
  2  3  1  0
  3  4  2  0
  3 10  1  0
  4  5  1  0
  5  6  1  0
  5  7  2  0
  7  8  1  0
  8  9  3  0
 10 11  1  0
 11 12  2  0
 11 13  1  0
 13 14  1  0
 14 15  2  0
 14 22  1  0
 15 16  1  0
 15 18  1  0
 16 17  1  0
 18 19  2  0
 19 20  1  0
 19 21  1  0
 21 22  2  0
 21 23  1  0
 23 24  1  0
  4 25  1  0
  6 26  1  0
  6 27  1  0
 10 28  1  0
 13 29  1  0
 13 30  1  0
 17 31  1  0
 17 32  1  0
 17 33  1  0
 18 34  1  0
 22 35  1  0
 24 36  1  0
 24 37  1  0
 24 38  1  0
 39 40  1  0
 39 41  1  0
 40 42  1  0
 41 43  1  0
  1 39  1  0
M  END
>  <attachment_point>  (469) 
24

>  <score>  (469) 
<NA>

$$$$
17124-1
     RDKit          3D

 53 55  0  0  0  0  0  0  0  0999 V2000
   21.4127   10.2773   31.6976 C   0  0  0  0  0  0  0  0  0  0  0  0
   21.7567    9.0266   31.2850 N   0  0  0  0  0  0  0  0  0  0  0  0
   20.9811    7.9971   31.6572 C   0  0  0  0  0  0  0  0  0  0  0  0
   19.8706    8.1421   32.4769 C   0  0  0  0  0  0  0  0  0  0  0  0
   19.5217    9.4143   32.8937 C   0  0  0  0  0  0  0  0  0  0  0  0
   18.3827    9.4958   33.6863 N   0  0  0  0  0  0  0  0  0  0  0  0
   20.2923   10.5202   32.5003 C   0  0  0  0  0  0  0  0  0  0  0  0
   19.9657   11.8905   32.8774 C   0  0  0  0  0  0  0  0  0  0  0  0
   19.7135   12.9814   33.1712 N   0  0  0  0  0  0  0  0  0  0  0  0
   21.4435    6.8153   31.1146 N   0  0  0  0  0  0  0  0  0  0  0  0
   20.8639    5.6146   31.0308 C   0  0  0  0  0  0  0  0  0  0  0  0
   19.7396    5.3500   31.4512 O   0  0  0  0  0  0  0  0  0  0  0  0
   21.6499    4.5466   30.2798 C   0  0  0  0  0  0  0  0  0  0  0  0
   23.0247    4.2587   30.8770 C   0  0  0  0  0  0  0  0  0  0  0  0
   24.1218    5.0797   30.5737 C   0  0  0  0  0  0  0  0  0  0  0  0
   23.8940    6.1755   29.7600 O   0  0  0  0  0  0  0  0  0  0  0  0
   24.9260    7.1419   29.5741 C   0  0  0  0  0  0  0  0  0  0  0  0
   25.3756    4.7488   31.1028 C   0  0  0  0  0  0  0  0  0  0  0  0
   25.5283    3.6468   31.9432 C   0  0  0  0  0  0  0  0  0  0  0  0
   27.2648    3.2511   32.6230 Br  0  0  0  0  0  0  0  0  0  0  0  0
   24.4329    2.8399   32.2701 C   0  0  0  0  0  0  0  0  0  0  0  0
   23.1819    3.1565   31.7231 C   0  0  0  0  0  0  0  0  0  0  0  0
   24.6457    1.7801   33.1306 O   0  0  0  0  0  0  0  0  0  0  0  0
   23.7084    0.7066   33.1601 C   0  0  0  0  0  0  0  0  0  0  0  0
    0.0000    0.0000    0.0000 H   0  0  0  0  0  0  0  0  0  0  0  0
    0.0000    0.0000    0.0000 H   0  0  0  0  0  0  0  0  0  0  0  0
    0.0000    0.0000    0.0000 H   0  0  0  0  0  0  0  0  0  0  0  0
    0.0000    0.0000    0.0000 H   0  0  0  0  0  0  0  0  0  0  0  0
    0.0000    0.0000    0.0000 H   0  0  0  0  0  0  0  0  0  0  0  0
    0.0000    0.0000    0.0000 H   0  0  0  0  0  0  0  0  0  0  0  0
    0.0000    0.0000    0.0000 H   0  0  0  0  0  0  0  0  0  0  0  0
    0.0000    0.0000    0.0000 H   0  0  0  0  0  0  0  0  0  0  0  0
    0.0000    0.0000    0.0000 H   0  0  0  0  0  0  0  0  0  0  0  0
    0.0000    0.0000    0.0000 H   0  0  0  0  0  0  0  0  0  0  0  0
    0.0000    0.0000    0.0000 H   0  0  0  0  0  0  0  0  0  0  0  0
    0.0000    0.0000    0.0000 H   0  0  0  0  0  0  0  0  0  0  0  0
    0.0000    0.0000    0.0000 H   0  0  0  0  0  0  0  0  0  0  0  0
    0.0000    0.0000    0.0000 H   0  0  0  0  0  0  0  0  0  0  0  0
   10.4009    4.9920   15.3966 C   0  0  0  0  0  0  0  0  0  0  0  0
    9.6984    5.9805   15.0189 C   0  0  0  0  0  0  0  0  0  0  0  0
    9.7167    7.2974   15.6991 C   0  0  0  0  0  0  0  0  0  0  0  0
    8.9405    8.3449   15.2595 C   0  0  0  0  0  0  0  0  0  0  0  0
    8.9456    9.5754   15.8802 C   0  0  0  0  0  0  0  0  0  0  0  0
    9.7421    9.8003   16.9806 C   0  0  0  0  0  0  0  0  0  0  0  0
   10.5256    8.7596   17.4328 C   0  0  0  0  0  0  0  0  0  0  0  0
   10.5150    7.5162   16.7988 C   0  0  0  0  0  0  0  0  0  0  0  0
   10.6307    4.0288   15.2007 H   0  0  0  0  0  0  0  0  0  0  0  0
    9.0533    5.8398   14.1481 H   0  0  0  0  0  0  0  0  0  0  0  0
    8.3142    8.1641   14.3921 H   0  0  0  0  0  0  0  0  0  0  0  0
    8.3274   10.3973   15.5238 H   0  0  0  0  0  0  0  0  0  0  0  0
    9.7361   10.7730   17.4589 H   0  0  0  0  0  0  0  0  0  0  0  0
   11.1467    8.9406   18.2936 H   0  0  0  0  0  0  0  0  0  0  0  0
   11.1402    6.7010   17.1672 H   0  0  0  0  0  0  0  0  0  0  0  0
  1  2  2  0
  1  7  1  0
  2  3  1  0
  3  4  2  0
  3 10  1  0
  4  5  1  0
  5  6  1  0
  5  7  2  0
  7  8  1  0
  8  9  3  0
 10 11  1  0
 11 12  2  0
 11 13  1  0
 13 14  1  0
 14 15  2  0
 14 22  1  0
 15 16  1  0
 15 18  1  0
 16 17  1  0
 18 19  2  0
 19 20  1  0
 19 21  1  0
 21 22  2  0
 21 23  1  0
 23 24  1  0
  4 25  1  0
  6 26  1  0
  6 27  1  0
 10 28  1  0
 13 29  1  0
 13 30  1  0
 17 31  1  0
 17 32  1  0
 17 33  1  0
 18 34  1  0
 22 35  1  0
 24 36  1  0
 24 37  1  0
 24 38  1  0
 39 40  2  3
 40 41  1  0
 41 42  2  0
 42 43  1  0
 43 44  2  0
 44 45  1  0
 45 46  2  0
 46 41  1  0
 39 47  1  0
 40 48  1  0
 42 49  1  0
 43 50  1  0
 44 51  1  0
 45 52  1  0
 46 53  1  0
  1 39  1  0
M  END
>  <attachment_point>  (470) 
24

>  <score>  (470) 
<NA>

$$$$
17124-1
     RDKit          3D

 51 53  0  0  0  0  0  0  0  0999 V2000
   21.4127   10.2773   31.6976 C   0  0  0  0  0  0  0  0  0  0  0  0
   21.7567    9.0266   31.2850 N   0  0  0  0  0  0  0  0  0  0  0  0
   20.9811    7.9971   31.6572 C   0  0  0  0  0  0  0  0  0  0  0  0
   19.8706    8.1421   32.4769 C   0  0  0  0  0  0  0  0  0  0  0  0
   19.5217    9.4143   32.8937 C   0  0  0  0  0  0  0  0  0  0  0  0
   18.3827    9.4958   33.6863 N   0  0  0  0  0  0  0  0  0  0  0  0
   20.2923   10.5202   32.5003 C   0  0  0  0  0  0  0  0  0  0  0  0
   19.9657   11.8905   32.8774 C   0  0  0  0  0  0  0  0  0  0  0  0
   19.7135   12.9814   33.1712 N   0  0  0  0  0  0  0  0  0  0  0  0
   21.4435    6.8153   31.1146 N   0  0  0  0  0  0  0  0  0  0  0  0
   20.8639    5.6146   31.0308 C   0  0  0  0  0  0  0  0  0  0  0  0
   19.7396    5.3500   31.4512 O   0  0  0  0  0  0  0  0  0  0  0  0
   21.6499    4.5466   30.2798 C   0  0  0  0  0  0  0  0  0  0  0  0
   23.0247    4.2587   30.8770 C   0  0  0  0  0  0  0  0  0  0  0  0
   24.1218    5.0797   30.5737 C   0  0  0  0  0  0  0  0  0  0  0  0
   23.8940    6.1755   29.7600 O   0  0  0  0  0  0  0  0  0  0  0  0
   24.9260    7.1419   29.5741 C   0  0  0  0  0  0  0  0  0  0  0  0
   25.3756    4.7488   31.1028 C   0  0  0  0  0  0  0  0  0  0  0  0
   25.5283    3.6468   31.9432 C   0  0  0  0  0  0  0  0  0  0  0  0
   27.2648    3.2511   32.6230 Br  0  0  0  0  0  0  0  0  0  0  0  0
   24.4329    2.8399   32.2701 C   0  0  0  0  0  0  0  0  0  0  0  0
   23.1819    3.1565   31.7231 C   0  0  0  0  0  0  0  0  0  0  0  0
   24.6457    1.7801   33.1306 O   0  0  0  0  0  0  0  0  0  0  0  0
   23.7084    0.7066   33.1601 C   0  0  0  0  0  0  0  0  0  0  0  0
    0.0000    0.0000    0.0000 H   0  0  0  0  0  0  0  0  0  0  0  0
    0.0000    0.0000    0.0000 H   0  0  0  0  0  0  0  0  0  0  0  0
    0.0000    0.0000    0.0000 H   0  0  0  0  0  0  0  0  0  0  0  0
    0.0000    0.0000    0.0000 H   0  0  0  0  0  0  0  0  0  0  0  0
    0.0000    0.0000    0.0000 H   0  0  0  0  0  0  0  0  0  0  0  0
    0.0000    0.0000    0.0000 H   0  0  0  0  0  0  0  0  0  0  0  0
    0.0000    0.0000    0.0000 H   0  0  0  0  0  0  0  0  0  0  0  0
    0.0000    0.0000    0.0000 H   0  0  0  0  0  0  0  0  0  0  0  0
    0.0000    0.0000    0.0000 H   0  0  0  0  0  0  0  0  0  0  0  0
    0.0000    0.0000    0.0000 H   0  0  0  0  0  0  0  0  0  0  0  0
    0.0000    0.0000    0.0000 H   0  0  0  0  0  0  0  0  0  0  0  0
    0.0000    0.0000    0.0000 H   0  0  0  0  0  0  0  0  0  0  0  0
    0.0000    0.0000    0.0000 H   0  0  0  0  0  0  0  0  0  0  0  0
    0.0000    0.0000    0.0000 H   0  0  0  0  0  0  0  0  0  0  0  0
   10.4528    5.0169   15.4734 C   0  0  0  0  0  0  0  0  0  0  0  0
   11.0553    4.9842   14.2403 C   0  0  0  0  0  0  0  0  0  0  0  0
   10.2872    4.6189   13.1261 C   0  0  0  0  0  0  0  0  0  0  0  0
    8.9427    4.2979   13.2775 C   0  0  0  0  0  0  0  0  0  0  0  0
    8.1789    3.9301   12.1391 N   0  0  0  0  0  0  0  0  0  0  0  0
    8.3959    4.3496   14.5421 C   0  0  0  0  0  0  0  0  0  0  0  0
    9.1360    4.7095   15.6677 C   0  0  0  0  0  0  0  0  0  0  0  0
   12.0789    5.2227   14.0863 H   0  0  0  0  0  0  0  0  0  0  0  0
   10.7091    4.5764   12.1331 H   0  0  0  0  0  0  0  0  0  0  0  0
    7.3100    4.4491   11.9169 H   0  0  0  0  0  0  0  0  0  0  0  0
    8.4720    3.1503   11.5220 H   0  0  0  0  0  0  0  0  0  0  0  0
    7.3368    4.0909   14.6225 H   0  0  0  0  0  0  0  0  0  0  0  0
    8.6482    4.7298   16.6252 H   0  0  0  0  0  0  0  0  0  0  0  0
  1  2  2  0
  1  7  1  0
  2  3  1  0
  3  4  2  0
  3 10  1  0
  4  5  1  0
  5  6  1  0
  5  7  2  0
  7  8  1  0
  8  9  3  0
 10 11  1  0
 11 12  2  0
 11 13  1  0
 13 14  1  0
 14 15  2  0
 14 22  1  0
 15 16  1  0
 15 18  1  0
 16 17  1  0
 18 19  2  0
 19 20  1  0
 19 21  1  0
 21 22  2  0
 21 23  1  0
 23 24  1  0
  4 25  1  0
  6 26  1  0
  6 27  1  0
 10 28  1  0
 13 29  1  0
 13 30  1  0
 17 31  1  0
 17 32  1  0
 17 33  1  0
 18 34  1  0
 22 35  1  0
 24 36  1  0
 24 37  1  0
 24 38  1  0
 39 40  2  0
 40 41  1  0
 41 42  2  0
 42 43  1  0
 42 44  1  0
 44 45  2  0
 45 39  1  0
 40 46  1  0
 41 47  1  0
 43 48  1  0
 43 49  1  0
 44 50  1  0
 45 51  1  0
  1 39  1  0
M  END
>  <attachment_point>  (471) 
24

>  <score>  (471) 
<NA>

$$$$
17124-1
     RDKit          3D

 57 59  0  0  0  0  0  0  0  0999 V2000
   21.4127   10.2773   31.6976 C   0  0  0  0  0  0  0  0  0  0  0  0
   21.7567    9.0266   31.2850 N   0  0  0  0  0  0  0  0  0  0  0  0
   20.9811    7.9971   31.6572 C   0  0  0  0  0  0  0  0  0  0  0  0
   19.8706    8.1421   32.4769 C   0  0  0  0  0  0  0  0  0  0  0  0
   19.5217    9.4143   32.8937 C   0  0  0  0  0  0  0  0  0  0  0  0
   18.3827    9.4958   33.6863 N   0  0  0  0  0  0  0  0  0  0  0  0
   20.2923   10.5202   32.5003 C   0  0  0  0  0  0  0  0  0  0  0  0
   19.9657   11.8905   32.8774 C   0  0  0  0  0  0  0  0  0  0  0  0
   19.7135   12.9814   33.1712 N   0  0  0  0  0  0  0  0  0  0  0  0
   21.4435    6.8153   31.1146 N   0  0  0  0  0  0  0  0  0  0  0  0
   20.8639    5.6146   31.0308 C   0  0  0  0  0  0  0  0  0  0  0  0
   19.7396    5.3500   31.4512 O   0  0  0  0  0  0  0  0  0  0  0  0
   21.6499    4.5466   30.2798 C   0  0  0  0  0  0  0  0  0  0  0  0
   23.0247    4.2587   30.8770 C   0  0  0  0  0  0  0  0  0  0  0  0
   24.1218    5.0797   30.5737 C   0  0  0  0  0  0  0  0  0  0  0  0
   23.8940    6.1755   29.7600 O   0  0  0  0  0  0  0  0  0  0  0  0
   24.9260    7.1419   29.5741 C   0  0  0  0  0  0  0  0  0  0  0  0
   25.3756    4.7488   31.1028 C   0  0  0  0  0  0  0  0  0  0  0  0
   25.5283    3.6468   31.9432 C   0  0  0  0  0  0  0  0  0  0  0  0
   27.2648    3.2511   32.6230 Br  0  0  0  0  0  0  0  0  0  0  0  0
   24.4329    2.8399   32.2701 C   0  0  0  0  0  0  0  0  0  0  0  0
   23.1819    3.1565   31.7231 C   0  0  0  0  0  0  0  0  0  0  0  0
   24.6457    1.7801   33.1306 O   0  0  0  0  0  0  0  0  0  0  0  0
   23.7084    0.7066   33.1601 C   0  0  0  0  0  0  0  0  0  0  0  0
    0.0000    0.0000    0.0000 H   0  0  0  0  0  0  0  0  0  0  0  0
    0.0000    0.0000    0.0000 H   0  0  0  0  0  0  0  0  0  0  0  0
    0.0000    0.0000    0.0000 H   0  0  0  0  0  0  0  0  0  0  0  0
    0.0000    0.0000    0.0000 H   0  0  0  0  0  0  0  0  0  0  0  0
    0.0000    0.0000    0.0000 H   0  0  0  0  0  0  0  0  0  0  0  0
    0.0000    0.0000    0.0000 H   0  0  0  0  0  0  0  0  0  0  0  0
    0.0000    0.0000    0.0000 H   0  0  0  0  0  0  0  0  0  0  0  0
    0.0000    0.0000    0.0000 H   0  0  0  0  0  0  0  0  0  0  0  0
    0.0000    0.0000    0.0000 H   0  0  0  0  0  0  0  0  0  0  0  0
    0.0000    0.0000    0.0000 H   0  0  0  0  0  0  0  0  0  0  0  0
    0.0000    0.0000    0.0000 H   0  0  0  0  0  0  0  0  0  0  0  0
    0.0000    0.0000    0.0000 H   0  0  0  0  0  0  0  0  0  0  0  0
    0.0000    0.0000    0.0000 H   0  0  0  0  0  0  0  0  0  0  0  0
    0.0000    0.0000    0.0000 H   0  0  0  0  0  0  0  0  0  0  0  0
   10.4593    5.0201   15.4831 C   0  0  0  0  0  0  0  0  0  0  0  0
   10.8085    3.9210   14.7559 C   0  0  0  0  0  0  0  0  0  0  0  0
   10.0866    3.5354   13.6491 C   0  0  0  0  0  0  0  0  0  0  0  0
    8.9876    4.2743   13.2662 C   0  0  0  0  0  0  0  0  0  0  0  0
    8.2400    3.8990   12.1433 N   0  0  0  0  0  0  0  0  0  0  0  0
    8.6346    2.7257   11.3890 C   0  0  0  0  0  0  0  0  0  0  0  0
    7.0876    4.6962   11.7637 C   0  0  0  0  0  0  0  0  0  0  0  0
    8.6296    5.4039   14.0144 C   0  0  0  0  0  0  0  0  0  0  0  0
    9.3799    5.7547   15.1159 C   0  0  0  0  0  0  0  0  0  0  0  0
   11.6819    3.3534   15.0794 H   0  0  0  0  0  0  0  0  0  0  0  0
   10.3908    2.6448   13.0812 H   0  0  0  0  0  0  0  0  0  0  0  0
    7.8697    2.4305   10.6602 H   0  0  0  0  0  0  0  0  0  0  0  0
    9.6345    2.9011   10.9333 H   0  0  0  0  0  0  0  0  0  0  0  0
    8.7412    1.8739   12.1032 H   0  0  0  0  0  0  0  0  0  0  0  0
    7.3762    5.7616   11.7069 H   0  0  0  0  0  0  0  0  0  0  0  0
    6.7058    4.3596   10.7673 H   0  0  0  0  0  0  0  0  0  0  0  0
    6.2420    4.5429   12.4703 H   0  0  0  0  0  0  0  0  0  0  0  0
    7.7553    5.9903   13.7086 H   0  0  0  0  0  0  0  0  0  0  0  0
    9.1215    6.6322   15.7170 H   0  0  0  0  0  0  0  0  0  0  0  0
  1  2  2  0
  1  7  1  0
  2  3  1  0
  3  4  2  0
  3 10  1  0
  4  5  1  0
  5  6  1  0
  5  7  2  0
  7  8  1  0
  8  9  3  0
 10 11  1  0
 11 12  2  0
 11 13  1  0
 13 14  1  0
 14 15  2  0
 14 22  1  0
 15 16  1  0
 15 18  1  0
 16 17  1  0
 18 19  2  0
 19 20  1  0
 19 21  1  0
 21 22  2  0
 21 23  1  0
 23 24  1  0
  4 25  1  0
  6 26  1  0
  6 27  1  0
 10 28  1  0
 13 29  1  0
 13 30  1  0
 17 31  1  0
 17 32  1  0
 17 33  1  0
 18 34  1  0
 22 35  1  0
 24 36  1  0
 24 37  1  0
 24 38  1  0
 39 40  2  0
 40 41  1  0
 41 42  2  0
 42 43  1  0
 43 44  1  0
 43 45  1  0
 42 46  1  0
 46 47  2  0
 47 39  1  0
 40 48  1  0
 41 49  1  0
 44 50  1  0
 44 51  1  0
 44 52  1  0
 45 53  1  0
 45 54  1  0
 45 55  1  0
 46 56  1  0
 47 57  1  0
  1 39  1  0
M  END
>  <attachment_point>  (472) 
24

>  <score>  (472) 
<NA>

$$$$
17124-1
     RDKit          3D

 46 47  0  0  0  0  0  0  0  0999 V2000
   21.4127   10.2773   31.6976 C   0  0  0  0  0  0  0  0  0  0  0  0
   21.7567    9.0266   31.2850 N   0  0  0  0  0  0  0  0  0  0  0  0
   20.9811    7.9971   31.6572 C   0  0  0  0  0  0  0  0  0  0  0  0
   19.8706    8.1421   32.4769 C   0  0  0  0  0  0  0  0  0  0  0  0
   19.5217    9.4143   32.8937 C   0  0  0  0  0  0  0  0  0  0  0  0
   18.3827    9.4958   33.6863 N   0  0  0  0  0  0  0  0  0  0  0  0
   20.2923   10.5202   32.5003 C   0  0  0  0  0  0  0  0  0  0  0  0
   19.9657   11.8905   32.8774 C   0  0  0  0  0  0  0  0  0  0  0  0
   19.7135   12.9814   33.1712 N   0  0  0  0  0  0  0  0  0  0  0  0
   21.4435    6.8153   31.1146 N   0  0  0  0  0  0  0  0  0  0  0  0
   20.8639    5.6146   31.0308 C   0  0  0  0  0  0  0  0  0  0  0  0
   19.7396    5.3500   31.4512 O   0  0  0  0  0  0  0  0  0  0  0  0
   21.6499    4.5466   30.2798 C   0  0  0  0  0  0  0  0  0  0  0  0
   23.0247    4.2587   30.8770 C   0  0  0  0  0  0  0  0  0  0  0  0
   24.1218    5.0797   30.5737 C   0  0  0  0  0  0  0  0  0  0  0  0
   23.8940    6.1755   29.7600 O   0  0  0  0  0  0  0  0  0  0  0  0
   24.9260    7.1419   29.5741 C   0  0  0  0  0  0  0  0  0  0  0  0
   25.3756    4.7488   31.1028 C   0  0  0  0  0  0  0  0  0  0  0  0
   25.5283    3.6468   31.9432 C   0  0  0  0  0  0  0  0  0  0  0  0
   27.2648    3.2511   32.6230 Br  0  0  0  0  0  0  0  0  0  0  0  0
   24.4329    2.8399   32.2701 C   0  0  0  0  0  0  0  0  0  0  0  0
   23.1819    3.1565   31.7231 C   0  0  0  0  0  0  0  0  0  0  0  0
   24.6457    1.7801   33.1306 O   0  0  0  0  0  0  0  0  0  0  0  0
   23.7084    0.7066   33.1601 C   0  0  0  0  0  0  0  0  0  0  0  0
    0.0000    0.0000    0.0000 H   0  0  0  0  0  0  0  0  0  0  0  0
    0.0000    0.0000    0.0000 H   0  0  0  0  0  0  0  0  0  0  0  0
    0.0000    0.0000    0.0000 H   0  0  0  0  0  0  0  0  0  0  0  0
    0.0000    0.0000    0.0000 H   0  0  0  0  0  0  0  0  0  0  0  0
    0.0000    0.0000    0.0000 H   0  0  0  0  0  0  0  0  0  0  0  0
    0.0000    0.0000    0.0000 H   0  0  0  0  0  0  0  0  0  0  0  0
    0.0000    0.0000    0.0000 H   0  0  0  0  0  0  0  0  0  0  0  0
    0.0000    0.0000    0.0000 H   0  0  0  0  0  0  0  0  0  0  0  0
    0.0000    0.0000    0.0000 H   0  0  0  0  0  0  0  0  0  0  0  0
    0.0000    0.0000    0.0000 H   0  0  0  0  0  0  0  0  0  0  0  0
    0.0000    0.0000    0.0000 H   0  0  0  0  0  0  0  0  0  0  0  0
    0.0000    0.0000    0.0000 H   0  0  0  0  0  0  0  0  0  0  0  0
    0.0000    0.0000    0.0000 H   0  0  0  0  0  0  0  0  0  0  0  0
    0.0000    0.0000    0.0000 H   0  0  0  0  0  0  0  0  0  0  0  0
   10.4741    5.0272   15.5049 C   0  0  2  0  0  0  0  0  0  0  0  0
   11.2079    4.0230   14.6285 C   0  0  0  0  0  0  0  0  0  0  0  0
   10.0941    6.1225   14.7711 O   0  0  0  0  0  0  0  0  0  0  0  0
    9.5373    4.4998   15.8351 H   0  0  0  0  0  0  0  0  0  0  0  0
   11.9580    4.5757   14.0206 H   0  0  0  0  0  0  0  0  0  0  0  0
   11.6661    3.2306   15.2191 H   0  0  0  0  0  0  0  0  0  0  0  0
   10.4324    3.6350   13.9123 H   0  0  0  0  0  0  0  0  0  0  0  0
   10.4214    6.1488   13.8518 H   0  0  0  0  0  0  0  0  0  0  0  0
  1  2  2  0
  1  7  1  0
  2  3  1  0
  3  4  2  0
  3 10  1  0
  4  5  1  0
  5  6  1  0
  5  7  2  0
  7  8  1  0
  8  9  3  0
 10 11  1  0
 11 12  2  0
 11 13  1  0
 13 14  1  0
 14 15  2  0
 14 22  1  0
 15 16  1  0
 15 18  1  0
 16 17  1  0
 18 19  2  0
 19 20  1  0
 19 21  1  0
 21 22  2  0
 21 23  1  0
 23 24  1  0
  4 25  1  0
  6 26  1  0
  6 27  1  0
 10 28  1  0
 13 29  1  0
 13 30  1  0
 17 31  1  0
 17 32  1  0
 17 33  1  0
 18 34  1  0
 22 35  1  0
 24 36  1  0
 24 37  1  0
 24 38  1  0
 39 40  1  0
 39 41  1  0
 39 42  1  6
 40 43  1  0
 40 44  1  0
 40 45  1  0
 41 46  1  0
  1 39  1  0
M  END
>  <attachment_point>  (473) 
24

>  <score>  (473) 
<NA>

$$$$
17124-1
     RDKit          3D

 51 53  0  0  0  0  0  0  0  0999 V2000
   21.4127   10.2773   31.6976 C   0  0  0  0  0  0  0  0  0  0  0  0
   21.7567    9.0266   31.2850 N   0  0  0  0  0  0  0  0  0  0  0  0
   20.9811    7.9971   31.6572 C   0  0  0  0  0  0  0  0  0  0  0  0
   19.8706    8.1421   32.4769 C   0  0  0  0  0  0  0  0  0  0  0  0
   19.5217    9.4143   32.8937 C   0  0  0  0  0  0  0  0  0  0  0  0
   18.3827    9.4958   33.6863 N   0  0  0  0  0  0  0  0  0  0  0  0
   20.2923   10.5202   32.5003 C   0  0  0  0  0  0  0  0  0  0  0  0
   19.9657   11.8905   32.8774 C   0  0  0  0  0  0  0  0  0  0  0  0
   19.7135   12.9814   33.1712 N   0  0  0  0  0  0  0  0  0  0  0  0
   21.4435    6.8153   31.1146 N   0  0  0  0  0  0  0  0  0  0  0  0
   20.8639    5.6146   31.0308 C   0  0  0  0  0  0  0  0  0  0  0  0
   19.7396    5.3500   31.4512 O   0  0  0  0  0  0  0  0  0  0  0  0
   21.6499    4.5466   30.2798 C   0  0  0  0  0  0  0  0  0  0  0  0
   23.0247    4.2587   30.8770 C   0  0  0  0  0  0  0  0  0  0  0  0
   24.1218    5.0797   30.5737 C   0  0  0  0  0  0  0  0  0  0  0  0
   23.8940    6.1755   29.7600 O   0  0  0  0  0  0  0  0  0  0  0  0
   24.9260    7.1419   29.5741 C   0  0  0  0  0  0  0  0  0  0  0  0
   25.3756    4.7488   31.1028 C   0  0  0  0  0  0  0  0  0  0  0  0
   25.5283    3.6468   31.9432 C   0  0  0  0  0  0  0  0  0  0  0  0
   27.2648    3.2511   32.6230 Br  0  0  0  0  0  0  0  0  0  0  0  0
   24.4329    2.8399   32.2701 C   0  0  0  0  0  0  0  0  0  0  0  0
   23.1819    3.1565   31.7231 C   0  0  0  0  0  0  0  0  0  0  0  0
   24.6457    1.7801   33.1306 O   0  0  0  0  0  0  0  0  0  0  0  0
   23.7084    0.7066   33.1601 C   0  0  0  0  0  0  0  0  0  0  0  0
    0.0000    0.0000    0.0000 H   0  0  0  0  0  0  0  0  0  0  0  0
    0.0000    0.0000    0.0000 H   0  0  0  0  0  0  0  0  0  0  0  0
    0.0000    0.0000    0.0000 H   0  0  0  0  0  0  0  0  0  0  0  0
    0.0000    0.0000    0.0000 H   0  0  0  0  0  0  0  0  0  0  0  0
    0.0000    0.0000    0.0000 H   0  0  0  0  0  0  0  0  0  0  0  0
    0.0000    0.0000    0.0000 H   0  0  0  0  0  0  0  0  0  0  0  0
    0.0000    0.0000    0.0000 H   0  0  0  0  0  0  0  0  0  0  0  0
    0.0000    0.0000    0.0000 H   0  0  0  0  0  0  0  0  0  0  0  0
    0.0000    0.0000    0.0000 H   0  0  0  0  0  0  0  0  0  0  0  0
    0.0000    0.0000    0.0000 H   0  0  0  0  0  0  0  0  0  0  0  0
    0.0000    0.0000    0.0000 H   0  0  0  0  0  0  0  0  0  0  0  0
    0.0000    0.0000    0.0000 H   0  0  0  0  0  0  0  0  0  0  0  0
    0.0000    0.0000    0.0000 H   0  0  0  0  0  0  0  0  0  0  0  0
    0.0000    0.0000    0.0000 H   0  0  0  0  0  0  0  0  0  0  0  0
   10.3770    4.9806   15.3613 C   0  0  0  0  0  0  0  0  0  0  0  0
    9.6100    4.5914   14.1874 C   0  0  0  0  0  0  0  0  0  0  0  0
    9.0485    4.2876   13.3004 C   0  0  0  0  0  0  0  0  0  0  0  0
    9.6840    4.2382   11.9372 C   0  0  0  0  0  0  0  0  0  0  0  0
    8.8656    3.7685   11.0290 C   0  0  0  0  0  0  0  0  0  0  0  0
    7.6269    3.3119   10.9303 C   0  0  0  0  0  0  0  0  0  0  0  0
    6.9698    3.3495   12.2096 C   0  0  0  0  0  0  0  0  0  0  0  0
    7.6470    3.8169   13.3188 C   0  0  0  0  0  0  0  0  0  0  0  0
   10.6693    4.6477   11.9125 H   0  0  0  0  0  0  0  0  0  0  0  0
    9.4032    3.7337    9.9383 H   0  0  0  0  0  0  0  0  0  0  0  0
    7.0732    2.9374   10.1608 H   0  0  0  0  0  0  0  0  0  0  0  0
    5.9896    2.9531   12.3718 H   0  0  0  0  0  0  0  0  0  0  0  0
    7.1916    3.9781   14.2679 H   0  0  0  0  0  0  0  0  0  0  0  0
  1  2  2  0
  1  7  1  0
  2  3  1  0
  3  4  2  0
  3 10  1  0
  4  5  1  0
  5  6  1  0
  5  7  2  0
  7  8  1  0
  8  9  3  0
 10 11  1  0
 11 12  2  0
 11 13  1  0
 13 14  1  0
 14 15  2  0
 14 22  1  0
 15 16  1  0
 15 18  1  0
 16 17  1  0
 18 19  2  0
 19 20  1  0
 19 21  1  0
 21 22  2  0
 21 23  1  0
 23 24  1  0
  4 25  1  0
  6 26  1  0
  6 27  1  0
 10 28  1  0
 13 29  1  0
 13 30  1  0
 17 31  1  0
 17 32  1  0
 17 33  1  0
 18 34  1  0
 22 35  1  0
 24 36  1  0
 24 37  1  0
 24 38  1  0
 39 40  3  0
 40 41  1  0
 41 42  2  0
 42 43  1  0
 43 44  2  0
 44 45  1  0
 45 46  2  0
 46 41  1  0
 42 47  1  0
 43 48  1  0
 44 49  1  0
 45 50  1  0
 46 51  1  0
  1 39  1  0
M  END
>  <attachment_point>  (474) 
24

>  <score>  (474) 
<NA>

$$$$
17124-1
     RDKit          3D

 54 56  0  0  0  0  0  0  0  0999 V2000
   21.4127   10.2773   31.6976 C   0  0  0  0  0  0  0  0  0  0  0  0
   21.7567    9.0266   31.2850 N   0  0  0  0  0  0  0  0  0  0  0  0
   20.9811    7.9971   31.6572 C   0  0  0  0  0  0  0  0  0  0  0  0
   19.8706    8.1421   32.4769 C   0  0  0  0  0  0  0  0  0  0  0  0
   19.5217    9.4143   32.8937 C   0  0  0  0  0  0  0  0  0  0  0  0
   18.3827    9.4958   33.6863 N   0  0  0  0  0  0  0  0  0  0  0  0
   20.2923   10.5202   32.5003 C   0  0  0  0  0  0  0  0  0  0  0  0
   19.9657   11.8905   32.8774 C   0  0  0  0  0  0  0  0  0  0  0  0
   19.7135   12.9814   33.1712 N   0  0  0  0  0  0  0  0  0  0  0  0
   21.4435    6.8153   31.1146 N   0  0  0  0  0  0  0  0  0  0  0  0
   20.8639    5.6146   31.0308 C   0  0  0  0  0  0  0  0  0  0  0  0
   19.7396    5.3500   31.4512 O   0  0  0  0  0  0  0  0  0  0  0  0
   21.6499    4.5466   30.2798 C   0  0  0  0  0  0  0  0  0  0  0  0
   23.0247    4.2587   30.8770 C   0  0  0  0  0  0  0  0  0  0  0  0
   24.1218    5.0797   30.5737 C   0  0  0  0  0  0  0  0  0  0  0  0
   23.8940    6.1755   29.7600 O   0  0  0  0  0  0  0  0  0  0  0  0
   24.9260    7.1419   29.5741 C   0  0  0  0  0  0  0  0  0  0  0  0
   25.3756    4.7488   31.1028 C   0  0  0  0  0  0  0  0  0  0  0  0
   25.5283    3.6468   31.9432 C   0  0  0  0  0  0  0  0  0  0  0  0
   27.2648    3.2511   32.6230 Br  0  0  0  0  0  0  0  0  0  0  0  0
   24.4329    2.8399   32.2701 C   0  0  0  0  0  0  0  0  0  0  0  0
   23.1819    3.1565   31.7231 C   0  0  0  0  0  0  0  0  0  0  0  0
   24.6457    1.7801   33.1306 O   0  0  0  0  0  0  0  0  0  0  0  0
   23.7084    0.7066   33.1601 C   0  0  0  0  0  0  0  0  0  0  0  0
    0.0000    0.0000    0.0000 H   0  0  0  0  0  0  0  0  0  0  0  0
    0.0000    0.0000    0.0000 H   0  0  0  0  0  0  0  0  0  0  0  0
    0.0000    0.0000    0.0000 H   0  0  0  0  0  0  0  0  0  0  0  0
    0.0000    0.0000    0.0000 H   0  0  0  0  0  0  0  0  0  0  0  0
    0.0000    0.0000    0.0000 H   0  0  0  0  0  0  0  0  0  0  0  0
    0.0000    0.0000    0.0000 H   0  0  0  0  0  0  0  0  0  0  0  0
    0.0000    0.0000    0.0000 H   0  0  0  0  0  0  0  0  0  0  0  0
    0.0000    0.0000    0.0000 H   0  0  0  0  0  0  0  0  0  0  0  0
    0.0000    0.0000    0.0000 H   0  0  0  0  0  0  0  0  0  0  0  0
    0.0000    0.0000    0.0000 H   0  0  0  0  0  0  0  0  0  0  0  0
    0.0000    0.0000    0.0000 H   0  0  0  0  0  0  0  0  0  0  0  0
    0.0000    0.0000    0.0000 H   0  0  0  0  0  0  0  0  0  0  0  0
    0.0000    0.0000    0.0000 H   0  0  0  0  0  0  0  0  0  0  0  0
    0.0000    0.0000    0.0000 H   0  0  0  0  0  0  0  0  0  0  0  0
   10.4641    5.0224   15.4902 C   0  0  0  0  0  0  0  0  0  0  0  0
   10.6802    5.6241   14.2895 C   0  0  0  0  0  0  0  0  0  0  0  0
    9.9671    5.3121   13.1413 C   0  0  0  0  0  0  0  0  0  0  0  0
    8.9897    4.3261   13.2721 C   0  0  0  0  0  0  0  0  0  0  0  0
    8.0151    3.8368   11.8944 S   0  0  0  0  0  6  0  0  0  0  0  0
    8.8052    2.5370   11.0798 N   0  0  0  0  0  0  0  0  0  0  0  0
    6.7074    3.3565   12.4050 O   0  0  0  0  0  0  0  0  0  0  0  0
    7.7891    5.0102   10.9556 O   0  0  0  0  0  0  0  0  0  0  0  0
    8.7645    3.7112   14.4856 C   0  0  0  0  0  0  0  0  0  0  0  0
    9.5033    4.0551   15.6128 C   0  0  0  0  0  0  0  0  0  0  0  0
   11.4460    6.3934   14.1974 H   0  0  0  0  0  0  0  0  0  0  0  0
   10.1220    5.7723   12.1930 H   0  0  0  0  0  0  0  0  0  0  0  0
    8.1298    2.0659   10.4467 H   0  0  0  0  0  0  0  0  0  0  0  0
    9.6639    2.8864   10.5821 H   0  0  0  0  0  0  0  0  0  0  0  0
    7.9981    2.9374   14.5907 H   0  0  0  0  0  0  0  0  0  0  0  0
    9.2820    3.5393   16.5354 H   0  0  0  0  0  0  0  0  0  0  0  0
  1  2  2  0
  1  7  1  0
  2  3  1  0
  3  4  2  0
  3 10  1  0
  4  5  1  0
  5  6  1  0
  5  7  2  0
  7  8  1  0
  8  9  3  0
 10 11  1  0
 11 12  2  0
 11 13  1  0
 13 14  1  0
 14 15  2  0
 14 22  1  0
 15 16  1  0
 15 18  1  0
 16 17  1  0
 18 19  2  0
 19 20  1  0
 19 21  1  0
 21 22  2  0
 21 23  1  0
 23 24  1  0
  4 25  1  0
  6 26  1  0
  6 27  1  0
 10 28  1  0
 13 29  1  0
 13 30  1  0
 17 31  1  0
 17 32  1  0
 17 33  1  0
 18 34  1  0
 22 35  1  0
 24 36  1  0
 24 37  1  0
 24 38  1  0
 39 40  2  0
 40 41  1  0
 41 42  2  0
 42 43  1  0
 43 44  1  0
 43 45  2  0
 43 46  2  0
 42 47  1  0
 47 48  2  0
 48 39  1  0
 40 49  1  0
 41 50  1  0
 44 51  1  0
 44 52  1  0
 47 53  1  0
 48 54  1  0
  1 39  1  0
M  END
>  <attachment_point>  (475) 
24

>  <score>  (475) 
<NA>

$$$$
17124-1
     RDKit          3D

 50 52  0  0  0  0  0  0  0  0999 V2000
   21.4127   10.2773   31.6976 C   0  0  0  0  0  0  0  0  0  0  0  0
   21.7567    9.0266   31.2850 N   0  0  0  0  0  0  0  0  0  0  0  0
   20.9811    7.9971   31.6572 C   0  0  0  0  0  0  0  0  0  0  0  0
   19.8706    8.1421   32.4769 C   0  0  0  0  0  0  0  0  0  0  0  0
   19.5217    9.4143   32.8937 C   0  0  0  0  0  0  0  0  0  0  0  0
   18.3827    9.4958   33.6863 N   0  0  0  0  0  0  0  0  0  0  0  0
   20.2923   10.5202   32.5003 C   0  0  0  0  0  0  0  0  0  0  0  0
   19.9657   11.8905   32.8774 C   0  0  0  0  0  0  0  0  0  0  0  0
   19.7135   12.9814   33.1712 N   0  0  0  0  0  0  0  0  0  0  0  0
   21.4435    6.8153   31.1146 N   0  0  0  0  0  0  0  0  0  0  0  0
   20.8639    5.6146   31.0308 C   0  0  0  0  0  0  0  0  0  0  0  0
   19.7396    5.3500   31.4512 O   0  0  0  0  0  0  0  0  0  0  0  0
   21.6499    4.5466   30.2798 C   0  0  0  0  0  0  0  0  0  0  0  0
   23.0247    4.2587   30.8770 C   0  0  0  0  0  0  0  0  0  0  0  0
   24.1218    5.0797   30.5737 C   0  0  0  0  0  0  0  0  0  0  0  0
   23.8940    6.1755   29.7600 O   0  0  0  0  0  0  0  0  0  0  0  0
   24.9260    7.1419   29.5741 C   0  0  0  0  0  0  0  0  0  0  0  0
   25.3756    4.7488   31.1028 C   0  0  0  0  0  0  0  0  0  0  0  0
   25.5283    3.6468   31.9432 C   0  0  0  0  0  0  0  0  0  0  0  0
   27.2648    3.2511   32.6230 Br  0  0  0  0  0  0  0  0  0  0  0  0
   24.4329    2.8399   32.2701 C   0  0  0  0  0  0  0  0  0  0  0  0
   23.1819    3.1565   31.7231 C   0  0  0  0  0  0  0  0  0  0  0  0
   24.6457    1.7801   33.1306 O   0  0  0  0  0  0  0  0  0  0  0  0
   23.7084    0.7066   33.1601 C   0  0  0  0  0  0  0  0  0  0  0  0
    0.0000    0.0000    0.0000 H   0  0  0  0  0  0  0  0  0  0  0  0
    0.0000    0.0000    0.0000 H   0  0  0  0  0  0  0  0  0  0  0  0
    0.0000    0.0000    0.0000 H   0  0  0  0  0  0  0  0  0  0  0  0
    0.0000    0.0000    0.0000 H   0  0  0  0  0  0  0  0  0  0  0  0
    0.0000    0.0000    0.0000 H   0  0  0  0  0  0  0  0  0  0  0  0
    0.0000    0.0000    0.0000 H   0  0  0  0  0  0  0  0  0  0  0  0
    0.0000    0.0000    0.0000 H   0  0  0  0  0  0  0  0  0  0  0  0
    0.0000    0.0000    0.0000 H   0  0  0  0  0  0  0  0  0  0  0  0
    0.0000    0.0000    0.0000 H   0  0  0  0  0  0  0  0  0  0  0  0
    0.0000    0.0000    0.0000 H   0  0  0  0  0  0  0  0  0  0  0  0
    0.0000    0.0000    0.0000 H   0  0  0  0  0  0  0  0  0  0  0  0
    0.0000    0.0000    0.0000 H   0  0  0  0  0  0  0  0  0  0  0  0
    0.0000    0.0000    0.0000 H   0  0  0  0  0  0  0  0  0  0  0  0
    0.0000    0.0000    0.0000 H   0  0  0  0  0  0  0  0  0  0  0  0
   10.5244    5.0513   15.5795 S   0  0  0  0  0  0  0  0  0  0  0  0
   10.9508    4.4961   13.9542 C   0  0  0  0  0  0  0  0  0  0  0  0
    9.9681    4.2009   13.0235 C   0  0  0  0  0  0  0  0  0  0  0  0
   10.2929    3.7685   11.7573 C   0  0  0  0  0  0  0  0  0  0  0  0
   11.6391    3.6286   11.4161 C   0  0  0  0  0  0  0  0  0  0  0  0
   12.6035    3.9267   12.3546 C   0  0  0  0  0  0  0  0  0  0  0  0
   12.3007    4.3634   13.6344 C   0  0  0  0  0  0  0  0  0  0  0  0
    8.9155    4.2981   13.2541 H   0  0  0  0  0  0  0  0  0  0  0  0
    9.5659    3.5251   10.9945 H   0  0  0  0  0  0  0  0  0  0  0  0
   11.9312    3.2853   10.4126 H   0  0  0  0  0  0  0  0  0  0  0  0
   13.6362    3.8255   12.1110 H   0  0  0  0  0  0  0  0  0  0  0  0
   13.0813    4.5909   14.3532 H   0  0  0  0  0  0  0  0  0  0  0  0
  1  2  2  0
  1  7  1  0
  2  3  1  0
  3  4  2  0
  3 10  1  0
  4  5  1  0
  5  6  1  0
  5  7  2  0
  7  8  1  0
  8  9  3  0
 10 11  1  0
 11 12  2  0
 11 13  1  0
 13 14  1  0
 14 15  2  0
 14 22  1  0
 15 16  1  0
 15 18  1  0
 16 17  1  0
 18 19  2  0
 19 20  1  0
 19 21  1  0
 21 22  2  0
 21 23  1  0
 23 24  1  0
  4 25  1  0
  6 26  1  0
  6 27  1  0
 10 28  1  0
 13 29  1  0
 13 30  1  0
 17 31  1  0
 17 32  1  0
 17 33  1  0
 18 34  1  0
 22 35  1  0
 24 36  1  0
 24 37  1  0
 24 38  1  0
 39 40  1  0
 40 41  2  0
 41 42  1  0
 42 43  2  0
 43 44  1  0
 44 45  2  0
 45 40  1  0
 41 46  1  0
 42 47  1  0
 43 48  1  0
 44 49  1  0
 45 50  1  0
  1 39  1  0
M  END
>  <attachment_point>  (476) 
24

>  <score>  (476) 
<NA>

$$$$
17124-1
     RDKit          3D

 55 57  0  0  0  0  0  0  0  0999 V2000
   21.4127   10.2773   31.6976 C   0  0  0  0  0  0  0  0  0  0  0  0
   21.7567    9.0266   31.2850 N   0  0  0  0  0  0  0  0  0  0  0  0
   20.9811    7.9971   31.6572 C   0  0  0  0  0  0  0  0  0  0  0  0
   19.8706    8.1421   32.4769 C   0  0  0  0  0  0  0  0  0  0  0  0
   19.5217    9.4143   32.8937 C   0  0  0  0  0  0  0  0  0  0  0  0
   18.3827    9.4958   33.6863 N   0  0  0  0  0  0  0  0  0  0  0  0
   20.2923   10.5202   32.5003 C   0  0  0  0  0  0  0  0  0  0  0  0
   19.9657   11.8905   32.8774 C   0  0  0  0  0  0  0  0  0  0  0  0
   19.7135   12.9814   33.1712 N   0  0  0  0  0  0  0  0  0  0  0  0
   21.4435    6.8153   31.1146 N   0  0  0  0  0  0  0  0  0  0  0  0
   20.8639    5.6146   31.0308 C   0  0  0  0  0  0  0  0  0  0  0  0
   19.7396    5.3500   31.4512 O   0  0  0  0  0  0  0  0  0  0  0  0
   21.6499    4.5466   30.2798 C   0  0  0  0  0  0  0  0  0  0  0  0
   23.0247    4.2587   30.8770 C   0  0  0  0  0  0  0  0  0  0  0  0
   24.1218    5.0797   30.5737 C   0  0  0  0  0  0  0  0  0  0  0  0
   23.8940    6.1755   29.7600 O   0  0  0  0  0  0  0  0  0  0  0  0
   24.9260    7.1419   29.5741 C   0  0  0  0  0  0  0  0  0  0  0  0
   25.3756    4.7488   31.1028 C   0  0  0  0  0  0  0  0  0  0  0  0
   25.5283    3.6468   31.9432 C   0  0  0  0  0  0  0  0  0  0  0  0
   27.2648    3.2511   32.6230 Br  0  0  0  0  0  0  0  0  0  0  0  0
   24.4329    2.8399   32.2701 C   0  0  0  0  0  0  0  0  0  0  0  0
   23.1819    3.1565   31.7231 C   0  0  0  0  0  0  0  0  0  0  0  0
   24.6457    1.7801   33.1306 O   0  0  0  0  0  0  0  0  0  0  0  0
   23.7084    0.7066   33.1601 C   0  0  0  0  0  0  0  0  0  0  0  0
    0.0000    0.0000    0.0000 H   0  0  0  0  0  0  0  0  0  0  0  0
    0.0000    0.0000    0.0000 H   0  0  0  0  0  0  0  0  0  0  0  0
    0.0000    0.0000    0.0000 H   0  0  0  0  0  0  0  0  0  0  0  0
    0.0000    0.0000    0.0000 H   0  0  0  0  0  0  0  0  0  0  0  0
    0.0000    0.0000    0.0000 H   0  0  0  0  0  0  0  0  0  0  0  0
    0.0000    0.0000    0.0000 H   0  0  0  0  0  0  0  0  0  0  0  0
    0.0000    0.0000    0.0000 H   0  0  0  0  0  0  0  0  0  0  0  0
    0.0000    0.0000    0.0000 H   0  0  0  0  0  0  0  0  0  0  0  0
    0.0000    0.0000    0.0000 H   0  0  0  0  0  0  0  0  0  0  0  0
    0.0000    0.0000    0.0000 H   0  0  0  0  0  0  0  0  0  0  0  0
    0.0000    0.0000    0.0000 H   0  0  0  0  0  0  0  0  0  0  0  0
    0.0000    0.0000    0.0000 H   0  0  0  0  0  0  0  0  0  0  0  0
    0.0000    0.0000    0.0000 H   0  0  0  0  0  0  0  0  0  0  0  0
    0.0000    0.0000    0.0000 H   0  0  0  0  0  0  0  0  0  0  0  0
   10.4240    5.0031   15.4308 C   0  0  0  0  0  0  0  0  0  0  0  0
    9.6781    5.9634   14.8710 C   0  0  0  0  0  0  0  0  0  0  0  0
    8.8894    5.6621   13.7354 C   0  0  0  0  0  0  0  0  0  0  0  0
    8.9458    4.3693   13.2740 C   0  0  0  0  0  0  0  0  0  0  0  0
    8.0024    3.8951   11.8688 S   0  0  0  0  0  6  0  0  0  0  0  0
    8.9756    4.1521   10.4000 C   0  0  0  0  0  0  0  0  0  0  0  0
    7.6852    2.4339   11.9549 O   0  0  0  0  0  0  0  0  0  0  0  0
    6.7643    4.7382   11.7288 O   0  0  0  0  0  0  0  0  0  0  0  0
    9.7310    3.4252   13.8910 C   0  0  0  0  0  0  0  0  0  0  0  0
   10.5141    3.7364   15.0236 C   0  0  0  0  0  0  0  0  0  0  0  0
    9.6341    6.9807   15.2345 H   0  0  0  0  0  0  0  0  0  0  0  0
    8.2906    6.4398   13.2886 H   0  0  0  0  0  0  0  0  0  0  0  0
    9.9131    3.5533   10.4100 H   0  0  0  0  0  0  0  0  0  0  0  0
    8.3451    3.9238    9.5111 H   0  0  0  0  0  0  0  0  0  0  0  0
    9.2604    5.2224   10.3299 H   0  0  0  0  0  0  0  0  0  0  0  0
    9.7907    2.3868   13.5389 H   0  0  0  0  0  0  0  0  0  0  0  0
   11.1313    2.9604   15.4944 H   0  0  0  0  0  0  0  0  0  0  0  0
  1  2  2  0
  1  7  1  0
  2  3  1  0
  3  4  2  0
  3 10  1  0
  4  5  1  0
  5  6  1  0
  5  7  2  0
  7  8  1  0
  8  9  3  0
 10 11  1  0
 11 12  2  0
 11 13  1  0
 13 14  1  0
 14 15  2  0
 14 22  1  0
 15 16  1  0
 15 18  1  0
 16 17  1  0
 18 19  2  0
 19 20  1  0
 19 21  1  0
 21 22  2  0
 21 23  1  0
 23 24  1  0
  4 25  1  0
  6 26  1  0
  6 27  1  0
 10 28  1  0
 13 29  1  0
 13 30  1  0
 17 31  1  0
 17 32  1  0
 17 33  1  0
 18 34  1  0
 22 35  1  0
 24 36  1  0
 24 37  1  0
 24 38  1  0
 39 40  2  0
 40 41  1  0
 41 42  2  0
 42 43  1  0
 43 44  1  0
 43 45  2  0
 43 46  2  0
 42 47  1  0
 47 48  2  0
 48 39  1  0
 40 49  1  0
 41 50  1  0
 44 51  1  0
 44 52  1  0
 44 53  1  0
 47 54  1  0
 48 55  1  0
  1 39  1  0
M  END
>  <attachment_point>  (477) 
24

>  <score>  (477) 
<NA>

$$$$
17124-1
     RDKit          3D

 59 62  0  0  0  0  0  0  0  0999 V2000
   21.4127   10.2773   31.6976 C   0  0  0  0  0  0  0  0  0  0  0  0
   21.7567    9.0266   31.2850 N   0  0  0  0  0  0  0  0  0  0  0  0
   20.9811    7.9971   31.6572 C   0  0  0  0  0  0  0  0  0  0  0  0
   19.8706    8.1421   32.4769 C   0  0  0  0  0  0  0  0  0  0  0  0
   19.5217    9.4143   32.8937 C   0  0  0  0  0  0  0  0  0  0  0  0
   18.3827    9.4958   33.6863 N   0  0  0  0  0  0  0  0  0  0  0  0
   20.2923   10.5202   32.5003 C   0  0  0  0  0  0  0  0  0  0  0  0
   19.9657   11.8905   32.8774 C   0  0  0  0  0  0  0  0  0  0  0  0
   19.7135   12.9814   33.1712 N   0  0  0  0  0  0  0  0  0  0  0  0
   21.4435    6.8153   31.1146 N   0  0  0  0  0  0  0  0  0  0  0  0
   20.8639    5.6146   31.0308 C   0  0  0  0  0  0  0  0  0  0  0  0
   19.7396    5.3500   31.4512 O   0  0  0  0  0  0  0  0  0  0  0  0
   21.6499    4.5466   30.2798 C   0  0  0  0  0  0  0  0  0  0  0  0
   23.0247    4.2587   30.8770 C   0  0  0  0  0  0  0  0  0  0  0  0
   24.1218    5.0797   30.5737 C   0  0  0  0  0  0  0  0  0  0  0  0
   23.8940    6.1755   29.7600 O   0  0  0  0  0  0  0  0  0  0  0  0
   24.9260    7.1419   29.5741 C   0  0  0  0  0  0  0  0  0  0  0  0
   25.3756    4.7488   31.1028 C   0  0  0  0  0  0  0  0  0  0  0  0
   25.5283    3.6468   31.9432 C   0  0  0  0  0  0  0  0  0  0  0  0
   27.2648    3.2511   32.6230 Br  0  0  0  0  0  0  0  0  0  0  0  0
   24.4329    2.8399   32.2701 C   0  0  0  0  0  0  0  0  0  0  0  0
   23.1819    3.1565   31.7231 C   0  0  0  0  0  0  0  0  0  0  0  0
   24.6457    1.7801   33.1306 O   0  0  0  0  0  0  0  0  0  0  0  0
   23.7084    0.7066   33.1601 C   0  0  0  0  0  0  0  0  0  0  0  0
    0.0000    0.0000    0.0000 H   0  0  0  0  0  0  0  0  0  0  0  0
    0.0000    0.0000    0.0000 H   0  0  0  0  0  0  0  0  0  0  0  0
    0.0000    0.0000    0.0000 H   0  0  0  0  0  0  0  0  0  0  0  0
    0.0000    0.0000    0.0000 H   0  0  0  0  0  0  0  0  0  0  0  0
    0.0000    0.0000    0.0000 H   0  0  0  0  0  0  0  0  0  0  0  0
    0.0000    0.0000    0.0000 H   0  0  0  0  0  0  0  0  0  0  0  0
    0.0000    0.0000    0.0000 H   0  0  0  0  0  0  0  0  0  0  0  0
    0.0000    0.0000    0.0000 H   0  0  0  0  0  0  0  0  0  0  0  0
    0.0000    0.0000    0.0000 H   0  0  0  0  0  0  0  0  0  0  0  0
    0.0000    0.0000    0.0000 H   0  0  0  0  0  0  0  0  0  0  0  0
    0.0000    0.0000    0.0000 H   0  0  0  0  0  0  0  0  0  0  0  0
    0.0000    0.0000    0.0000 H   0  0  0  0  0  0  0  0  0  0  0  0
    0.0000    0.0000    0.0000 H   0  0  0  0  0  0  0  0  0  0  0  0
    0.0000    0.0000    0.0000 H   0  0  0  0  0  0  0  0  0  0  0  0
   10.4653    5.0229   15.4919 C   0  0  0  0  0  0  0  0  0  0  0  0
    9.1551    5.4338   15.3517 C   0  0  0  0  0  0  0  0  0  0  0  0
    8.4010    5.0813   14.2516 C   0  0  0  0  0  0  0  0  0  0  0  0
    9.0002    4.2998   13.2882 C   0  0  0  0  0  0  0  0  0  0  0  0
    8.2528    3.8962   12.1035 C   0  0  0  0  0  0  0  0  0  0  0  0
    8.8313    3.6862   10.8695 C   0  0  0  0  0  0  0  0  0  0  0  0
    8.1126    3.3052    9.7594 C   0  0  0  0  0  0  0  0  0  0  0  0
    6.7557    3.1273    9.8935 C   0  0  0  0  0  0  0  0  0  0  0  0
    6.1268    3.3253   11.1104 C   0  0  0  0  0  0  0  0  0  0  0  0
    6.8901    3.7056   12.1889 C   0  0  0  0  0  0  0  0  0  0  0  0
   10.3101    3.8976   13.4432 C   0  0  0  0  0  0  0  0  0  0  0  0
   11.0723    4.2393   14.5299 C   0  0  0  0  0  0  0  0  0  0  0  0
    8.7197    6.0537   16.1417 H   0  0  0  0  0  0  0  0  0  0  0  0
    7.3597    5.4180   14.1578 H   0  0  0  0  0  0  0  0  0  0  0  0
    9.9037    3.8261   10.7600 H   0  0  0  0  0  0  0  0  0  0  0  0
    8.5885    3.1428    8.7869 H   0  0  0  0  0  0  0  0  0  0  0  0
    6.1754    2.8232    9.0120 H   0  0  0  0  0  0  0  0  0  0  0  0
    5.0398    3.1741   11.1816 H   0  0  0  0  0  0  0  0  0  0  0  0
    6.4114    3.8633   13.1442 H   0  0  0  0  0  0  0  0  0  0  0  0
   10.7865    3.2764   12.6769 H   0  0  0  0  0  0  0  0  0  0  0  0
   12.0984    3.9473   14.6912 H   0  0  0  0  0  0  0  0  0  0  0  0
  1  2  2  0
  1  7  1  0
  2  3  1  0
  3  4  2  0
  3 10  1  0
  4  5  1  0
  5  6  1  0
  5  7  2  0
  7  8  1  0
  8  9  3  0
 10 11  1  0
 11 12  2  0
 11 13  1  0
 13 14  1  0
 14 15  2  0
 14 22  1  0
 15 16  1  0
 15 18  1  0
 16 17  1  0
 18 19  2  0
 19 20  1  0
 19 21  1  0
 21 22  2  0
 21 23  1  0
 23 24  1  0
  4 25  1  0
  6 26  1  0
  6 27  1  0
 10 28  1  0
 13 29  1  0
 13 30  1  0
 17 31  1  0
 17 32  1  0
 17 33  1  0
 18 34  1  0
 22 35  1  0
 24 36  1  0
 24 37  1  0
 24 38  1  0
 39 40  2  0
 40 41  1  0
 41 42  2  0
 42 43  1  0
 43 44  2  0
 44 45  1  0
 45 46  2  0
 46 47  1  0
 47 48  2  0
 42 49  1  0
 49 50  2  0
 50 39  1  0
 48 43  1  0
 40 51  1  0
 41 52  1  0
 44 53  1  0
 45 54  1  0
 46 55  1  0
 47 56  1  0
 48 57  1  0
 49 58  1  0
 50 59  1  0
  1 39  1  0
M  END
>  <attachment_point>  (478) 
24

>  <score>  (478) 
<NA>

$$$$
17124-1
     RDKit          3D

 55 57  0  0  0  0  0  0  0  0999 V2000
   21.4127   10.2773   31.6976 C   0  0  0  0  0  0  0  0  0  0  0  0
   21.7567    9.0266   31.2850 N   0  0  0  0  0  0  0  0  0  0  0  0
   20.9811    7.9971   31.6572 C   0  0  0  0  0  0  0  0  0  0  0  0
   19.8706    8.1421   32.4769 C   0  0  0  0  0  0  0  0  0  0  0  0
   19.5217    9.4143   32.8937 C   0  0  0  0  0  0  0  0  0  0  0  0
   18.3827    9.4958   33.6863 N   0  0  0  0  0  0  0  0  0  0  0  0
   20.2923   10.5202   32.5003 C   0  0  0  0  0  0  0  0  0  0  0  0
   19.9657   11.8905   32.8774 C   0  0  0  0  0  0  0  0  0  0  0  0
   19.7135   12.9814   33.1712 N   0  0  0  0  0  0  0  0  0  0  0  0
   21.4435    6.8153   31.1146 N   0  0  0  0  0  0  0  0  0  0  0  0
   20.8639    5.6146   31.0308 C   0  0  0  0  0  0  0  0  0  0  0  0
   19.7396    5.3500   31.4512 O   0  0  0  0  0  0  0  0  0  0  0  0
   21.6499    4.5466   30.2798 C   0  0  0  0  0  0  0  0  0  0  0  0
   23.0247    4.2587   30.8770 C   0  0  0  0  0  0  0  0  0  0  0  0
   24.1218    5.0797   30.5737 C   0  0  0  0  0  0  0  0  0  0  0  0
   23.8940    6.1755   29.7600 O   0  0  0  0  0  0  0  0  0  0  0  0
   24.9260    7.1419   29.5741 C   0  0  0  0  0  0  0  0  0  0  0  0
   25.3756    4.7488   31.1028 C   0  0  0  0  0  0  0  0  0  0  0  0
   25.5283    3.6468   31.9432 C   0  0  0  0  0  0  0  0  0  0  0  0
   27.2648    3.2511   32.6230 Br  0  0  0  0  0  0  0  0  0  0  0  0
   24.4329    2.8399   32.2701 C   0  0  0  0  0  0  0  0  0  0  0  0
   23.1819    3.1565   31.7231 C   0  0  0  0  0  0  0  0  0  0  0  0
   24.6457    1.7801   33.1306 O   0  0  0  0  0  0  0  0  0  0  0  0
   23.7084    0.7066   33.1601 C   0  0  0  0  0  0  0  0  0  0  0  0
    0.0000    0.0000    0.0000 H   0  0  0  0  0  0  0  0  0  0  0  0
    0.0000    0.0000    0.0000 H   0  0  0  0  0  0  0  0  0  0  0  0
    0.0000    0.0000    0.0000 H   0  0  0  0  0  0  0  0  0  0  0  0
    0.0000    0.0000    0.0000 H   0  0  0  0  0  0  0  0  0  0  0  0
    0.0000    0.0000    0.0000 H   0  0  0  0  0  0  0  0  0  0  0  0
    0.0000    0.0000    0.0000 H   0  0  0  0  0  0  0  0  0  0  0  0
    0.0000    0.0000    0.0000 H   0  0  0  0  0  0  0  0  0  0  0  0
    0.0000    0.0000    0.0000 H   0  0  0  0  0  0  0  0  0  0  0  0
    0.0000    0.0000    0.0000 H   0  0  0  0  0  0  0  0  0  0  0  0
    0.0000    0.0000    0.0000 H   0  0  0  0  0  0  0  0  0  0  0  0
    0.0000    0.0000    0.0000 H   0  0  0  0  0  0  0  0  0  0  0  0
    0.0000    0.0000    0.0000 H   0  0  0  0  0  0  0  0  0  0  0  0
    0.0000    0.0000    0.0000 H   0  0  0  0  0  0  0  0  0  0  0  0
    0.0000    0.0000    0.0000 H   0  0  0  0  0  0  0  0  0  0  0  0
   10.4383    5.0100   15.4520 C   0  0  0  0  0  0  0  0  0  0  0  0
   10.6123    5.6961   14.3108 C   0  0  0  0  0  0  0  0  0  0  0  0
    9.8532    5.3319   13.1868 C   0  0  0  0  0  0  0  0  0  0  0  0
    8.9564    4.2902   13.2781 C   0  0  0  0  0  0  0  0  0  0  0  0
    8.1873    3.9535   12.0648 C   0  0  0  0  0  0  0  0  0  0  0  0
    6.9032    4.6711   11.9158 C   0  0  0  0  0  0  0  0  0  0  0  0
    8.8256    3.6295   14.4728 C   0  0  0  0  0  0  0  0  0  0  0  0
    9.5716    3.9821   15.5899 C   0  0  0  0  0  0  0  0  0  0  0  0
   11.3162    6.5093   14.2491 H   0  0  0  0  0  0  0  0  0  0  0  0
   10.0371    5.9189   12.3011 H   0  0  0  0  0  0  0  0  0  0  0  0
    8.8316    4.1581   11.1867 H   0  0  0  0  0  0  0  0  0  0  0  0
    8.0003    2.8511   12.0702 H   0  0  0  0  0  0  0  0  0  0  0  0
    7.0557    5.7658   12.0582 H   0  0  0  0  0  0  0  0  0  0  0  0
    6.0840    4.3261   12.5570 H   0  0  0  0  0  0  0  0  0  0  0  0
    6.5557    4.5556   10.8647 H   0  0  0  0  0  0  0  0  0  0  0  0
    8.1272    2.8245   14.5299 H   0  0  0  0  0  0  0  0  0  0  0  0
    9.4684    3.4662   16.5197 H   0  0  0  0  0  0  0  0  0  0  0  0
  1  2  2  0
  1  7  1  0
  2  3  1  0
  3  4  2  0
  3 10  1  0
  4  5  1  0
  5  6  1  0
  5  7  2  0
  7  8  1  0
  8  9  3  0
 10 11  1  0
 11 12  2  0
 11 13  1  0
 13 14  1  0
 14 15  2  0
 14 22  1  0
 15 16  1  0
 15 18  1  0
 16 17  1  0
 18 19  2  0
 19 20  1  0
 19 21  1  0
 21 22  2  0
 21 23  1  0
 23 24  1  0
  4 25  1  0
  6 26  1  0
  6 27  1  0
 10 28  1  0
 13 29  1  0
 13 30  1  0
 17 31  1  0
 17 32  1  0
 17 33  1  0
 18 34  1  0
 22 35  1  0
 24 36  1  0
 24 37  1  0
 24 38  1  0
 39 40  2  0
 40 41  1  0
 41 42  2  0
 42 43  1  0
 43 44  1  0
 42 45  1  0
 45 46  2  0
 46 39  1  0
 40 47  1  0
 41 48  1  0
 43 49  1  0
 43 50  1  0
 44 51  1  0
 44 52  1  0
 44 53  1  0
 45 54  1  0
 46 55  1  0
  1 39  1  0
M  END
>  <attachment_point>  (479) 
24

>  <score>  (479) 
<NA>

$$$$
17124-1
     RDKit          3D

 61 63  0  0  0  0  0  0  0  0999 V2000
   21.4127   10.2773   31.6976 C   0  0  0  0  0  0  0  0  0  0  0  0
   21.7567    9.0266   31.2850 N   0  0  0  0  0  0  0  0  0  0  0  0
   20.9811    7.9971   31.6572 C   0  0  0  0  0  0  0  0  0  0  0  0
   19.8706    8.1421   32.4769 C   0  0  0  0  0  0  0  0  0  0  0  0
   19.5217    9.4143   32.8937 C   0  0  0  0  0  0  0  0  0  0  0  0
   18.3827    9.4958   33.6863 N   0  0  0  0  0  0  0  0  0  0  0  0
   20.2923   10.5202   32.5003 C   0  0  0  0  0  0  0  0  0  0  0  0
   19.9657   11.8905   32.8774 C   0  0  0  0  0  0  0  0  0  0  0  0
   19.7135   12.9814   33.1712 N   0  0  0  0  0  0  0  0  0  0  0  0
   21.4435    6.8153   31.1146 N   0  0  0  0  0  0  0  0  0  0  0  0
   20.8639    5.6146   31.0308 C   0  0  0  0  0  0  0  0  0  0  0  0
   19.7396    5.3500   31.4512 O   0  0  0  0  0  0  0  0  0  0  0  0
   21.6499    4.5466   30.2798 C   0  0  0  0  0  0  0  0  0  0  0  0
   23.0247    4.2587   30.8770 C   0  0  0  0  0  0  0  0  0  0  0  0
   24.1218    5.0797   30.5737 C   0  0  0  0  0  0  0  0  0  0  0  0
   23.8940    6.1755   29.7600 O   0  0  0  0  0  0  0  0  0  0  0  0
   24.9260    7.1419   29.5741 C   0  0  0  0  0  0  0  0  0  0  0  0
   25.3756    4.7488   31.1028 C   0  0  0  0  0  0  0  0  0  0  0  0
   25.5283    3.6468   31.9432 C   0  0  0  0  0  0  0  0  0  0  0  0
   27.2648    3.2511   32.6230 Br  0  0  0  0  0  0  0  0  0  0  0  0
   24.4329    2.8399   32.2701 C   0  0  0  0  0  0  0  0  0  0  0  0
   23.1819    3.1565   31.7231 C   0  0  0  0  0  0  0  0  0  0  0  0
   24.6457    1.7801   33.1306 O   0  0  0  0  0  0  0  0  0  0  0  0
   23.7084    0.7066   33.1601 C   0  0  0  0  0  0  0  0  0  0  0  0
    0.0000    0.0000    0.0000 H   0  0  0  0  0  0  0  0  0  0  0  0
    0.0000    0.0000    0.0000 H   0  0  0  0  0  0  0  0  0  0  0  0
    0.0000    0.0000    0.0000 H   0  0  0  0  0  0  0  0  0  0  0  0
    0.0000    0.0000    0.0000 H   0  0  0  0  0  0  0  0  0  0  0  0
    0.0000    0.0000    0.0000 H   0  0  0  0  0  0  0  0  0  0  0  0
    0.0000    0.0000    0.0000 H   0  0  0  0  0  0  0  0  0  0  0  0
    0.0000    0.0000    0.0000 H   0  0  0  0  0  0  0  0  0  0  0  0
    0.0000    0.0000    0.0000 H   0  0  0  0  0  0  0  0  0  0  0  0
    0.0000    0.0000    0.0000 H   0  0  0  0  0  0  0  0  0  0  0  0
    0.0000    0.0000    0.0000 H   0  0  0  0  0  0  0  0  0  0  0  0
    0.0000    0.0000    0.0000 H   0  0  0  0  0  0  0  0  0  0  0  0
    0.0000    0.0000    0.0000 H   0  0  0  0  0  0  0  0  0  0  0  0
    0.0000    0.0000    0.0000 H   0  0  0  0  0  0  0  0  0  0  0  0
    0.0000    0.0000    0.0000 H   0  0  0  0  0  0  0  0  0  0  0  0
   10.4710    5.0257   15.5003 C   0  0  0  0  0  0  0  0  0  0  0  0
   11.0336    4.4060   14.4097 C   0  0  0  0  0  0  0  0  0  0  0  0
   10.2159    4.0858   13.3555 C   0  0  0  0  0  0  0  0  0  0  0  0
    8.8549    4.3873   13.4045 C   0  0  0  0  0  0  0  0  0  0  0  0
    8.0646    3.9970   12.2104 C   0  0  0  0  0  0  0  0  0  0  0  0
    6.6143    4.3574   12.3471 C   0  0  0  0  0  0  0  0  0  0  0  0
    8.1554    2.4806   12.1065 C   0  0  0  0  0  0  0  0  0  0  0  0
    8.6615    4.6507   11.0060 C   0  0  0  0  0  0  0  0  0  0  0  0
    8.3278    5.0054   14.5071 C   0  0  0  0  0  0  0  0  0  0  0  0
    9.1288    5.3386   15.5823 C   0  0  0  0  0  0  0  0  0  0  0  0
   12.0877    4.1911   14.4120 H   0  0  0  0  0  0  0  0  0  0  0  0
   10.6502    3.5894   12.4745 H   0  0  0  0  0  0  0  0  0  0  0  0
    6.1516    3.9816   13.2593 H   0  0  0  0  0  0  0  0  0  0  0  0
    6.0805    3.8449   11.4940 H   0  0  0  0  0  0  0  0  0  0  0  0
    6.4283    5.4536   12.1755 H   0  0  0  0  0  0  0  0  0  0  0  0
    9.1227    2.1613   12.5264 H   0  0  0  0  0  0  0  0  0  0  0  0
    7.2872    2.0486   12.6180 H   0  0  0  0  0  0  0  0  0  0  0  0
    8.1344    2.2417   11.0299 H   0  0  0  0  0  0  0  0  0  0  0  0
    8.7378    3.8591   10.2045 H   0  0  0  0  0  0  0  0  0  0  0  0
    9.6790    5.0558   11.1830 H   0  0  0  0  0  0  0  0  0  0  0  0
    7.9761    5.4252   10.5777 H   0  0  0  0  0  0  0  0  0  0  0  0
    7.2624    5.2190   14.4971 H   0  0  0  0  0  0  0  0  0  0  0  0
    8.7076    5.8263   16.4502 H   0  0  0  0  0  0  0  0  0  0  0  0
  1  2  2  0
  1  7  1  0
  2  3  1  0
  3  4  2  0
  3 10  1  0
  4  5  1  0
  5  6  1  0
  5  7  2  0
  7  8  1  0
  8  9  3  0
 10 11  1  0
 11 12  2  0
 11 13  1  0
 13 14  1  0
 14 15  2  0
 14 22  1  0
 15 16  1  0
 15 18  1  0
 16 17  1  0
 18 19  2  0
 19 20  1  0
 19 21  1  0
 21 22  2  0
 21 23  1  0
 23 24  1  0
  4 25  1  0
  6 26  1  0
  6 27  1  0
 10 28  1  0
 13 29  1  0
 13 30  1  0
 17 31  1  0
 17 32  1  0
 17 33  1  0
 18 34  1  0
 22 35  1  0
 24 36  1  0
 24 37  1  0
 24 38  1  0
 39 40  2  0
 40 41  1  0
 41 42  2  0
 42 43  1  0
 43 44  1  0
 43 45  1  0
 43 46  1  0
 42 47  1  0
 47 48  2  0
 48 39  1  0
 40 49  1  0
 41 50  1  0
 44 51  1  0
 44 52  1  0
 44 53  1  0
 45 54  1  0
 45 55  1  0
 45 56  1  0
 46 57  1  0
 46 58  1  0
 46 59  1  0
 47 60  1  0
 48 61  1  0
  1 39  1  0
M  END
>  <attachment_point>  (480) 
24

>  <score>  (480) 
<NA>

$$$$
17124-1
     RDKit          3D

 50 52  0  0  0  0  0  0  0  0999 V2000
   21.4127   10.2773   31.6976 C   0  0  0  0  0  0  0  0  0  0  0  0
   21.7567    9.0266   31.2850 N   0  0  0  0  0  0  0  0  0  0  0  0
   20.9811    7.9971   31.6572 C   0  0  0  0  0  0  0  0  0  0  0  0
   19.8706    8.1421   32.4769 C   0  0  0  0  0  0  0  0  0  0  0  0
   19.5217    9.4143   32.8937 C   0  0  0  0  0  0  0  0  0  0  0  0
   18.3827    9.4958   33.6863 N   0  0  0  0  0  0  0  0  0  0  0  0
   20.2923   10.5202   32.5003 C   0  0  0  0  0  0  0  0  0  0  0  0
   19.9657   11.8905   32.8774 C   0  0  0  0  0  0  0  0  0  0  0  0
   19.7135   12.9814   33.1712 N   0  0  0  0  0  0  0  0  0  0  0  0
   21.4435    6.8153   31.1146 N   0  0  0  0  0  0  0  0  0  0  0  0
   20.8639    5.6146   31.0308 C   0  0  0  0  0  0  0  0  0  0  0  0
   19.7396    5.3500   31.4512 O   0  0  0  0  0  0  0  0  0  0  0  0
   21.6499    4.5466   30.2798 C   0  0  0  0  0  0  0  0  0  0  0  0
   23.0247    4.2587   30.8770 C   0  0  0  0  0  0  0  0  0  0  0  0
   24.1218    5.0797   30.5737 C   0  0  0  0  0  0  0  0  0  0  0  0
   23.8940    6.1755   29.7600 O   0  0  0  0  0  0  0  0  0  0  0  0
   24.9260    7.1419   29.5741 C   0  0  0  0  0  0  0  0  0  0  0  0
   25.3756    4.7488   31.1028 C   0  0  0  0  0  0  0  0  0  0  0  0
   25.5283    3.6468   31.9432 C   0  0  0  0  0  0  0  0  0  0  0  0
   27.2648    3.2511   32.6230 Br  0  0  0  0  0  0  0  0  0  0  0  0
   24.4329    2.8399   32.2701 C   0  0  0  0  0  0  0  0  0  0  0  0
   23.1819    3.1565   31.7231 C   0  0  0  0  0  0  0  0  0  0  0  0
   24.6457    1.7801   33.1306 O   0  0  0  0  0  0  0  0  0  0  0  0
   23.7084    0.7066   33.1601 C   0  0  0  0  0  0  0  0  0  0  0  0
    0.0000    0.0000    0.0000 H   0  0  0  0  0  0  0  0  0  0  0  0
    0.0000    0.0000    0.0000 H   0  0  0  0  0  0  0  0  0  0  0  0
    0.0000    0.0000    0.0000 H   0  0  0  0  0  0  0  0  0  0  0  0
    0.0000    0.0000    0.0000 H   0  0  0  0  0  0  0  0  0  0  0  0
    0.0000    0.0000    0.0000 H   0  0  0  0  0  0  0  0  0  0  0  0
    0.0000    0.0000    0.0000 H   0  0  0  0  0  0  0  0  0  0  0  0
    0.0000    0.0000    0.0000 H   0  0  0  0  0  0  0  0  0  0  0  0
    0.0000    0.0000    0.0000 H   0  0  0  0  0  0  0  0  0  0  0  0
    0.0000    0.0000    0.0000 H   0  0  0  0  0  0  0  0  0  0  0  0
    0.0000    0.0000    0.0000 H   0  0  0  0  0  0  0  0  0  0  0  0
    0.0000    0.0000    0.0000 H   0  0  0  0  0  0  0  0  0  0  0  0
    0.0000    0.0000    0.0000 H   0  0  0  0  0  0  0  0  0  0  0  0
    0.0000    0.0000    0.0000 H   0  0  0  0  0  0  0  0  0  0  0  0
    0.0000    0.0000    0.0000 H   0  0  0  0  0  0  0  0  0  0  0  0
   10.3968    4.9901   15.3906 C   0  0  0  0  0  0  0  0  0  0  0  0
    9.7627    4.6954   14.4874 C   0  0  0  0  0  0  0  0  0  0  0  0
    8.9554    4.3358   13.3792 C   0  0  0  0  0  0  0  0  0  0  0  0
    9.4689    4.3627   12.1003 C   0  0  0  0  0  0  0  0  0  0  0  0
    8.6966    4.0170   11.0175 C   0  0  0  0  0  0  0  0  0  0  0  0
    7.3939    3.6403   11.2250 C   0  0  0  0  0  0  0  0  0  0  0  0
    6.8942    3.6162   12.4898 C   0  0  0  0  0  0  0  0  0  0  0  0
    7.6646    3.9566   13.5251 N   0  0  0  0  0  0  0  0  0  0  0  0
   10.5118    4.6699   11.9935 H   0  0  0  0  0  0  0  0  0  0  0  0
    9.1082    4.0399   10.0059 H   0  0  0  0  0  0  0  0  0  0  0  0
    6.8247    3.3768   10.3412 H   0  0  0  0  0  0  0  0  0  0  0  0
    5.8636    3.3149   12.6207 H   0  0  0  0  0  0  0  0  0  0  0  0
  1  2  2  0
  1  7  1  0
  2  3  1  0
  3  4  2  0
  3 10  1  0
  4  5  1  0
  5  6  1  0
  5  7  2  0
  7  8  1  0
  8  9  3  0
 10 11  1  0
 11 12  2  0
 11 13  1  0
 13 14  1  0
 14 15  2  0
 14 22  1  0
 15 16  1  0
 15 18  1  0
 16 17  1  0
 18 19  2  0
 19 20  1  0
 19 21  1  0
 21 22  2  0
 21 23  1  0
 23 24  1  0
  4 25  1  0
  6 26  1  0
  6 27  1  0
 10 28  1  0
 13 29  1  0
 13 30  1  0
 17 31  1  0
 17 32  1  0
 17 33  1  0
 18 34  1  0
 22 35  1  0
 24 36  1  0
 24 37  1  0
 24 38  1  0
 39 40  3  0
 40 41  1  0
 41 42  2  0
 42 43  1  0
 43 44  2  0
 44 45  1  0
 45 46  2  0
 46 41  1  0
 42 47  1  0
 43 48  1  0
 44 49  1  0
 45 50  1  0
  1 39  1  0
M  END
>  <attachment_point>  (481) 
24

>  <score>  (481) 
<NA>

$$$$
17124-1
     RDKit          3D

 63 67  0  0  0  0  0  0  0  0999 V2000
   21.4127   10.2773   31.6976 C   0  0  0  0  0  0  0  0  0  0  0  0
   21.7567    9.0266   31.2850 N   0  0  0  0  0  0  0  0  0  0  0  0
   20.9811    7.9971   31.6572 C   0  0  0  0  0  0  0  0  0  0  0  0
   19.8706    8.1421   32.4769 C   0  0  0  0  0  0  0  0  0  0  0  0
   19.5217    9.4143   32.8937 C   0  0  0  0  0  0  0  0  0  0  0  0
   18.3827    9.4958   33.6863 N   0  0  0  0  0  0  0  0  0  0  0  0
   20.2923   10.5202   32.5003 C   0  0  0  0  0  0  0  0  0  0  0  0
   19.9657   11.8905   32.8774 C   0  0  0  0  0  0  0  0  0  0  0  0
   19.7135   12.9814   33.1712 N   0  0  0  0  0  0  0  0  0  0  0  0
   21.4435    6.8153   31.1146 N   0  0  0  0  0  0  0  0  0  0  0  0
   20.8639    5.6146   31.0308 C   0  0  0  0  0  0  0  0  0  0  0  0
   19.7396    5.3500   31.4512 O   0  0  0  0  0  0  0  0  0  0  0  0
   21.6499    4.5466   30.2798 C   0  0  0  0  0  0  0  0  0  0  0  0
   23.0247    4.2587   30.8770 C   0  0  0  0  0  0  0  0  0  0  0  0
   24.1218    5.0797   30.5737 C   0  0  0  0  0  0  0  0  0  0  0  0
   23.8940    6.1755   29.7600 O   0  0  0  0  0  0  0  0  0  0  0  0
   24.9260    7.1419   29.5741 C   0  0  0  0  0  0  0  0  0  0  0  0
   25.3756    4.7488   31.1028 C   0  0  0  0  0  0  0  0  0  0  0  0
   25.5283    3.6468   31.9432 C   0  0  0  0  0  0  0  0  0  0  0  0
   27.2648    3.2511   32.6230 Br  0  0  0  0  0  0  0  0  0  0  0  0
   24.4329    2.8399   32.2701 C   0  0  0  0  0  0  0  0  0  0  0  0
   23.1819    3.1565   31.7231 C   0  0  0  0  0  0  0  0  0  0  0  0
   24.6457    1.7801   33.1306 O   0  0  0  0  0  0  0  0  0  0  0  0
   23.7084    0.7066   33.1601 C   0  0  0  0  0  0  0  0  0  0  0  0
    0.0000    0.0000    0.0000 H   0  0  0  0  0  0  0  0  0  0  0  0
    0.0000    0.0000    0.0000 H   0  0  0  0  0  0  0  0  0  0  0  0
    0.0000    0.0000    0.0000 H   0  0  0  0  0  0  0  0  0  0  0  0
    0.0000    0.0000    0.0000 H   0  0  0  0  0  0  0  0  0  0  0  0
    0.0000    0.0000    0.0000 H   0  0  0  0  0  0  0  0  0  0  0  0
    0.0000    0.0000    0.0000 H   0  0  0  0  0  0  0  0  0  0  0  0
    0.0000    0.0000    0.0000 H   0  0  0  0  0  0  0  0  0  0  0  0
    0.0000    0.0000    0.0000 H   0  0  0  0  0  0  0  0  0  0  0  0
    0.0000    0.0000    0.0000 H   0  0  0  0  0  0  0  0  0  0  0  0
    0.0000    0.0000    0.0000 H   0  0  0  0  0  0  0  0  0  0  0  0
    0.0000    0.0000    0.0000 H   0  0  0  0  0  0  0  0  0  0  0  0
    0.0000    0.0000    0.0000 H   0  0  0  0  0  0  0  0  0  0  0  0
    0.0000    0.0000    0.0000 H   0  0  0  0  0  0  0  0  0  0  0  0
    0.0000    0.0000    0.0000 H   0  0  0  0  0  0  0  0  0  0  0  0
   10.4782    5.0292   15.5111 C   0  0  2  0  0  0  0  0  0  0  0  0
    9.5138    6.1202   15.1114 C   0  0  0  0  0  0  0  0  0  0  0  0
    8.8078    5.7447   13.8420 C   0  0  1  0  0  0  0  0  0  0  0  0
    9.8426    5.4770   12.7771 C   0  0  0  0  0  0  0  0  0  0  0  0
   10.6902    4.2954   13.1570 C   0  0  2  0  0  0  0  0  0  0  0  0
    9.9000    3.0664   13.4840 C   0  0  0  0  0  0  0  0  0  0  0  0
    8.8807    3.3962   14.5673 C   0  0  2  0  0  0  0  0  0  0  0  0
    8.0016    4.4861   14.0247 C   0  0  0  0  0  0  0  0  0  0  0  0
    9.6358    3.7920   15.8021 C   0  0  0  0  0  0  0  0  0  0  0  0
   11.4569    4.6868   14.4173 C   0  0  0  0  0  0  0  0  0  0  0  0
    8.7266    6.1427   15.9179 H   0  0  0  0  0  0  0  0  0  0  0  0
    9.9664    7.1139   15.0535 H   0  0  0  0  0  0  0  0  0  0  0  0
    8.1661    6.5863   13.5257 H   0  0  0  0  0  0  0  0  0  0  0  0
    9.4288    5.4261   11.7611 H   0  0  0  0  0  0  0  0  0  0  0  0
   10.5256    6.3739   12.7804 H   0  0  0  0  0  0  0  0  0  0  0  0
   11.3983    4.0651   12.3412 H   0  0  0  0  0  0  0  0  0  0  0  0
   10.5977    2.3305   13.9412 H   0  0  0  0  0  0  0  0  0  0  0  0
    9.4321    2.6194   12.5899 H   0  0  0  0  0  0  0  0  0  0  0  0
    8.2510    2.5310   14.8186 H   0  0  0  0  0  0  0  0  0  0  0  0
    7.0716    4.6281   14.5880 H   0  0  0  0  0  0  0  0  0  0  0  0
    7.7077    4.1547   12.9845 H   0  0  0  0  0  0  0  0  0  0  0  0
    8.9853    3.9948   16.6663 H   0  0  0  0  0  0  0  0  0  0  0  0
   10.3668    2.9760   16.0123 H   0  0  0  0  0  0  0  0  0  0  0  0
   12.1484    5.5216   14.2226 H   0  0  0  0  0  0  0  0  0  0  0  0
   11.9814    3.7530   14.7460 H   0  0  0  0  0  0  0  0  0  0  0  0
  1  2  2  0
  1  7  1  0
  2  3  1  0
  3  4  2  0
  3 10  1  0
  4  5  1  0
  5  6  1  0
  5  7  2  0
  7  8  1  0
  8  9  3  0
 10 11  1  0
 11 12  2  0
 11 13  1  0
 13 14  1  0
 14 15  2  0
 14 22  1  0
 15 16  1  0
 15 18  1  0
 16 17  1  0
 18 19  2  0
 19 20  1  0
 19 21  1  0
 21 22  2  0
 21 23  1  0
 23 24  1  0
  4 25  1  0
  6 26  1  0
  6 27  1  0
 10 28  1  0
 13 29  1  0
 13 30  1  0
 17 31  1  0
 17 32  1  0
 17 33  1  0
 18 34  1  0
 22 35  1  0
 24 36  1  0
 24 37  1  0
 24 38  1  0
 39 40  1  0
 40 41  1  0
 41 42  1  0
 42 43  1  0
 43 44  1  0
 44 45  1  0
 45 46  1  0
 45 47  1  0
 43 48  1  0
 47 39  1  0
 48 39  1  0
 46 41  1  0
 40 49  1  0
 40 50  1  0
 41 51  1  6
 42 52  1  0
 42 53  1  0
 43 54  1  6
 44 55  1  0
 44 56  1  0
 45 57  1  1
 46 58  1  0
 46 59  1  0
 47 60  1  0
 47 61  1  0
 48 62  1  0
 48 63  1  0
 39  1  1  6
M  END
>  <attachment_point>  (482) 
24

>  <score>  (482) 
<NA>

$$$$
17124-1
     RDKit          3D

 52 54  0  0  0  0  0  0  0  0999 V2000
   21.4127   10.2773   31.6976 C   0  0  0  0  0  0  0  0  0  0  0  0
   21.7567    9.0266   31.2850 N   0  0  0  0  0  0  0  0  0  0  0  0
   20.9811    7.9971   31.6572 C   0  0  0  0  0  0  0  0  0  0  0  0
   19.8706    8.1421   32.4769 C   0  0  0  0  0  0  0  0  0  0  0  0
   19.5217    9.4143   32.8937 C   0  0  0  0  0  0  0  0  0  0  0  0
   18.3827    9.4958   33.6863 N   0  0  0  0  0  0  0  0  0  0  0  0
   20.2923   10.5202   32.5003 C   0  0  0  0  0  0  0  0  0  0  0  0
   19.9657   11.8905   32.8774 C   0  0  0  0  0  0  0  0  0  0  0  0
   19.7135   12.9814   33.1712 N   0  0  0  0  0  0  0  0  0  0  0  0
   21.4435    6.8153   31.1146 N   0  0  0  0  0  0  0  0  0  0  0  0
   20.8639    5.6146   31.0308 C   0  0  0  0  0  0  0  0  0  0  0  0
   19.7396    5.3500   31.4512 O   0  0  0  0  0  0  0  0  0  0  0  0
   21.6499    4.5466   30.2798 C   0  0  0  0  0  0  0  0  0  0  0  0
   23.0247    4.2587   30.8770 C   0  0  0  0  0  0  0  0  0  0  0  0
   24.1218    5.0797   30.5737 C   0  0  0  0  0  0  0  0  0  0  0  0
   23.8940    6.1755   29.7600 O   0  0  0  0  0  0  0  0  0  0  0  0
   24.9260    7.1419   29.5741 C   0  0  0  0  0  0  0  0  0  0  0  0
   25.3756    4.7488   31.1028 C   0  0  0  0  0  0  0  0  0  0  0  0
   25.5283    3.6468   31.9432 C   0  0  0  0  0  0  0  0  0  0  0  0
   27.2648    3.2511   32.6230 Br  0  0  0  0  0  0  0  0  0  0  0  0
   24.4329    2.8399   32.2701 C   0  0  0  0  0  0  0  0  0  0  0  0
   23.1819    3.1565   31.7231 C   0  0  0  0  0  0  0  0  0  0  0  0
   24.6457    1.7801   33.1306 O   0  0  0  0  0  0  0  0  0  0  0  0
   23.7084    0.7066   33.1601 C   0  0  0  0  0  0  0  0  0  0  0  0
    0.0000    0.0000    0.0000 H   0  0  0  0  0  0  0  0  0  0  0  0
    0.0000    0.0000    0.0000 H   0  0  0  0  0  0  0  0  0  0  0  0
    0.0000    0.0000    0.0000 H   0  0  0  0  0  0  0  0  0  0  0  0
    0.0000    0.0000    0.0000 H   0  0  0  0  0  0  0  0  0  0  0  0
    0.0000    0.0000    0.0000 H   0  0  0  0  0  0  0  0  0  0  0  0
    0.0000    0.0000    0.0000 H   0  0  0  0  0  0  0  0  0  0  0  0
    0.0000    0.0000    0.0000 H   0  0  0  0  0  0  0  0  0  0  0  0
    0.0000    0.0000    0.0000 H   0  0  0  0  0  0  0  0  0  0  0  0
    0.0000    0.0000    0.0000 H   0  0  0  0  0  0  0  0  0  0  0  0
    0.0000    0.0000    0.0000 H   0  0  0  0  0  0  0  0  0  0  0  0
    0.0000    0.0000    0.0000 H   0  0  0  0  0  0  0  0  0  0  0  0
    0.0000    0.0000    0.0000 H   0  0  0  0  0  0  0  0  0  0  0  0
    0.0000    0.0000    0.0000 H   0  0  0  0  0  0  0  0  0  0  0  0
    0.0000    0.0000    0.0000 H   0  0  0  0  0  0  0  0  0  0  0  0
   10.4755    5.0279   15.5071 C   0  0  0  0  0  0  0  0  0  0  0  0
   11.0260    4.9225   14.2486 C   0  0  0  0  0  0  0  0  0  0  0  0
   10.2152    4.5596   13.1948 C   0  0  0  0  0  0  0  0  0  0  0  0
    8.8809    4.3171   13.4517 C   0  0  0  0  0  0  0  0  0  0  0  0
    8.3749    4.4281   14.6883 N   0  0  0  0  0  0  0  0  0  0  0  0
    9.1394    4.7799   15.7354 C   0  0  0  0  0  0  0  0  0  0  0  0
    8.5934    4.8884   17.0064 O   0  0  0  0  0  0  0  0  0  0  0  0
    7.2240    4.6383   17.2632 C   0  0  0  0  0  0  0  0  0  0  0  0
   12.0891    5.1223   14.0814 H   0  0  0  0  0  0  0  0  0  0  0  0
   10.6195    4.4649   12.1727 H   0  0  0  0  0  0  0  0  0  0  0  0
    8.2489    4.0283   12.5974 H   0  0  0  0  0  0  0  0  0  0  0  0
    6.8783    3.8601   16.5508 H   0  0  0  0  0  0  0  0  0  0  0  0
    6.6288    5.5745   17.1357 H   0  0  0  0  0  0  0  0  0  0  0  0
    7.1124    4.2660   18.3009 H   0  0  0  0  0  0  0  0  0  0  0  0
  1  2  2  0
  1  7  1  0
  2  3  1  0
  3  4  2  0
  3 10  1  0
  4  5  1  0
  5  6  1  0
  5  7  2  0
  7  8  1  0
  8  9  3  0
 10 11  1  0
 11 12  2  0
 11 13  1  0
 13 14  1  0
 14 15  2  0
 14 22  1  0
 15 16  1  0
 15 18  1  0
 16 17  1  0
 18 19  2  0
 19 20  1  0
 19 21  1  0
 21 22  2  0
 21 23  1  0
 23 24  1  0
  4 25  1  0
  6 26  1  0
  6 27  1  0
 10 28  1  0
 13 29  1  0
 13 30  1  0
 17 31  1  0
 17 32  1  0
 17 33  1  0
 18 34  1  0
 22 35  1  0
 24 36  1  0
 24 37  1  0
 24 38  1  0
 39 40  2  0
 40 41  1  0
 41 42  2  0
 42 43  1  0
 43 44  2  0
 44 45  1  0
 45 46  1  0
 44 39  1  0
 40 47  1  0
 41 48  1  0
 42 49  1  0
 46 50  1  0
 46 51  1  0
 46 52  1  0
  1 39  1  0
M  END
>  <attachment_point>  (483) 
24

>  <score>  (483) 
<NA>

$$$$
17124-1
     RDKit          3D

 54 57  0  0  0  0  0  0  0  0999 V2000
   21.4127   10.2773   31.6976 C   0  0  0  0  0  0  0  0  0  0  0  0
   21.7567    9.0266   31.2850 N   0  0  0  0  0  0  0  0  0  0  0  0
   20.9811    7.9971   31.6572 C   0  0  0  0  0  0  0  0  0  0  0  0
   19.8706    8.1421   32.4769 C   0  0  0  0  0  0  0  0  0  0  0  0
   19.5217    9.4143   32.8937 C   0  0  0  0  0  0  0  0  0  0  0  0
   18.3827    9.4958   33.6863 N   0  0  0  0  0  0  0  0  0  0  0  0
   20.2923   10.5202   32.5003 C   0  0  0  0  0  0  0  0  0  0  0  0
   19.9657   11.8905   32.8774 C   0  0  0  0  0  0  0  0  0  0  0  0
   19.7135   12.9814   33.1712 N   0  0  0  0  0  0  0  0  0  0  0  0
   21.4435    6.8153   31.1146 N   0  0  0  0  0  0  0  0  0  0  0  0
   20.8639    5.6146   31.0308 C   0  0  0  0  0  0  0  0  0  0  0  0
   19.7396    5.3500   31.4512 O   0  0  0  0  0  0  0  0  0  0  0  0
   21.6499    4.5466   30.2798 C   0  0  0  0  0  0  0  0  0  0  0  0
   23.0247    4.2587   30.8770 C   0  0  0  0  0  0  0  0  0  0  0  0
   24.1218    5.0797   30.5737 C   0  0  0  0  0  0  0  0  0  0  0  0
   23.8940    6.1755   29.7600 O   0  0  0  0  0  0  0  0  0  0  0  0
   24.9260    7.1419   29.5741 C   0  0  0  0  0  0  0  0  0  0  0  0
   25.3756    4.7488   31.1028 C   0  0  0  0  0  0  0  0  0  0  0  0
   25.5283    3.6468   31.9432 C   0  0  0  0  0  0  0  0  0  0  0  0
   27.2648    3.2511   32.6230 Br  0  0  0  0  0  0  0  0  0  0  0  0
   24.4329    2.8399   32.2701 C   0  0  0  0  0  0  0  0  0  0  0  0
   23.1819    3.1565   31.7231 C   0  0  0  0  0  0  0  0  0  0  0  0
   24.6457    1.7801   33.1306 O   0  0  0  0  0  0  0  0  0  0  0  0
   23.7084    0.7066   33.1601 C   0  0  0  0  0  0  0  0  0  0  0  0
    0.0000    0.0000    0.0000 H   0  0  0  0  0  0  0  0  0  0  0  0
    0.0000    0.0000    0.0000 H   0  0  0  0  0  0  0  0  0  0  0  0
    0.0000    0.0000    0.0000 H   0  0  0  0  0  0  0  0  0  0  0  0
    0.0000    0.0000    0.0000 H   0  0  0  0  0  0  0  0  0  0  0  0
    0.0000    0.0000    0.0000 H   0  0  0  0  0  0  0  0  0  0  0  0
    0.0000    0.0000    0.0000 H   0  0  0  0  0  0  0  0  0  0  0  0
    0.0000    0.0000    0.0000 H   0  0  0  0  0  0  0  0  0  0  0  0
    0.0000    0.0000    0.0000 H   0  0  0  0  0  0  0  0  0  0  0  0
    0.0000    0.0000    0.0000 H   0  0  0  0  0  0  0  0  0  0  0  0
    0.0000    0.0000    0.0000 H   0  0  0  0  0  0  0  0  0  0  0  0
    0.0000    0.0000    0.0000 H   0  0  0  0  0  0  0  0  0  0  0  0
    0.0000    0.0000    0.0000 H   0  0  0  0  0  0  0  0  0  0  0  0
    0.0000    0.0000    0.0000 H   0  0  0  0  0  0  0  0  0  0  0  0
    0.0000    0.0000    0.0000 H   0  0  0  0  0  0  0  0  0  0  0  0
   10.4471    5.0142   15.4651 C   0  0  0  0  0  0  0  0  0  0  0  0
    9.0790    4.9938   15.6315 C   0  0  0  0  0  0  0  0  0  0  0  0
    8.3368    4.6361   14.5280 C   0  0  0  0  0  0  0  0  0  0  0  0
    8.9474    4.3155   13.3180 C   0  0  0  0  0  0  0  0  0  0  0  0
    8.1879    3.9596   12.2238 C   0  0  0  0  0  0  0  0  0  0  0  0
    8.8013    3.6401   11.0171 C   0  0  0  0  0  0  0  0  0  0  0  0
   10.1775    3.6907   10.9535 C   0  0  0  0  0  0  0  0  0  0  0  0
   10.9192    4.0480   12.0556 C   0  0  0  0  0  0  0  0  0  0  0  0
   10.3172    4.3716   13.2742 C   0  0  0  0  0  0  0  0  0  0  0  0
   11.0815    4.7206   14.3442 N   0  0  0  0  0  0  0  0  0  0  0  0
    8.6826    5.2534   16.5939 H   0  0  0  0  0  0  0  0  0  0  0  0
    7.2604    4.6130   14.6346 H   0  0  0  0  0  0  0  0  0  0  0  0
    7.1090    3.9212   12.2780 H   0  0  0  0  0  0  0  0  0  0  0  0
    8.2073    3.3583   10.1496 H   0  0  0  0  0  0  0  0  0  0  0  0
   10.6593    3.4433   10.0179 H   0  0  0  0  0  0  0  0  0  0  0  0
   11.9798    4.0802   11.9830 H   0  0  0  0  0  0  0  0  0  0  0  0
  1  2  2  0
  1  7  1  0
  2  3  1  0
  3  4  2  0
  3 10  1  0
  4  5  1  0
  5  6  1  0
  5  7  2  0
  7  8  1  0
  8  9  3  0
 10 11  1  0
 11 12  2  0
 11 13  1  0
 13 14  1  0
 14 15  2  0
 14 22  1  0
 15 16  1  0
 15 18  1  0
 16 17  1  0
 18 19  2  0
 19 20  1  0
 19 21  1  0
 21 22  2  0
 21 23  1  0
 23 24  1  0
  4 25  1  0
  6 26  1  0
  6 27  1  0
 10 28  1  0
 13 29  1  0
 13 30  1  0
 17 31  1  0
 17 32  1  0
 17 33  1  0
 18 34  1  0
 22 35  1  0
 24 36  1  0
 24 37  1  0
 24 38  1  0
 39 40  2  0
 40 41  1  0
 41 42  2  0
 42 43  1  0
 43 44  2  0
 44 45  1  0
 45 46  2  0
 46 47  1  0
 47 48  2  0
 48 39  1  0
 47 42  1  0
 40 49  1  0
 41 50  1  0
 43 51  1  0
 44 52  1  0
 45 53  1  0
 46 54  1  0
  1 39  1  0
M  END
>  <attachment_point>  (484) 
24

>  <score>  (484) 
<NA>

$$$$
17124-1
     RDKit          3D

 52 53  0  0  0  0  0  0  0  0999 V2000
   21.4127   10.2773   31.6976 C   0  0  0  0  0  0  0  0  0  0  0  0
   21.7567    9.0266   31.2850 N   0  0  0  0  0  0  0  0  0  0  0  0
   20.9811    7.9971   31.6572 C   0  0  0  0  0  0  0  0  0  0  0  0
   19.8706    8.1421   32.4769 C   0  0  0  0  0  0  0  0  0  0  0  0
   19.5217    9.4143   32.8937 C   0  0  0  0  0  0  0  0  0  0  0  0
   18.3827    9.4958   33.6863 N   0  0  0  0  0  0  0  0  0  0  0  0
   20.2923   10.5202   32.5003 C   0  0  0  0  0  0  0  0  0  0  0  0
   19.9657   11.8905   32.8774 C   0  0  0  0  0  0  0  0  0  0  0  0
   19.7135   12.9814   33.1712 N   0  0  0  0  0  0  0  0  0  0  0  0
   21.4435    6.8153   31.1146 N   0  0  0  0  0  0  0  0  0  0  0  0
   20.8639    5.6146   31.0308 C   0  0  0  0  0  0  0  0  0  0  0  0
   19.7396    5.3500   31.4512 O   0  0  0  0  0  0  0  0  0  0  0  0
   21.6499    4.5466   30.2798 C   0  0  0  0  0  0  0  0  0  0  0  0
   23.0247    4.2587   30.8770 C   0  0  0  0  0  0  0  0  0  0  0  0
   24.1218    5.0797   30.5737 C   0  0  0  0  0  0  0  0  0  0  0  0
   23.8940    6.1755   29.7600 O   0  0  0  0  0  0  0  0  0  0  0  0
   24.9260    7.1419   29.5741 C   0  0  0  0  0  0  0  0  0  0  0  0
   25.3756    4.7488   31.1028 C   0  0  0  0  0  0  0  0  0  0  0  0
   25.5283    3.6468   31.9432 C   0  0  0  0  0  0  0  0  0  0  0  0
   27.2648    3.2511   32.6230 Br  0  0  0  0  0  0  0  0  0  0  0  0
   24.4329    2.8399   32.2701 C   0  0  0  0  0  0  0  0  0  0  0  0
   23.1819    3.1565   31.7231 C   0  0  0  0  0  0  0  0  0  0  0  0
   24.6457    1.7801   33.1306 O   0  0  0  0  0  0  0  0  0  0  0  0
   23.7084    0.7066   33.1601 C   0  0  0  0  0  0  0  0  0  0  0  0
    0.0000    0.0000    0.0000 H   0  0  0  0  0  0  0  0  0  0  0  0
    0.0000    0.0000    0.0000 H   0  0  0  0  0  0  0  0  0  0  0  0
    0.0000    0.0000    0.0000 H   0  0  0  0  0  0  0  0  0  0  0  0
    0.0000    0.0000    0.0000 H   0  0  0  0  0  0  0  0  0  0  0  0
    0.0000    0.0000    0.0000 H   0  0  0  0  0  0  0  0  0  0  0  0
    0.0000    0.0000    0.0000 H   0  0  0  0  0  0  0  0  0  0  0  0
    0.0000    0.0000    0.0000 H   0  0  0  0  0  0  0  0  0  0  0  0
    0.0000    0.0000    0.0000 H   0  0  0  0  0  0  0  0  0  0  0  0
    0.0000    0.0000    0.0000 H   0  0  0  0  0  0  0  0  0  0  0  0
    0.0000    0.0000    0.0000 H   0  0  0  0  0  0  0  0  0  0  0  0
    0.0000    0.0000    0.0000 H   0  0  0  0  0  0  0  0  0  0  0  0
    0.0000    0.0000    0.0000 H   0  0  0  0  0  0  0  0  0  0  0  0
    0.0000    0.0000    0.0000 H   0  0  0  0  0  0  0  0  0  0  0  0
    0.0000    0.0000    0.0000 H   0  0  0  0  0  0  0  0  0  0  0  0
   10.4705    5.0254   15.4996 C   0  0  0  0  0  0  0  0  0  0  0  0
    9.3335    5.9759   15.3934 C   0  0  0  0  0  0  0  0  0  0  0  0
   10.0150    3.5862   15.6098 C   0  0  0  0  0  0  0  0  0  0  0  0
   11.4211    5.1025   14.3277 C   0  0  0  0  0  0  0  0  0  0  0  0
   11.9328    6.4106   14.1864 O   0  0  0  0  0  0  0  0  0  0  0  0
    9.0851    6.3763   16.4178 H   0  0  0  0  0  0  0  0  0  0  0  0
    9.5501    6.8415   14.7623 H   0  0  0  0  0  0  0  0  0  0  0  0
    8.4109    5.4213   15.0618 H   0  0  0  0  0  0  0  0  0  0  0  0
    9.8436    3.1889   14.5836 H   0  0  0  0  0  0  0  0  0  0  0  0
   10.8557    3.0044   16.0262 H   0  0  0  0  0  0  0  0  0  0  0  0
    9.0789    3.4784   16.1872 H   0  0  0  0  0  0  0  0  0  0  0  0
   10.9735    4.8258   13.3775 H   0  0  0  0  0  0  0  0  0  0  0  0
   12.3090    4.4601   14.4943 H   0  0  0  0  0  0  0  0  0  0  0  0
   12.6591    6.5772   14.8241 H   0  0  0  0  0  0  0  0  0  0  0  0
  1  2  2  0
  1  7  1  0
  2  3  1  0
  3  4  2  0
  3 10  1  0
  4  5  1  0
  5  6  1  0
  5  7  2  0
  7  8  1  0
  8  9  3  0
 10 11  1  0
 11 12  2  0
 11 13  1  0
 13 14  1  0
 14 15  2  0
 14 22  1  0
 15 16  1  0
 15 18  1  0
 16 17  1  0
 18 19  2  0
 19 20  1  0
 19 21  1  0
 21 22  2  0
 21 23  1  0
 23 24  1  0
  4 25  1  0
  6 26  1  0
  6 27  1  0
 10 28  1  0
 13 29  1  0
 13 30  1  0
 17 31  1  0
 17 32  1  0
 17 33  1  0
 18 34  1  0
 22 35  1  0
 24 36  1  0
 24 37  1  0
 24 38  1  0
 39 40  1  0
 39 41  1  0
 39 42  1  0
 42 43  1  0
 40 44  1  0
 40 45  1  0
 40 46  1  0
 41 47  1  0
 41 48  1  0
 41 49  1  0
 42 50  1  0
 42 51  1  0
 43 52  1  0
  1 39  1  0
M  END
>  <attachment_point>  (485) 
24

>  <score>  (485) 
<NA>

$$$$
17124-1
     RDKit          3D

 52 54  0  0  0  0  0  0  0  0999 V2000
   21.4127   10.2773   31.6976 C   0  0  0  0  0  0  0  0  0  0  0  0
   21.7567    9.0266   31.2850 N   0  0  0  0  0  0  0  0  0  0  0  0
   20.9811    7.9971   31.6572 C   0  0  0  0  0  0  0  0  0  0  0  0
   19.8706    8.1421   32.4769 C   0  0  0  0  0  0  0  0  0  0  0  0
   19.5217    9.4143   32.8937 C   0  0  0  0  0  0  0  0  0  0  0  0
   18.3827    9.4958   33.6863 N   0  0  0  0  0  0  0  0  0  0  0  0
   20.2923   10.5202   32.5003 C   0  0  0  0  0  0  0  0  0  0  0  0
   19.9657   11.8905   32.8774 C   0  0  0  0  0  0  0  0  0  0  0  0
   19.7135   12.9814   33.1712 N   0  0  0  0  0  0  0  0  0  0  0  0
   21.4435    6.8153   31.1146 N   0  0  0  0  0  0  0  0  0  0  0  0
   20.8639    5.6146   31.0308 C   0  0  0  0  0  0  0  0  0  0  0  0
   19.7396    5.3500   31.4512 O   0  0  0  0  0  0  0  0  0  0  0  0
   21.6499    4.5466   30.2798 C   0  0  0  0  0  0  0  0  0  0  0  0
   23.0247    4.2587   30.8770 C   0  0  0  0  0  0  0  0  0  0  0  0
   24.1218    5.0797   30.5737 C   0  0  0  0  0  0  0  0  0  0  0  0
   23.8940    6.1755   29.7600 O   0  0  0  0  0  0  0  0  0  0  0  0
   24.9260    7.1419   29.5741 C   0  0  0  0  0  0  0  0  0  0  0  0
   25.3756    4.7488   31.1028 C   0  0  0  0  0  0  0  0  0  0  0  0
   25.5283    3.6468   31.9432 C   0  0  0  0  0  0  0  0  0  0  0  0
   27.2648    3.2511   32.6230 Br  0  0  0  0  0  0  0  0  0  0  0  0
   24.4329    2.8399   32.2701 C   0  0  0  0  0  0  0  0  0  0  0  0
   23.1819    3.1565   31.7231 C   0  0  0  0  0  0  0  0  0  0  0  0
   24.6457    1.7801   33.1306 O   0  0  0  0  0  0  0  0  0  0  0  0
   23.7084    0.7066   33.1601 C   0  0  0  0  0  0  0  0  0  0  0  0
    0.0000    0.0000    0.0000 H   0  0  0  0  0  0  0  0  0  0  0  0
    0.0000    0.0000    0.0000 H   0  0  0  0  0  0  0  0  0  0  0  0
    0.0000    0.0000    0.0000 H   0  0  0  0  0  0  0  0  0  0  0  0
    0.0000    0.0000    0.0000 H   0  0  0  0  0  0  0  0  0  0  0  0
    0.0000    0.0000    0.0000 H   0  0  0  0  0  0  0  0  0  0  0  0
    0.0000    0.0000    0.0000 H   0  0  0  0  0  0  0  0  0  0  0  0
    0.0000    0.0000    0.0000 H   0  0  0  0  0  0  0  0  0  0  0  0
    0.0000    0.0000    0.0000 H   0  0  0  0  0  0  0  0  0  0  0  0
    0.0000    0.0000    0.0000 H   0  0  0  0  0  0  0  0  0  0  0  0
    0.0000    0.0000    0.0000 H   0  0  0  0  0  0  0  0  0  0  0  0
    0.0000    0.0000    0.0000 H   0  0  0  0  0  0  0  0  0  0  0  0
    0.0000    0.0000    0.0000 H   0  0  0  0  0  0  0  0  0  0  0  0
    0.0000    0.0000    0.0000 H   0  0  0  0  0  0  0  0  0  0  0  0
    0.0000    0.0000    0.0000 H   0  0  0  0  0  0  0  0  0  0  0  0
   10.4629    5.0218   15.4884 C   0  0  0  0  0  0  0  0  0  0  0  0
   11.0300    5.0832   14.2364 C   0  0  0  0  0  0  0  0  0  0  0  0
   10.3043    4.7291   13.1043 C   0  0  0  0  0  0  0  0  0  0  0  0
    9.0383    4.3293   13.2922 N   0  0  0  0  0  0  0  0  0  0  0  0
    8.4406    4.2503   14.4699 C   0  0  0  0  0  0  0  0  0  0  0  0
    7.1344    3.8315   14.6012 O   0  0  0  0  0  0  0  0  0  0  0  0
    6.3907    3.4684   13.4396 C   0  0  0  0  0  0  0  0  0  0  0  0
    9.1645    4.6032   15.5958 C   0  0  0  0  0  0  0  0  0  0  0  0
   12.0478    5.4096   14.1340 H   0  0  0  0  0  0  0  0  0  0  0  0
   10.8201    4.8053   12.1670 H   0  0  0  0  0  0  0  0  0  0  0  0
    5.3051    3.4603   13.6190 H   0  0  0  0  0  0  0  0  0  0  0  0
    6.7376    2.4802   13.0695 H   0  0  0  0  0  0  0  0  0  0  0  0
    6.6181    4.2048   12.6289 H   0  0  0  0  0  0  0  0  0  0  0  0
    8.7435    4.5650   16.5984 H   0  0  0  0  0  0  0  0  0  0  0  0
  1  2  2  0
  1  7  1  0
  2  3  1  0
  3  4  2  0
  3 10  1  0
  4  5  1  0
  5  6  1  0
  5  7  2  0
  7  8  1  0
  8  9  3  0
 10 11  1  0
 11 12  2  0
 11 13  1  0
 13 14  1  0
 14 15  2  0
 14 22  1  0
 15 16  1  0
 15 18  1  0
 16 17  1  0
 18 19  2  0
 19 20  1  0
 19 21  1  0
 21 22  2  0
 21 23  1  0
 23 24  1  0
  4 25  1  0
  6 26  1  0
  6 27  1  0
 10 28  1  0
 13 29  1  0
 13 30  1  0
 17 31  1  0
 17 32  1  0
 17 33  1  0
 18 34  1  0
 22 35  1  0
 24 36  1  0
 24 37  1  0
 24 38  1  0
 39 40  2  0
 40 41  1  0
 41 42  2  0
 42 43  1  0
 43 44  1  0
 44 45  1  0
 43 46  2  0
 46 39  1  0
 40 47  1  0
 41 48  1  0
 45 49  1  0
 45 50  1  0
 45 51  1  0
 46 52  1  0
  1 39  1  0
M  END
>  <attachment_point>  (486) 
24

>  <score>  (486) 
<NA>

$$$$
17124-1
     RDKit          3D

 55 57  0  0  0  0  0  0  0  0999 V2000
   21.4127   10.2773   31.6976 C   0  0  0  0  0  0  0  0  0  0  0  0
   21.7567    9.0266   31.2850 N   0  0  0  0  0  0  0  0  0  0  0  0
   20.9811    7.9971   31.6572 C   0  0  0  0  0  0  0  0  0  0  0  0
   19.8706    8.1421   32.4769 C   0  0  0  0  0  0  0  0  0  0  0  0
   19.5217    9.4143   32.8937 C   0  0  0  0  0  0  0  0  0  0  0  0
   18.3827    9.4958   33.6863 N   0  0  0  0  0  0  0  0  0  0  0  0
   20.2923   10.5202   32.5003 C   0  0  0  0  0  0  0  0  0  0  0  0
   19.9657   11.8905   32.8774 C   0  0  0  0  0  0  0  0  0  0  0  0
   19.7135   12.9814   33.1712 N   0  0  0  0  0  0  0  0  0  0  0  0
   21.4435    6.8153   31.1146 N   0  0  0  0  0  0  0  0  0  0  0  0
   20.8639    5.6146   31.0308 C   0  0  0  0  0  0  0  0  0  0  0  0
   19.7396    5.3500   31.4512 O   0  0  0  0  0  0  0  0  0  0  0  0
   21.6499    4.5466   30.2798 C   0  0  0  0  0  0  0  0  0  0  0  0
   23.0247    4.2587   30.8770 C   0  0  0  0  0  0  0  0  0  0  0  0
   24.1218    5.0797   30.5737 C   0  0  0  0  0  0  0  0  0  0  0  0
   23.8940    6.1755   29.7600 O   0  0  0  0  0  0  0  0  0  0  0  0
   24.9260    7.1419   29.5741 C   0  0  0  0  0  0  0  0  0  0  0  0
   25.3756    4.7488   31.1028 C   0  0  0  0  0  0  0  0  0  0  0  0
   25.5283    3.6468   31.9432 C   0  0  0  0  0  0  0  0  0  0  0  0
   27.2648    3.2511   32.6230 Br  0  0  0  0  0  0  0  0  0  0  0  0
   24.4329    2.8399   32.2701 C   0  0  0  0  0  0  0  0  0  0  0  0
   23.1819    3.1565   31.7231 C   0  0  0  0  0  0  0  0  0  0  0  0
   24.6457    1.7801   33.1306 O   0  0  0  0  0  0  0  0  0  0  0  0
   23.7084    0.7066   33.1601 C   0  0  0  0  0  0  0  0  0  0  0  0
    0.0000    0.0000    0.0000 H   0  0  0  0  0  0  0  0  0  0  0  0
    0.0000    0.0000    0.0000 H   0  0  0  0  0  0  0  0  0  0  0  0
    0.0000    0.0000    0.0000 H   0  0  0  0  0  0  0  0  0  0  0  0
    0.0000    0.0000    0.0000 H   0  0  0  0  0  0  0  0  0  0  0  0
    0.0000    0.0000    0.0000 H   0  0  0  0  0  0  0  0  0  0  0  0
    0.0000    0.0000    0.0000 H   0  0  0  0  0  0  0  0  0  0  0  0
    0.0000    0.0000    0.0000 H   0  0  0  0  0  0  0  0  0  0  0  0
    0.0000    0.0000    0.0000 H   0  0  0  0  0  0  0  0  0  0  0  0
    0.0000    0.0000    0.0000 H   0  0  0  0  0  0  0  0  0  0  0  0
    0.0000    0.0000    0.0000 H   0  0  0  0  0  0  0  0  0  0  0  0
    0.0000    0.0000    0.0000 H   0  0  0  0  0  0  0  0  0  0  0  0
    0.0000    0.0000    0.0000 H   0  0  0  0  0  0  0  0  0  0  0  0
    0.0000    0.0000    0.0000 H   0  0  0  0  0  0  0  0  0  0  0  0
    0.0000    0.0000    0.0000 H   0  0  0  0  0  0  0  0  0  0  0  0
   10.3586    4.9717   15.3340 C   0  0  0  0  0  0  0  0  0  0  0  0
    9.9216    6.3361   15.1198 C   0  0  0  0  0  0  0  0  0  0  0  0
   10.5982    7.2485   14.3328 C   0  0  0  0  0  0  0  0  0  0  0  0
   10.1483    8.5386   14.1545 C   0  0  0  0  0  0  0  0  0  0  0  0
    8.9945    8.9815   14.7573 C   0  0  0  0  0  0  0  0  0  0  0  0
    8.4914   10.3821   14.5736 C   0  0  0  0  0  0  0  0  0  0  0  0
    8.3067    8.0722   15.5506 C   0  0  0  0  0  0  0  0  0  0  0  0
    8.7650    6.7824   15.7231 C   0  0  0  0  0  0  0  0  0  0  0  0
    9.8366    4.3761   16.0468 H   0  0  0  0  0  0  0  0  0  0  0  0
   11.3100    4.6719   14.9545 H   0  0  0  0  0  0  0  0  0  0  0  0
   11.5056    6.8887   13.8630 H   0  0  0  0  0  0  0  0  0  0  0  0
   10.7111    9.2056   13.5340 H   0  0  0  0  0  0  0  0  0  0  0  0
    7.7631   10.6092   15.3889 H   0  0  0  0  0  0  0  0  0  0  0  0
    9.3277   11.1208   14.6805 H   0  0  0  0  0  0  0  0  0  0  0  0
    8.0512   10.4516   13.5731 H   0  0  0  0  0  0  0  0  0  0  0  0
    7.4018    8.4394   16.0159 H   0  0  0  0  0  0  0  0  0  0  0  0
    8.1822    6.1254   16.3533 H   0  0  0  0  0  0  0  0  0  0  0  0
  1  2  2  0
  1  7  1  0
  2  3  1  0
  3  4  2  0
  3 10  1  0
  4  5  1  0
  5  6  1  0
  5  7  2  0
  7  8  1  0
  8  9  3  0
 10 11  1  0
 11 12  2  0
 11 13  1  0
 13 14  1  0
 14 15  2  0
 14 22  1  0
 15 16  1  0
 15 18  1  0
 16 17  1  0
 18 19  2  0
 19 20  1  0
 19 21  1  0
 21 22  2  0
 21 23  1  0
 23 24  1  0
  4 25  1  0
  6 26  1  0
  6 27  1  0
 10 28  1  0
 13 29  1  0
 13 30  1  0
 17 31  1  0
 17 32  1  0
 17 33  1  0
 18 34  1  0
 22 35  1  0
 24 36  1  0
 24 37  1  0
 24 38  1  0
 39 40  1  0
 40 41  2  0
 41 42  1  0
 42 43  2  0
 43 44  1  0
 43 45  1  0
 45 46  2  0
 46 40  1  0
 39 47  1  0
 39 48  1  0
 41 49  1  0
 42 50  1  0
 44 51  1  0
 44 52  1  0
 44 53  1  0
 45 54  1  0
 46 55  1  0
  1 39  1  0
M  END
>  <attachment_point>  (487) 
24

>  <score>  (487) 
<NA>

$$$$
17124-1
     RDKit          3D

 53 55  0  0  0  0  0  0  0  0999 V2000
   21.4127   10.2773   31.6976 C   0  0  0  0  0  0  0  0  0  0  0  0
   21.7567    9.0266   31.2850 N   0  0  0  0  0  0  0  0  0  0  0  0
   20.9811    7.9971   31.6572 C   0  0  0  0  0  0  0  0  0  0  0  0
   19.8706    8.1421   32.4769 C   0  0  0  0  0  0  0  0  0  0  0  0
   19.5217    9.4143   32.8937 C   0  0  0  0  0  0  0  0  0  0  0  0
   18.3827    9.4958   33.6863 N   0  0  0  0  0  0  0  0  0  0  0  0
   20.2923   10.5202   32.5003 C   0  0  0  0  0  0  0  0  0  0  0  0
   19.9657   11.8905   32.8774 C   0  0  0  0  0  0  0  0  0  0  0  0
   19.7135   12.9814   33.1712 N   0  0  0  0  0  0  0  0  0  0  0  0
   21.4435    6.8153   31.1146 N   0  0  0  0  0  0  0  0  0  0  0  0
   20.8639    5.6146   31.0308 C   0  0  0  0  0  0  0  0  0  0  0  0
   19.7396    5.3500   31.4512 O   0  0  0  0  0  0  0  0  0  0  0  0
   21.6499    4.5466   30.2798 C   0  0  0  0  0  0  0  0  0  0  0  0
   23.0247    4.2587   30.8770 C   0  0  0  0  0  0  0  0  0  0  0  0
   24.1218    5.0797   30.5737 C   0  0  0  0  0  0  0  0  0  0  0  0
   23.8940    6.1755   29.7600 O   0  0  0  0  0  0  0  0  0  0  0  0
   24.9260    7.1419   29.5741 C   0  0  0  0  0  0  0  0  0  0  0  0
   25.3756    4.7488   31.1028 C   0  0  0  0  0  0  0  0  0  0  0  0
   25.5283    3.6468   31.9432 C   0  0  0  0  0  0  0  0  0  0  0  0
   27.2648    3.2511   32.6230 Br  0  0  0  0  0  0  0  0  0  0  0  0
   24.4329    2.8399   32.2701 C   0  0  0  0  0  0  0  0  0  0  0  0
   23.1819    3.1565   31.7231 C   0  0  0  0  0  0  0  0  0  0  0  0
   24.6457    1.7801   33.1306 O   0  0  0  0  0  0  0  0  0  0  0  0
   23.7084    0.7066   33.1601 C   0  0  0  0  0  0  0  0  0  0  0  0
    0.0000    0.0000    0.0000 H   0  0  0  0  0  0  0  0  0  0  0  0
    0.0000    0.0000    0.0000 H   0  0  0  0  0  0  0  0  0  0  0  0
    0.0000    0.0000    0.0000 H   0  0  0  0  0  0  0  0  0  0  0  0
    0.0000    0.0000    0.0000 H   0  0  0  0  0  0  0  0  0  0  0  0
    0.0000    0.0000    0.0000 H   0  0  0  0  0  0  0  0  0  0  0  0
    0.0000    0.0000    0.0000 H   0  0  0  0  0  0  0  0  0  0  0  0
    0.0000    0.0000    0.0000 H   0  0  0  0  0  0  0  0  0  0  0  0
    0.0000    0.0000    0.0000 H   0  0  0  0  0  0  0  0  0  0  0  0
    0.0000    0.0000    0.0000 H   0  0  0  0  0  0  0  0  0  0  0  0
    0.0000    0.0000    0.0000 H   0  0  0  0  0  0  0  0  0  0  0  0
    0.0000    0.0000    0.0000 H   0  0  0  0  0  0  0  0  0  0  0  0
    0.0000    0.0000    0.0000 H   0  0  0  0  0  0  0  0  0  0  0  0
    0.0000    0.0000    0.0000 H   0  0  0  0  0  0  0  0  0  0  0  0
    0.0000    0.0000    0.0000 H   0  0  0  0  0  0  0  0  0  0  0  0
   10.4607    5.0208   15.4852 C   0  0  0  0  0  0  0  0  0  0  0  0
   10.5018    3.7432   14.9846 C   0  0  0  0  0  0  0  0  0  0  0  0
    9.7255    3.4526   13.8709 C   0  0  0  0  0  0  0  0  0  0  0  0
    8.9258    4.3895   13.2589 C   0  0  0  0  0  0  0  0  0  0  0  0
    8.1405    3.9709   12.0786 C   0  0  0  0  0  0  0  0  0  0  0  0
    8.8331    4.1528   10.8974 O   0  0  0  0  0  0  0  0  0  0  0  0
    8.8889    5.6712   13.7666 C   0  0  0  0  0  0  0  0  0  0  0  0
    9.6720    5.9516   14.8845 C   0  0  0  0  0  0  0  0  0  0  0  0
   11.1078    2.9919   15.4306 H   0  0  0  0  0  0  0  0  0  0  0  0
    9.7925    2.4198   13.5093 H   0  0  0  0  0  0  0  0  0  0  0  0
    7.8452    2.8925   12.2327 H   0  0  0  0  0  0  0  0  0  0  0  0
    7.2060    4.5436   12.0751 H   0  0  0  0  0  0  0  0  0  0  0  0
    8.1982    4.5113   10.2269 H   0  0  0  0  0  0  0  0  0  0  0  0
    8.2629    6.4285   13.2978 H   0  0  0  0  0  0  0  0  0  0  0  0
    9.6284    6.9597   15.2654 H   0  0  0  0  0  0  0  0  0  0  0  0
  1  2  2  0
  1  7  1  0
  2  3  1  0
  3  4  2  0
  3 10  1  0
  4  5  1  0
  5  6  1  0
  5  7  2  0
  7  8  1  0
  8  9  3  0
 10 11  1  0
 11 12  2  0
 11 13  1  0
 13 14  1  0
 14 15  2  0
 14 22  1  0
 15 16  1  0
 15 18  1  0
 16 17  1  0
 18 19  2  0
 19 20  1  0
 19 21  1  0
 21 22  2  0
 21 23  1  0
 23 24  1  0
  4 25  1  0
  6 26  1  0
  6 27  1  0
 10 28  1  0
 13 29  1  0
 13 30  1  0
 17 31  1  0
 17 32  1  0
 17 33  1  0
 18 34  1  0
 22 35  1  0
 24 36  1  0
 24 37  1  0
 24 38  1  0
 39 40  2  0
 40 41  1  0
 41 42  2  0
 42 43  1  0
 43 44  1  0
 42 45  1  0
 45 46  2  0
 46 39  1  0
 40 47  1  0
 41 48  1  0
 43 49  1  0
 43 50  1  0
 44 51  1  0
 45 52  1  0
 46 53  1  0
  1 39  1  0
M  END
>  <attachment_point>  (488) 
24

>  <score>  (488) 
<NA>

$$$$
17124-1
     RDKit          3D

 62 65  0  0  0  0  0  0  0  0999 V2000
   21.4127   10.2773   31.6976 C   0  0  0  0  0  0  0  0  0  0  0  0
   21.7567    9.0266   31.2850 N   0  0  0  0  0  0  0  0  0  0  0  0
   20.9811    7.9971   31.6572 C   0  0  0  0  0  0  0  0  0  0  0  0
   19.8706    8.1421   32.4769 C   0  0  0  0  0  0  0  0  0  0  0  0
   19.5217    9.4143   32.8937 C   0  0  0  0  0  0  0  0  0  0  0  0
   18.3827    9.4958   33.6863 N   0  0  0  0  0  0  0  0  0  0  0  0
   20.2923   10.5202   32.5003 C   0  0  0  0  0  0  0  0  0  0  0  0
   19.9657   11.8905   32.8774 C   0  0  0  0  0  0  0  0  0  0  0  0
   19.7135   12.9814   33.1712 N   0  0  0  0  0  0  0  0  0  0  0  0
   21.4435    6.8153   31.1146 N   0  0  0  0  0  0  0  0  0  0  0  0
   20.8639    5.6146   31.0308 C   0  0  0  0  0  0  0  0  0  0  0  0
   19.7396    5.3500   31.4512 O   0  0  0  0  0  0  0  0  0  0  0  0
   21.6499    4.5466   30.2798 C   0  0  0  0  0  0  0  0  0  0  0  0
   23.0247    4.2587   30.8770 C   0  0  0  0  0  0  0  0  0  0  0  0
   24.1218    5.0797   30.5737 C   0  0  0  0  0  0  0  0  0  0  0  0
   23.8940    6.1755   29.7600 O   0  0  0  0  0  0  0  0  0  0  0  0
   24.9260    7.1419   29.5741 C   0  0  0  0  0  0  0  0  0  0  0  0
   25.3756    4.7488   31.1028 C   0  0  0  0  0  0  0  0  0  0  0  0
   25.5283    3.6468   31.9432 C   0  0  0  0  0  0  0  0  0  0  0  0
   27.2648    3.2511   32.6230 Br  0  0  0  0  0  0  0  0  0  0  0  0
   24.4329    2.8399   32.2701 C   0  0  0  0  0  0  0  0  0  0  0  0
   23.1819    3.1565   31.7231 C   0  0  0  0  0  0  0  0  0  0  0  0
   24.6457    1.7801   33.1306 O   0  0  0  0  0  0  0  0  0  0  0  0
   23.7084    0.7066   33.1601 C   0  0  0  0  0  0  0  0  0  0  0  0
    0.0000    0.0000    0.0000 H   0  0  0  0  0  0  0  0  0  0  0  0
    0.0000    0.0000    0.0000 H   0  0  0  0  0  0  0  0  0  0  0  0
    0.0000    0.0000    0.0000 H   0  0  0  0  0  0  0  0  0  0  0  0
    0.0000    0.0000    0.0000 H   0  0  0  0  0  0  0  0  0  0  0  0
    0.0000    0.0000    0.0000 H   0  0  0  0  0  0  0  0  0  0  0  0
    0.0000    0.0000    0.0000 H   0  0  0  0  0  0  0  0  0  0  0  0
    0.0000    0.0000    0.0000 H   0  0  0  0  0  0  0  0  0  0  0  0
    0.0000    0.0000    0.0000 H   0  0  0  0  0  0  0  0  0  0  0  0
    0.0000    0.0000    0.0000 H   0  0  0  0  0  0  0  0  0  0  0  0
    0.0000    0.0000    0.0000 H   0  0  0  0  0  0  0  0  0  0  0  0
    0.0000    0.0000    0.0000 H   0  0  0  0  0  0  0  0  0  0  0  0
    0.0000    0.0000    0.0000 H   0  0  0  0  0  0  0  0  0  0  0  0
    0.0000    0.0000    0.0000 H   0  0  0  0  0  0  0  0  0  0  0  0
    0.0000    0.0000    0.0000 H   0  0  0  0  0  0  0  0  0  0  0  0
   10.4569    5.0189   15.4795 C   0  0  0  0  0  0  0  0  0  0  0  0
    9.2238    4.4718   15.6493 C   0  0  0  0  0  0  0  0  0  0  0  0
    8.4799    4.1141   14.5186 C   0  0  0  0  0  0  0  0  0  0  0  0
    8.9828    4.3107   13.2633 C   0  0  0  0  0  0  0  0  0  0  0  0
    8.2522    3.9569   12.1064 N   0  0  0  0  0  0  0  0  0  0  0  0
    6.9517    3.3381   12.2874 C   0  0  0  0  0  0  0  0  0  0  0  0
    6.5702    2.6649   11.0117 C   0  0  0  0  0  0  0  0  0  0  0  0
    6.6723    3.5489    9.9436 O   0  0  0  0  0  0  0  0  0  0  0  0
    7.9638    3.9016    9.6492 C   0  0  0  0  0  0  0  0  0  0  0  0
    8.8241    4.2248   10.8143 C   0  0  0  0  0  0  0  0  0  0  0  0
   10.2315    4.8656   13.1255 C   0  0  0  0  0  0  0  0  0  0  0  0
   10.9860    5.2278   14.2432 C   0  0  0  0  0  0  0  0  0  0  0  0
    8.8322    4.3191   16.6520 H   0  0  0  0  0  0  0  0  0  0  0  0
    7.4986    3.6798   14.6809 H   0  0  0  0  0  0  0  0  0  0  0  0
    6.2035    4.0855   12.6026 H   0  0  0  0  0  0  0  0  0  0  0  0
    7.0448    2.5299   13.0656 H   0  0  0  0  0  0  0  0  0  0  0  0
    5.4912    2.3844   11.0859 H   0  0  0  0  0  0  0  0  0  0  0  0
    7.1526    1.7395   10.8551 H   0  0  0  0  0  0  0  0  0  0  0  0
    7.9061    4.8283    9.0051 H   0  0  0  0  0  0  0  0  0  0  0  0
    8.4749    3.1511    8.9827 H   0  0  0  0  0  0  0  0  0  0  0  0
    9.7785    3.6548   10.7553 H   0  0  0  0  0  0  0  0  0  0  0  0
    9.1337    5.3114   10.8328 H   0  0  0  0  0  0  0  0  0  0  0  0
   10.6550    5.0328   12.1570 H   0  0  0  0  0  0  0  0  0  0  0  0
   11.9677    5.6640   14.1345 H   0  0  0  0  0  0  0  0  0  0  0  0
  1  2  2  0
  1  7  1  0
  2  3  1  0
  3  4  2  0
  3 10  1  0
  4  5  1  0
  5  6  1  0
  5  7  2  0
  7  8  1  0
  8  9  3  0
 10 11  1  0
 11 12  2  0
 11 13  1  0
 13 14  1  0
 14 15  2  0
 14 22  1  0
 15 16  1  0
 15 18  1  0
 16 17  1  0
 18 19  2  0
 19 20  1  0
 19 21  1  0
 21 22  2  0
 21 23  1  0
 23 24  1  0
  4 25  1  0
  6 26  1  0
  6 27  1  0
 10 28  1  0
 13 29  1  0
 13 30  1  0
 17 31  1  0
 17 32  1  0
 17 33  1  0
 18 34  1  0
 22 35  1  0
 24 36  1  0
 24 37  1  0
 24 38  1  0
 39 40  2  0
 40 41  1  0
 41 42  2  0
 42 43  1  0
 43 44  1  0
 44 45  1  0
 45 46  1  0
 46 47  1  0
 47 48  1  0
 42 49  1  0
 49 50  2  0
 50 39  1  0
 48 43  1  0
 40 51  1  0
 41 52  1  0
 44 53  1  0
 44 54  1  0
 45 55  1  0
 45 56  1  0
 47 57  1  0
 47 58  1  0
 48 59  1  0
 48 60  1  0
 49 61  1  0
 50 62  1  0
  1 39  1  0
M  END
>  <attachment_point>  (489) 
24

>  <score>  (489) 
<NA>

$$$$
17124-1
     RDKit          3D

 54 56  0  0  0  0  0  0  0  0999 V2000
   21.4127   10.2773   31.6976 C   0  0  0  0  0  0  0  0  0  0  0  0
   21.7567    9.0266   31.2850 N   0  0  0  0  0  0  0  0  0  0  0  0
   20.9811    7.9971   31.6572 C   0  0  0  0  0  0  0  0  0  0  0  0
   19.8706    8.1421   32.4769 C   0  0  0  0  0  0  0  0  0  0  0  0
   19.5217    9.4143   32.8937 C   0  0  0  0  0  0  0  0  0  0  0  0
   18.3827    9.4958   33.6863 N   0  0  0  0  0  0  0  0  0  0  0  0
   20.2923   10.5202   32.5003 C   0  0  0  0  0  0  0  0  0  0  0  0
   19.9657   11.8905   32.8774 C   0  0  0  0  0  0  0  0  0  0  0  0
   19.7135   12.9814   33.1712 N   0  0  0  0  0  0  0  0  0  0  0  0
   21.4435    6.8153   31.1146 N   0  0  0  0  0  0  0  0  0  0  0  0
   20.8639    5.6146   31.0308 C   0  0  0  0  0  0  0  0  0  0  0  0
   19.7396    5.3500   31.4512 O   0  0  0  0  0  0  0  0  0  0  0  0
   21.6499    4.5466   30.2798 C   0  0  0  0  0  0  0  0  0  0  0  0
   23.0247    4.2587   30.8770 C   0  0  0  0  0  0  0  0  0  0  0  0
   24.1218    5.0797   30.5737 C   0  0  0  0  0  0  0  0  0  0  0  0
   23.8940    6.1755   29.7600 O   0  0  0  0  0  0  0  0  0  0  0  0
   24.9260    7.1419   29.5741 C   0  0  0  0  0  0  0  0  0  0  0  0
   25.3756    4.7488   31.1028 C   0  0  0  0  0  0  0  0  0  0  0  0
   25.5283    3.6468   31.9432 C   0  0  0  0  0  0  0  0  0  0  0  0
   27.2648    3.2511   32.6230 Br  0  0  0  0  0  0  0  0  0  0  0  0
   24.4329    2.8399   32.2701 C   0  0  0  0  0  0  0  0  0  0  0  0
   23.1819    3.1565   31.7231 C   0  0  0  0  0  0  0  0  0  0  0  0
   24.6457    1.7801   33.1306 O   0  0  0  0  0  0  0  0  0  0  0  0
   23.7084    0.7066   33.1601 C   0  0  0  0  0  0  0  0  0  0  0  0
    0.0000    0.0000    0.0000 H   0  0  0  0  0  0  0  0  0  0  0  0
    0.0000    0.0000    0.0000 H   0  0  0  0  0  0  0  0  0  0  0  0
    0.0000    0.0000    0.0000 H   0  0  0  0  0  0  0  0  0  0  0  0
    0.0000    0.0000    0.0000 H   0  0  0  0  0  0  0  0  0  0  0  0
    0.0000    0.0000    0.0000 H   0  0  0  0  0  0  0  0  0  0  0  0
    0.0000    0.0000    0.0000 H   0  0  0  0  0  0  0  0  0  0  0  0
    0.0000    0.0000    0.0000 H   0  0  0  0  0  0  0  0  0  0  0  0
    0.0000    0.0000    0.0000 H   0  0  0  0  0  0  0  0  0  0  0  0
    0.0000    0.0000    0.0000 H   0  0  0  0  0  0  0  0  0  0  0  0
    0.0000    0.0000    0.0000 H   0  0  0  0  0  0  0  0  0  0  0  0
    0.0000    0.0000    0.0000 H   0  0  0  0  0  0  0  0  0  0  0  0
    0.0000    0.0000    0.0000 H   0  0  0  0  0  0  0  0  0  0  0  0
    0.0000    0.0000    0.0000 H   0  0  0  0  0  0  0  0  0  0  0  0
    0.0000    0.0000    0.0000 H   0  0  0  0  0  0  0  0  0  0  0  0
   10.4917    5.0356   15.5310 N   0  0  0  0  0  0  0  0  0  0  0  0
   10.3995    3.6737   15.0896 C   0  0  0  0  0  0  0  0  0  0  0  0
    9.7959    6.0467   14.8121 C   0  0  0  0  0  0  0  0  0  0  0  0
    9.0370    5.7410   13.7021 C   0  0  0  0  0  0  0  0  0  0  0  0
    8.3629    6.7441   13.0109 C   0  0  0  0  0  0  0  0  0  0  0  0
    8.4261    8.0655   13.4034 C   0  0  0  0  0  0  0  0  0  0  0  0
    9.1889    8.3528   14.5145 C   0  0  0  0  0  0  0  0  0  0  0  0
    9.8628    7.3691   15.2098 C   0  0  0  0  0  0  0  0  0  0  0  0
    9.4394    3.2229   15.4033 H   0  0  0  0  0  0  0  0  0  0  0  0
   11.2077    3.0811   15.6113 H   0  0  0  0  0  0  0  0  0  0  0  0
   10.5702    3.5944   13.9871 H   0  0  0  0  0  0  0  0  0  0  0  0
    8.9714    4.7041   13.3722 H   0  0  0  0  0  0  0  0  0  0  0  0
    7.7690    6.4996   12.1410 H   0  0  0  0  0  0  0  0  0  0  0  0
    7.9073    8.8636   12.8775 H   0  0  0  0  0  0  0  0  0  0  0  0
    9.2362    9.4013   14.8220 H   0  0  0  0  0  0  0  0  0  0  0  0
   10.4656    7.6030   16.0894 H   0  0  0  0  0  0  0  0  0  0  0  0
  1  2  2  0
  1  7  1  0
  2  3  1  0
  3  4  2  0
  3 10  1  0
  4  5  1  0
  5  6  1  0
  5  7  2  0
  7  8  1  0
  8  9  3  0
 10 11  1  0
 11 12  2  0
 11 13  1  0
 13 14  1  0
 14 15  2  0
 14 22  1  0
 15 16  1  0
 15 18  1  0
 16 17  1  0
 18 19  2  0
 19 20  1  0
 19 21  1  0
 21 22  2  0
 21 23  1  0
 23 24  1  0
  4 25  1  0
  6 26  1  0
  6 27  1  0
 10 28  1  0
 13 29  1  0
 13 30  1  0
 17 31  1  0
 17 32  1  0
 17 33  1  0
 18 34  1  0
 22 35  1  0
 24 36  1  0
 24 37  1  0
 24 38  1  0
 39 40  1  0
 39 41  1  0
 41 42  2  0
 42 43  1  0
 43 44  2  0
 44 45  1  0
 45 46  2  0
 46 41  1  0
 40 47  1  0
 40 48  1  0
 40 49  1  0
 42 50  1  0
 43 51  1  0
 44 52  1  0
 45 53  1  0
 46 54  1  0
  1 39  1  0
M  END
>  <attachment_point>  (490) 
24

>  <score>  (490) 
<NA>

$$$$
17124-1
     RDKit          3D

 56 58  0  0  0  0  0  0  0  0999 V2000
   21.4127   10.2773   31.6976 C   0  0  0  0  0  0  0  0  0  0  0  0
   21.7567    9.0266   31.2850 N   0  0  0  0  0  0  0  0  0  0  0  0
   20.9811    7.9971   31.6572 C   0  0  0  0  0  0  0  0  0  0  0  0
   19.8706    8.1421   32.4769 C   0  0  0  0  0  0  0  0  0  0  0  0
   19.5217    9.4143   32.8937 C   0  0  0  0  0  0  0  0  0  0  0  0
   18.3827    9.4958   33.6863 N   0  0  0  0  0  0  0  0  0  0  0  0
   20.2923   10.5202   32.5003 C   0  0  0  0  0  0  0  0  0  0  0  0
   19.9657   11.8905   32.8774 C   0  0  0  0  0  0  0  0  0  0  0  0
   19.7135   12.9814   33.1712 N   0  0  0  0  0  0  0  0  0  0  0  0
   21.4435    6.8153   31.1146 N   0  0  0  0  0  0  0  0  0  0  0  0
   20.8639    5.6146   31.0308 C   0  0  0  0  0  0  0  0  0  0  0  0
   19.7396    5.3500   31.4512 O   0  0  0  0  0  0  0  0  0  0  0  0
   21.6499    4.5466   30.2798 C   0  0  0  0  0  0  0  0  0  0  0  0
   23.0247    4.2587   30.8770 C   0  0  0  0  0  0  0  0  0  0  0  0
   24.1218    5.0797   30.5737 C   0  0  0  0  0  0  0  0  0  0  0  0
   23.8940    6.1755   29.7600 O   0  0  0  0  0  0  0  0  0  0  0  0
   24.9260    7.1419   29.5741 C   0  0  0  0  0  0  0  0  0  0  0  0
   25.3756    4.7488   31.1028 C   0  0  0  0  0  0  0  0  0  0  0  0
   25.5283    3.6468   31.9432 C   0  0  0  0  0  0  0  0  0  0  0  0
   27.2648    3.2511   32.6230 Br  0  0  0  0  0  0  0  0  0  0  0  0
   24.4329    2.8399   32.2701 C   0  0  0  0  0  0  0  0  0  0  0  0
   23.1819    3.1565   31.7231 C   0  0  0  0  0  0  0  0  0  0  0  0
   24.6457    1.7801   33.1306 O   0  0  0  0  0  0  0  0  0  0  0  0
   23.7084    0.7066   33.1601 C   0  0  0  0  0  0  0  0  0  0  0  0
    0.0000    0.0000    0.0000 H   0  0  0  0  0  0  0  0  0  0  0  0
    0.0000    0.0000    0.0000 H   0  0  0  0  0  0  0  0  0  0  0  0
    0.0000    0.0000    0.0000 H   0  0  0  0  0  0  0  0  0  0  0  0
    0.0000    0.0000    0.0000 H   0  0  0  0  0  0  0  0  0  0  0  0
    0.0000    0.0000    0.0000 H   0  0  0  0  0  0  0  0  0  0  0  0
    0.0000    0.0000    0.0000 H   0  0  0  0  0  0  0  0  0  0  0  0
    0.0000    0.0000    0.0000 H   0  0  0  0  0  0  0  0  0  0  0  0
    0.0000    0.0000    0.0000 H   0  0  0  0  0  0  0  0  0  0  0  0
    0.0000    0.0000    0.0000 H   0  0  0  0  0  0  0  0  0  0  0  0
    0.0000    0.0000    0.0000 H   0  0  0  0  0  0  0  0  0  0  0  0
    0.0000    0.0000    0.0000 H   0  0  0  0  0  0  0  0  0  0  0  0
    0.0000    0.0000    0.0000 H   0  0  0  0  0  0  0  0  0  0  0  0
    0.0000    0.0000    0.0000 H   0  0  0  0  0  0  0  0  0  0  0  0
    0.0000    0.0000    0.0000 H   0  0  0  0  0  0  0  0  0  0  0  0
   10.4697    5.0251   15.4984 C   0  0  0  0  0  0  0  0  0  0  0  0
   10.8496    5.8379   14.3253 C   0  0  0  0  0  0  0  0  0  0  0  0
   10.2014    7.0296   14.0716 C   0  0  0  0  0  0  0  0  0  0  0  0
   10.6074    7.7371   12.9590 C   0  0  0  0  0  0  0  0  0  0  0  0
   11.6144    7.2878   12.1268 C   0  0  0  0  0  0  0  0  0  0  0  0
   12.2634    6.0970   12.3787 C   0  0  0  0  0  0  0  0  0  0  0  0
   13.2728    5.6621   11.5312 O   0  0  0  0  0  0  0  0  0  0  0  0
   13.8954    4.4324   11.8491 C   0  0  0  0  0  0  0  0  0  0  0  0
   11.8628    5.3843   13.4893 C   0  0  0  0  0  0  0  0  0  0  0  0
    9.3786    5.1149   15.7058 H   0  0  0  0  0  0  0  0  0  0  0  0
   10.6948    3.9498   15.3048 H   0  0  0  0  0  0  0  0  0  0  0  0
    9.4025    7.4028   14.7170 H   0  0  0  0  0  0  0  0  0  0  0  0
   10.1132    8.6711   12.7432 H   0  0  0  0  0  0  0  0  0  0  0  0
   11.9354    7.8526   11.2423 H   0  0  0  0  0  0  0  0  0  0  0  0
   14.3569    4.4339   12.8497 H   0  0  0  0  0  0  0  0  0  0  0  0
   14.5805    4.1071   11.0420 H   0  0  0  0  0  0  0  0  0  0  0  0
   13.0593    3.6755   11.9093 H   0  0  0  0  0  0  0  0  0  0  0  0
   12.3834    4.4524   13.6712 H   0  0  0  0  0  0  0  0  0  0  0  0
  1  2  2  0
  1  7  1  0
  2  3  1  0
  3  4  2  0
  3 10  1  0
  4  5  1  0
  5  6  1  0
  5  7  2  0
  7  8  1  0
  8  9  3  0
 10 11  1  0
 11 12  2  0
 11 13  1  0
 13 14  1  0
 14 15  2  0
 14 22  1  0
 15 16  1  0
 15 18  1  0
 16 17  1  0
 18 19  2  0
 19 20  1  0
 19 21  1  0
 21 22  2  0
 21 23  1  0
 23 24  1  0
  4 25  1  0
  6 26  1  0
  6 27  1  0
 10 28  1  0
 13 29  1  0
 13 30  1  0
 17 31  1  0
 17 32  1  0
 17 33  1  0
 18 34  1  0
 22 35  1  0
 24 36  1  0
 24 37  1  0
 24 38  1  0
 39 40  1  0
 40 41  2  0
 41 42  1  0
 42 43  2  0
 43 44  1  0
 44 45  1  0
 45 46  1  0
 44 47  2  0
 47 40  1  0
 39 48  1  0
 39 49  1  0
 41 50  1  0
 42 51  1  0
 43 52  1  0
 46 53  1  0
 46 54  1  0
 46 55  1  0
 47 56  1  0
  1 39  1  0
M  END
>  <attachment_point>  (491) 
24

>  <score>  (491) 
<NA>

$$$$
17124-1
     RDKit          3D

 55 57  0  0  0  0  0  0  0  0999 V2000
   21.4127   10.2773   31.6976 C   0  0  0  0  0  0  0  0  0  0  0  0
   21.7567    9.0266   31.2850 N   0  0  0  0  0  0  0  0  0  0  0  0
   20.9811    7.9971   31.6572 C   0  0  0  0  0  0  0  0  0  0  0  0
   19.8706    8.1421   32.4769 C   0  0  0  0  0  0  0  0  0  0  0  0
   19.5217    9.4143   32.8937 C   0  0  0  0  0  0  0  0  0  0  0  0
   18.3827    9.4958   33.6863 N   0  0  0  0  0  0  0  0  0  0  0  0
   20.2923   10.5202   32.5003 C   0  0  0  0  0  0  0  0  0  0  0  0
   19.9657   11.8905   32.8774 C   0  0  0  0  0  0  0  0  0  0  0  0
   19.7135   12.9814   33.1712 N   0  0  0  0  0  0  0  0  0  0  0  0
   21.4435    6.8153   31.1146 N   0  0  0  0  0  0  0  0  0  0  0  0
   20.8639    5.6146   31.0308 C   0  0  0  0  0  0  0  0  0  0  0  0
   19.7396    5.3500   31.4512 O   0  0  0  0  0  0  0  0  0  0  0  0
   21.6499    4.5466   30.2798 C   0  0  0  0  0  0  0  0  0  0  0  0
   23.0247    4.2587   30.8770 C   0  0  0  0  0  0  0  0  0  0  0  0
   24.1218    5.0797   30.5737 C   0  0  0  0  0  0  0  0  0  0  0  0
   23.8940    6.1755   29.7600 O   0  0  0  0  0  0  0  0  0  0  0  0
   24.9260    7.1419   29.5741 C   0  0  0  0  0  0  0  0  0  0  0  0
   25.3756    4.7488   31.1028 C   0  0  0  0  0  0  0  0  0  0  0  0
   25.5283    3.6468   31.9432 C   0  0  0  0  0  0  0  0  0  0  0  0
   27.2648    3.2511   32.6230 Br  0  0  0  0  0  0  0  0  0  0  0  0
   24.4329    2.8399   32.2701 C   0  0  0  0  0  0  0  0  0  0  0  0
   23.1819    3.1565   31.7231 C   0  0  0  0  0  0  0  0  0  0  0  0
   24.6457    1.7801   33.1306 O   0  0  0  0  0  0  0  0  0  0  0  0
   23.7084    0.7066   33.1601 C   0  0  0  0  0  0  0  0  0  0  0  0
    0.0000    0.0000    0.0000 H   0  0  0  0  0  0  0  0  0  0  0  0
    0.0000    0.0000    0.0000 H   0  0  0  0  0  0  0  0  0  0  0  0
    0.0000    0.0000    0.0000 H   0  0  0  0  0  0  0  0  0  0  0  0
    0.0000    0.0000    0.0000 H   0  0  0  0  0  0  0  0  0  0  0  0
    0.0000    0.0000    0.0000 H   0  0  0  0  0  0  0  0  0  0  0  0
    0.0000    0.0000    0.0000 H   0  0  0  0  0  0  0  0  0  0  0  0
    0.0000    0.0000    0.0000 H   0  0  0  0  0  0  0  0  0  0  0  0
    0.0000    0.0000    0.0000 H   0  0  0  0  0  0  0  0  0  0  0  0
    0.0000    0.0000    0.0000 H   0  0  0  0  0  0  0  0  0  0  0  0
    0.0000    0.0000    0.0000 H   0  0  0  0  0  0  0  0  0  0  0  0
    0.0000    0.0000    0.0000 H   0  0  0  0  0  0  0  0  0  0  0  0
    0.0000    0.0000    0.0000 H   0  0  0  0  0  0  0  0  0  0  0  0
    0.0000    0.0000    0.0000 H   0  0  0  0  0  0  0  0  0  0  0  0
    0.0000    0.0000    0.0000 H   0  0  0  0  0  0  0  0  0  0  0  0
   10.4707    5.0256   15.5000 C   0  0  1  0  0  0  0  0  0  0  0  0
   11.1388    3.8232   14.8993 C   0  0  0  0  0  0  0  0  0  0  0  0
    9.0677    4.7893   15.8877 C   0  0  0  0  0  0  0  0  0  0  0  0
    8.0202    5.5315   15.3899 C   0  0  0  0  0  0  0  0  0  0  0  0
    6.7120    5.2524   15.8019 C   0  0  0  0  0  0  0  0  0  0  0  0
    6.4362    4.2449   16.7017 C   0  0  0  0  0  0  0  0  0  0  0  0
    7.4965    3.5111   17.1906 C   0  0  0  0  0  0  0  0  0  0  0  0
    8.7955    3.7879   16.7818 C   0  0  0  0  0  0  0  0  0  0  0  0
   10.5652    5.8632   14.7698 H   0  0  0  0  0  0  0  0  0  0  0  0
   12.2397    3.9850   14.9846 H   0  0  0  0  0  0  0  0  0  0  0  0
   10.9257    2.8894   15.4617 H   0  0  0  0  0  0  0  0  0  0  0  0
   10.8971    3.6667   13.8372 H   0  0  0  0  0  0  0  0  0  0  0  0
    8.2388    6.3168   14.6882 H   0  0  0  0  0  0  0  0  0  0  0  0
    5.9067    5.8438   15.4014 H   0  0  0  0  0  0  0  0  0  0  0  0
    5.4028    4.0323   17.0204 H   0  0  0  0  0  0  0  0  0  0  0  0
    7.2785    2.7152   17.9014 H   0  0  0  0  0  0  0  0  0  0  0  0
    9.5955    3.1993   17.1807 H   0  0  0  0  0  0  0  0  0  0  0  0
  1  2  2  0
  1  7  1  0
  2  3  1  0
  3  4  2  0
  3 10  1  0
  4  5  1  0
  5  6  1  0
  5  7  2  0
  7  8  1  0
  8  9  3  0
 10 11  1  0
 11 12  2  0
 11 13  1  0
 13 14  1  0
 14 15  2  0
 14 22  1  0
 15 16  1  0
 15 18  1  0
 16 17  1  0
 18 19  2  0
 19 20  1  0
 19 21  1  0
 21 22  2  0
 21 23  1  0
 23 24  1  0
  4 25  1  0
  6 26  1  0
  6 27  1  0
 10 28  1  0
 13 29  1  0
 13 30  1  0
 17 31  1  0
 17 32  1  0
 17 33  1  0
 18 34  1  0
 22 35  1  0
 24 36  1  0
 24 37  1  0
 24 38  1  0
 39 40  1  0
 39 41  1  0
 41 42  2  0
 42 43  1  0
 43 44  2  0
 44 45  1  0
 45 46  2  0
 46 41  1  0
 39 47  1  1
 40 48  1  0
 40 49  1  0
 40 50  1  0
 42 51  1  0
 43 52  1  0
 44 53  1  0
 45 54  1  0
 46 55  1  0
  1 39  1  0
M  END
>  <attachment_point>  (492) 
24

>  <score>  (492) 
<NA>

$$$$
17124-1
     RDKit          3D

 57 59  0  0  0  0  0  0  0  0999 V2000
   21.4127   10.2773   31.6976 C   0  0  0  0  0  0  0  0  0  0  0  0
   21.7567    9.0266   31.2850 N   0  0  0  0  0  0  0  0  0  0  0  0
   20.9811    7.9971   31.6572 C   0  0  0  0  0  0  0  0  0  0  0  0
   19.8706    8.1421   32.4769 C   0  0  0  0  0  0  0  0  0  0  0  0
   19.5217    9.4143   32.8937 C   0  0  0  0  0  0  0  0  0  0  0  0
   18.3827    9.4958   33.6863 N   0  0  0  0  0  0  0  0  0  0  0  0
   20.2923   10.5202   32.5003 C   0  0  0  0  0  0  0  0  0  0  0  0
   19.9657   11.8905   32.8774 C   0  0  0  0  0  0  0  0  0  0  0  0
   19.7135   12.9814   33.1712 N   0  0  0  0  0  0  0  0  0  0  0  0
   21.4435    6.8153   31.1146 N   0  0  0  0  0  0  0  0  0  0  0  0
   20.8639    5.6146   31.0308 C   0  0  0  0  0  0  0  0  0  0  0  0
   19.7396    5.3500   31.4512 O   0  0  0  0  0  0  0  0  0  0  0  0
   21.6499    4.5466   30.2798 C   0  0  0  0  0  0  0  0  0  0  0  0
   23.0247    4.2587   30.8770 C   0  0  0  0  0  0  0  0  0  0  0  0
   24.1218    5.0797   30.5737 C   0  0  0  0  0  0  0  0  0  0  0  0
   23.8940    6.1755   29.7600 O   0  0  0  0  0  0  0  0  0  0  0  0
   24.9260    7.1419   29.5741 C   0  0  0  0  0  0  0  0  0  0  0  0
   25.3756    4.7488   31.1028 C   0  0  0  0  0  0  0  0  0  0  0  0
   25.5283    3.6468   31.9432 C   0  0  0  0  0  0  0  0  0  0  0  0
   27.2648    3.2511   32.6230 Br  0  0  0  0  0  0  0  0  0  0  0  0
   24.4329    2.8399   32.2701 C   0  0  0  0  0  0  0  0  0  0  0  0
   23.1819    3.1565   31.7231 C   0  0  0  0  0  0  0  0  0  0  0  0
   24.6457    1.7801   33.1306 O   0  0  0  0  0  0  0  0  0  0  0  0
   23.7084    0.7066   33.1601 C   0  0  0  0  0  0  0  0  0  0  0  0
    0.0000    0.0000    0.0000 H   0  0  0  0  0  0  0  0  0  0  0  0
    0.0000    0.0000    0.0000 H   0  0  0  0  0  0  0  0  0  0  0  0
    0.0000    0.0000    0.0000 H   0  0  0  0  0  0  0  0  0  0  0  0
    0.0000    0.0000    0.0000 H   0  0  0  0  0  0  0  0  0  0  0  0
    0.0000    0.0000    0.0000 H   0  0  0  0  0  0  0  0  0  0  0  0
    0.0000    0.0000    0.0000 H   0  0  0  0  0  0  0  0  0  0  0  0
    0.0000    0.0000    0.0000 H   0  0  0  0  0  0  0  0  0  0  0  0
    0.0000    0.0000    0.0000 H   0  0  0  0  0  0  0  0  0  0  0  0
    0.0000    0.0000    0.0000 H   0  0  0  0  0  0  0  0  0  0  0  0
    0.0000    0.0000    0.0000 H   0  0  0  0  0  0  0  0  0  0  0  0
    0.0000    0.0000    0.0000 H   0  0  0  0  0  0  0  0  0  0  0  0
    0.0000    0.0000    0.0000 H   0  0  0  0  0  0  0  0  0  0  0  0
    0.0000    0.0000    0.0000 H   0  0  0  0  0  0  0  0  0  0  0  0
    0.0000    0.0000    0.0000 H   0  0  0  0  0  0  0  0  0  0  0  0
   10.4724    5.0264   15.5025 C   0  0  0  0  0  0  0  0  0  0  0  0
   11.0955    4.4203   14.4541 C   0  0  0  0  0  0  0  0  0  0  0  0
   10.3443    4.0660   13.3558 C   0  0  0  0  0  0  0  0  0  0  0  0
   10.9492    3.4508   12.2795 O   0  0  0  0  0  0  0  0  0  0  0  0
   12.3153    3.1896   12.3054 C   0  0  0  0  0  0  0  0  0  0  0  0
    8.9880    4.3169   13.3117 C   0  0  0  0  0  0  0  0  0  0  0  0
    8.3384    4.9297   14.3633 C   0  0  0  0  0  0  0  0  0  0  0  0
    6.9767    5.1599   14.2716 O   0  0  0  0  0  0  0  0  0  0  0  0
    6.1872    5.7646   15.2457 C   0  0  0  0  0  0  0  0  0  0  0  0
    9.0970    5.2810   15.4584 C   0  0  0  0  0  0  0  0  0  0  0  0
   12.1651    4.2351   14.5163 H   0  0  0  0  0  0  0  0  0  0  0  0
   12.8881    4.1494   12.3844 H   0  0  0  0  0  0  0  0  0  0  0  0
   12.6979    2.6561   11.4345 H   0  0  0  0  0  0  0  0  0  0  0  0
   12.5515    2.6070   13.2302 H   0  0  0  0  0  0  0  0  0  0  0  0
    8.3938    4.0326   12.4340 H   0  0  0  0  0  0  0  0  0  0  0  0
    6.1502    6.8662   15.0102 H   0  0  0  0  0  0  0  0  0  0  0  0
    6.5994    5.7026   16.2782 H   0  0  0  0  0  0  0  0  0  0  0  0
    5.1213    5.4210   15.2160 H   0  0  0  0  0  0  0  0  0  0  0  0
    8.6330    5.7587   16.2961 H   0  0  0  0  0  0  0  0  0  0  0  0
  1  2  2  0
  1  7  1  0
  2  3  1  0
  3  4  2  0
  3 10  1  0
  4  5  1  0
  5  6  1  0
  5  7  2  0
  7  8  1  0
  8  9  3  0
 10 11  1  0
 11 12  2  0
 11 13  1  0
 13 14  1  0
 14 15  2  0
 14 22  1  0
 15 16  1  0
 15 18  1  0
 16 17  1  0
 18 19  2  0
 19 20  1  0
 19 21  1  0
 21 22  2  0
 21 23  1  0
 23 24  1  0
  4 25  1  0
  6 26  1  0
  6 27  1  0
 10 28  1  0
 13 29  1  0
 13 30  1  0
 17 31  1  0
 17 32  1  0
 17 33  1  0
 18 34  1  0
 22 35  1  0
 24 36  1  0
 24 37  1  0
 24 38  1  0
 39 40  2  0
 40 41  1  0
 41 42  1  0
 42 43  1  0
 41 44  2  0
 44 45  1  0
 45 46  1  0
 46 47  1  0
 45 48  2  0
 48 39  1  0
 40 49  1  0
 43 50  1  0
 43 51  1  0
 43 52  1  0
 44 53  1  0
 47 54  1  0
 47 55  1  0
 47 56  1  0
 48 57  1  0
  1 39  1  0
M  END
>  <attachment_point>  (493) 
24

>  <score>  (493) 
<NA>

$$$$
17124-1
     RDKit          3D

 56 59  0  0  0  0  0  0  0  0999 V2000
   21.4127   10.2773   31.6976 C   0  0  0  0  0  0  0  0  0  0  0  0
   21.7567    9.0266   31.2850 N   0  0  0  0  0  0  0  0  0  0  0  0
   20.9811    7.9971   31.6572 C   0  0  0  0  0  0  0  0  0  0  0  0
   19.8706    8.1421   32.4769 C   0  0  0  0  0  0  0  0  0  0  0  0
   19.5217    9.4143   32.8937 C   0  0  0  0  0  0  0  0  0  0  0  0
   18.3827    9.4958   33.6863 N   0  0  0  0  0  0  0  0  0  0  0  0
   20.2923   10.5202   32.5003 C   0  0  0  0  0  0  0  0  0  0  0  0
   19.9657   11.8905   32.8774 C   0  0  0  0  0  0  0  0  0  0  0  0
   19.7135   12.9814   33.1712 N   0  0  0  0  0  0  0  0  0  0  0  0
   21.4435    6.8153   31.1146 N   0  0  0  0  0  0  0  0  0  0  0  0
   20.8639    5.6146   31.0308 C   0  0  0  0  0  0  0  0  0  0  0  0
   19.7396    5.3500   31.4512 O   0  0  0  0  0  0  0  0  0  0  0  0
   21.6499    4.5466   30.2798 C   0  0  0  0  0  0  0  0  0  0  0  0
   23.0247    4.2587   30.8770 C   0  0  0  0  0  0  0  0  0  0  0  0
   24.1218    5.0797   30.5737 C   0  0  0  0  0  0  0  0  0  0  0  0
   23.8940    6.1755   29.7600 O   0  0  0  0  0  0  0  0  0  0  0  0
   24.9260    7.1419   29.5741 C   0  0  0  0  0  0  0  0  0  0  0  0
   25.3756    4.7488   31.1028 C   0  0  0  0  0  0  0  0  0  0  0  0
   25.5283    3.6468   31.9432 C   0  0  0  0  0  0  0  0  0  0  0  0
   27.2648    3.2511   32.6230 Br  0  0  0  0  0  0  0  0  0  0  0  0
   24.4329    2.8399   32.2701 C   0  0  0  0  0  0  0  0  0  0  0  0
   23.1819    3.1565   31.7231 C   0  0  0  0  0  0  0  0  0  0  0  0
   24.6457    1.7801   33.1306 O   0  0  0  0  0  0  0  0  0  0  0  0
   23.7084    0.7066   33.1601 C   0  0  0  0  0  0  0  0  0  0  0  0
    0.0000    0.0000    0.0000 H   0  0  0  0  0  0  0  0  0  0  0  0
    0.0000    0.0000    0.0000 H   0  0  0  0  0  0  0  0  0  0  0  0
    0.0000    0.0000    0.0000 H   0  0  0  0  0  0  0  0  0  0  0  0
    0.0000    0.0000    0.0000 H   0  0  0  0  0  0  0  0  0  0  0  0
    0.0000    0.0000    0.0000 H   0  0  0  0  0  0  0  0  0  0  0  0
    0.0000    0.0000    0.0000 H   0  0  0  0  0  0  0  0  0  0  0  0
    0.0000    0.0000    0.0000 H   0  0  0  0  0  0  0  0  0  0  0  0
    0.0000    0.0000    0.0000 H   0  0  0  0  0  0  0  0  0  0  0  0
    0.0000    0.0000    0.0000 H   0  0  0  0  0  0  0  0  0  0  0  0
    0.0000    0.0000    0.0000 H   0  0  0  0  0  0  0  0  0  0  0  0
    0.0000    0.0000    0.0000 H   0  0  0  0  0  0  0  0  0  0  0  0
    0.0000    0.0000    0.0000 H   0  0  0  0  0  0  0  0  0  0  0  0
    0.0000    0.0000    0.0000 H   0  0  0  0  0  0  0  0  0  0  0  0
    0.0000    0.0000    0.0000 H   0  0  0  0  0  0  0  0  0  0  0  0
   10.4812    5.0306   15.5155 C   0  0  2  0  0  0  0  0  0  0  0  0
    9.8841    6.0738   14.6454 C   0  0  0  0  0  0  0  0  0  0  0  0
    8.9667    5.3306   15.5149 C   0  0  2  0  0  0  0  0  0  0  0  0
    8.4872    5.8762   16.8079 C   0  0  0  0  0  0  0  0  0  0  0  0
    7.3212    5.4947   17.4187 C   0  0  0  0  0  0  0  0  0  0  0  0
    6.9548    6.0599   18.6266 C   0  0  0  0  0  0  0  0  0  0  0  0
    7.7522    6.9982   19.2133 C   0  0  0  0  0  0  0  0  0  0  0  0
    8.9333    7.4007   18.6184 C   0  0  0  0  0  0  0  0  0  0  0  0
    9.2709    6.8275   17.4278 C   0  0  0  0  0  0  0  0  0  0  0  0
   10.7884    4.0693   15.0662 H   0  0  0  0  0  0  0  0  0  0  0  0
   10.0535    7.1580   14.8312 H   0  0  0  0  0  0  0  0  0  0  0  0
    9.8017    5.8576   13.5479 H   0  0  0  0  0  0  0  0  0  0  0  0
    8.3020    4.5667   15.0531 H   0  0  0  0  0  0  0  0  0  0  0  0
    6.7217    4.7522   16.9227 H   0  0  0  0  0  0  0  0  0  0  0  0
    6.0386    5.7720   19.1243 H   0  0  0  0  0  0  0  0  0  0  0  0
    7.4734    7.4544   20.1710 H   0  0  0  0  0  0  0  0  0  0  0  0
    9.5943    8.1468   19.0579 H   0  0  0  0  0  0  0  0  0  0  0  0
   10.2135    7.1544   16.9614 H   0  0  0  0  0  0  0  0  0  0  0  0
  1  2  2  0
  1  7  1  0
  2  3  1  0
  3  4  2  0
  3 10  1  0
  4  5  1  0
  5  6  1  0
  5  7  2  0
  7  8  1  0
  8  9  3  0
 10 11  1  0
 11 12  2  0
 11 13  1  0
 13 14  1  0
 14 15  2  0
 14 22  1  0
 15 16  1  0
 15 18  1  0
 16 17  1  0
 18 19  2  0
 19 20  1  0
 19 21  1  0
 21 22  2  0
 21 23  1  0
 23 24  1  0
  4 25  1  0
  6 26  1  0
  6 27  1  0
 10 28  1  0
 13 29  1  0
 13 30  1  0
 17 31  1  0
 17 32  1  0
 17 33  1  0
 18 34  1  0
 22 35  1  0
 24 36  1  0
 24 37  1  0
 24 38  1  0
 39 40  1  0
 40 41  1  0
 41 42  1  0
 42 43  2  0
 43 44  1  0
 44 45  2  0
 45 46  1  0
 46 47  2  0
 41 39  1  0
 47 42  1  0
 39 48  1  1
 40 49  1  0
 40 50  1  0
 41 51  1  6
 43 52  1  0
 44 53  1  0
 45 54  1  0
 46 55  1  0
 47 56  1  0
  1 39  1  0
M  END
>  <attachment_point>  (494) 
24

>  <score>  (494) 
<NA>

$$$$
17124-1
     RDKit          3D

 58 60  0  0  0  0  0  0  0  0999 V2000
   21.4127   10.2773   31.6976 C   0  0  0  0  0  0  0  0  0  0  0  0
   21.7567    9.0266   31.2850 N   0  0  0  0  0  0  0  0  0  0  0  0
   20.9811    7.9971   31.6572 C   0  0  0  0  0  0  0  0  0  0  0  0
   19.8706    8.1421   32.4769 C   0  0  0  0  0  0  0  0  0  0  0  0
   19.5217    9.4143   32.8937 C   0  0  0  0  0  0  0  0  0  0  0  0
   18.3827    9.4958   33.6863 N   0  0  0  0  0  0  0  0  0  0  0  0
   20.2923   10.5202   32.5003 C   0  0  0  0  0  0  0  0  0  0  0  0
   19.9657   11.8905   32.8774 C   0  0  0  0  0  0  0  0  0  0  0  0
   19.7135   12.9814   33.1712 N   0  0  0  0  0  0  0  0  0  0  0  0
   21.4435    6.8153   31.1146 N   0  0  0  0  0  0  0  0  0  0  0  0
   20.8639    5.6146   31.0308 C   0  0  0  0  0  0  0  0  0  0  0  0
   19.7396    5.3500   31.4512 O   0  0  0  0  0  0  0  0  0  0  0  0
   21.6499    4.5466   30.2798 C   0  0  0  0  0  0  0  0  0  0  0  0
   23.0247    4.2587   30.8770 C   0  0  0  0  0  0  0  0  0  0  0  0
   24.1218    5.0797   30.5737 C   0  0  0  0  0  0  0  0  0  0  0  0
   23.8940    6.1755   29.7600 O   0  0  0  0  0  0  0  0  0  0  0  0
   24.9260    7.1419   29.5741 C   0  0  0  0  0  0  0  0  0  0  0  0
   25.3756    4.7488   31.1028 C   0  0  0  0  0  0  0  0  0  0  0  0
   25.5283    3.6468   31.9432 C   0  0  0  0  0  0  0  0  0  0  0  0
   27.2648    3.2511   32.6230 Br  0  0  0  0  0  0  0  0  0  0  0  0
   24.4329    2.8399   32.2701 C   0  0  0  0  0  0  0  0  0  0  0  0
   23.1819    3.1565   31.7231 C   0  0  0  0  0  0  0  0  0  0  0  0
   24.6457    1.7801   33.1306 O   0  0  0  0  0  0  0  0  0  0  0  0
   23.7084    0.7066   33.1601 C   0  0  0  0  0  0  0  0  0  0  0  0
    0.0000    0.0000    0.0000 H   0  0  0  0  0  0  0  0  0  0  0  0
    0.0000    0.0000    0.0000 H   0  0  0  0  0  0  0  0  0  0  0  0
    0.0000    0.0000    0.0000 H   0  0  0  0  0  0  0  0  0  0  0  0
    0.0000    0.0000    0.0000 H   0  0  0  0  0  0  0  0  0  0  0  0
    0.0000    0.0000    0.0000 H   0  0  0  0  0  0  0  0  0  0  0  0
    0.0000    0.0000    0.0000 H   0  0  0  0  0  0  0  0  0  0  0  0
    0.0000    0.0000    0.0000 H   0  0  0  0  0  0  0  0  0  0  0  0
    0.0000    0.0000    0.0000 H   0  0  0  0  0  0  0  0  0  0  0  0
    0.0000    0.0000    0.0000 H   0  0  0  0  0  0  0  0  0  0  0  0
    0.0000    0.0000    0.0000 H   0  0  0  0  0  0  0  0  0  0  0  0
    0.0000    0.0000    0.0000 H   0  0  0  0  0  0  0  0  0  0  0  0
    0.0000    0.0000    0.0000 H   0  0  0  0  0  0  0  0  0  0  0  0
    0.0000    0.0000    0.0000 H   0  0  0  0  0  0  0  0  0  0  0  0
    0.0000    0.0000    0.0000 H   0  0  0  0  0  0  0  0  0  0  0  0
   10.4741    5.0272   15.5049 C   0  0  0  0  0  0  0  0  0  0  0  0
    9.9454    5.9489   14.6218 C   0  0  0  0  0  0  0  0  0  0  0  0
    9.2073    5.5025   13.5370 C   0  0  0  0  0  0  0  0  0  0  0  0
    8.9809    4.1618   13.3073 C   0  0  0  0  0  0  0  0  0  0  0  0
    8.1753    3.7013   12.1212 C   0  0  0  0  0  0  0  0  0  0  0  0
    6.7539    4.2210   12.2133 C   0  0  0  0  0  0  0  0  0  0  0  0
    8.8179    4.1350   10.8315 C   0  0  0  0  0  0  0  0  0  0  0  0
    9.5241    3.2729   14.2099 C   0  0  0  0  0  0  0  0  0  0  0  0
   10.2650    3.6728   15.3028 C   0  0  0  0  0  0  0  0  0  0  0  0
   10.1322    6.9894   14.8169 H   0  0  0  0  0  0  0  0  0  0  0  0
    8.8053    6.2544   12.8611 H   0  0  0  0  0  0  0  0  0  0  0  0
    8.1101    2.5953   12.1168 H   0  0  0  0  0  0  0  0  0  0  0  0
    6.6710    5.2622   11.8269 H   0  0  0  0  0  0  0  0  0  0  0  0
    6.4201    4.1911   13.2866 H   0  0  0  0  0  0  0  0  0  0  0  0
    6.1257    3.5363   11.6060 H   0  0  0  0  0  0  0  0  0  0  0  0
    8.3670    3.5402   10.0094 H   0  0  0  0  0  0  0  0  0  0  0  0
    9.8951    3.8307   10.8726 H   0  0  0  0  0  0  0  0  0  0  0  0
    8.6922    5.2074   10.6313 H   0  0  0  0  0  0  0  0  0  0  0  0
    9.3495    2.2161   14.0347 H   0  0  0  0  0  0  0  0  0  0  0  0
   10.6893    2.9554   16.0097 H   0  0  0  0  0  0  0  0  0  0  0  0
  1  2  2  0
  1  7  1  0
  2  3  1  0
  3  4  2  0
  3 10  1  0
  4  5  1  0
  5  6  1  0
  5  7  2  0
  7  8  1  0
  8  9  3  0
 10 11  1  0
 11 12  2  0
 11 13  1  0
 13 14  1  0
 14 15  2  0
 14 22  1  0
 15 16  1  0
 15 18  1  0
 16 17  1  0
 18 19  2  0
 19 20  1  0
 19 21  1  0
 21 22  2  0
 21 23  1  0
 23 24  1  0
  4 25  1  0
  6 26  1  0
  6 27  1  0
 10 28  1  0
 13 29  1  0
 13 30  1  0
 17 31  1  0
 17 32  1  0
 17 33  1  0
 18 34  1  0
 22 35  1  0
 24 36  1  0
 24 37  1  0
 24 38  1  0
 39 40  2  0
 40 41  1  0
 41 42  2  0
 42 43  1  0
 43 44  1  0
 43 45  1  0
 42 46  1  0
 46 47  2  0
 47 39  1  0
 40 48  1  0
 41 49  1  0
 43 50  1  0
 44 51  1  0
 44 52  1  0
 44 53  1  0
 45 54  1  0
 45 55  1  0
 45 56  1  0
 46 57  1  0
 47 58  1  0
  1 39  1  0
M  END
>  <attachment_point>  (495) 
24

>  <score>  (495) 
<NA>

$$$$
17124-1
     RDKit          3D

 54 57  0  0  0  0  0  0  0  0999 V2000
   21.4127   10.2773   31.6976 C   0  0  0  0  0  0  0  0  0  0  0  0
   21.7567    9.0266   31.2850 N   0  0  0  0  0  0  0  0  0  0  0  0
   20.9811    7.9971   31.6572 C   0  0  0  0  0  0  0  0  0  0  0  0
   19.8706    8.1421   32.4769 C   0  0  0  0  0  0  0  0  0  0  0  0
   19.5217    9.4143   32.8937 C   0  0  0  0  0  0  0  0  0  0  0  0
   18.3827    9.4958   33.6863 N   0  0  0  0  0  0  0  0  0  0  0  0
   20.2923   10.5202   32.5003 C   0  0  0  0  0  0  0  0  0  0  0  0
   19.9657   11.8905   32.8774 C   0  0  0  0  0  0  0  0  0  0  0  0
   19.7135   12.9814   33.1712 N   0  0  0  0  0  0  0  0  0  0  0  0
   21.4435    6.8153   31.1146 N   0  0  0  0  0  0  0  0  0  0  0  0
   20.8639    5.6146   31.0308 C   0  0  0  0  0  0  0  0  0  0  0  0
   19.7396    5.3500   31.4512 O   0  0  0  0  0  0  0  0  0  0  0  0
   21.6499    4.5466   30.2798 C   0  0  0  0  0  0  0  0  0  0  0  0
   23.0247    4.2587   30.8770 C   0  0  0  0  0  0  0  0  0  0  0  0
   24.1218    5.0797   30.5737 C   0  0  0  0  0  0  0  0  0  0  0  0
   23.8940    6.1755   29.7600 O   0  0  0  0  0  0  0  0  0  0  0  0
   24.9260    7.1419   29.5741 C   0  0  0  0  0  0  0  0  0  0  0  0
   25.3756    4.7488   31.1028 C   0  0  0  0  0  0  0  0  0  0  0  0
   25.5283    3.6468   31.9432 C   0  0  0  0  0  0  0  0  0  0  0  0
   27.2648    3.2511   32.6230 Br  0  0  0  0  0  0  0  0  0  0  0  0
   24.4329    2.8399   32.2701 C   0  0  0  0  0  0  0  0  0  0  0  0
   23.1819    3.1565   31.7231 C   0  0  0  0  0  0  0  0  0  0  0  0
   24.6457    1.7801   33.1306 O   0  0  0  0  0  0  0  0  0  0  0  0
   23.7084    0.7066   33.1601 C   0  0  0  0  0  0  0  0  0  0  0  0
    0.0000    0.0000    0.0000 H   0  0  0  0  0  0  0  0  0  0  0  0
    0.0000    0.0000    0.0000 H   0  0  0  0  0  0  0  0  0  0  0  0
    0.0000    0.0000    0.0000 H   0  0  0  0  0  0  0  0  0  0  0  0
    0.0000    0.0000    0.0000 H   0  0  0  0  0  0  0  0  0  0  0  0
    0.0000    0.0000    0.0000 H   0  0  0  0  0  0  0  0  0  0  0  0
    0.0000    0.0000    0.0000 H   0  0  0  0  0  0  0  0  0  0  0  0
    0.0000    0.0000    0.0000 H   0  0  0  0  0  0  0  0  0  0  0  0
    0.0000    0.0000    0.0000 H   0  0  0  0  0  0  0  0  0  0  0  0
    0.0000    0.0000    0.0000 H   0  0  0  0  0  0  0  0  0  0  0  0
    0.0000    0.0000    0.0000 H   0  0  0  0  0  0  0  0  0  0  0  0
    0.0000    0.0000    0.0000 H   0  0  0  0  0  0  0  0  0  0  0  0
    0.0000    0.0000    0.0000 H   0  0  0  0  0  0  0  0  0  0  0  0
    0.0000    0.0000    0.0000 H   0  0  0  0  0  0  0  0  0  0  0  0
    0.0000    0.0000    0.0000 H   0  0  0  0  0  0  0  0  0  0  0  0
   10.4546    5.0178   15.4761 C   0  0  0  0  0  0  0  0  0  0  0  0
    9.1161    4.7852   15.6600 C   0  0  0  0  0  0  0  0  0  0  0  0
    8.3167    4.4194   14.5716 C   0  0  0  0  0  0  0  0  0  0  0  0
    8.9024    4.3012   13.3295 C   0  0  0  0  0  0  0  0  0  0  0  0
   10.2552    4.5448   13.1887 C   0  0  0  0  0  0  0  0  0  0  0  0
   10.8426    4.4361   11.9952 N   0  0  0  0  0  0  0  0  0  0  0  0
   12.1573    4.6665   11.8245 C   0  0  0  0  0  0  0  0  0  0  0  0
   12.9893    5.0294   12.8635 C   0  0  0  0  0  0  0  0  0  0  0  0
   12.4236    5.1533   14.1144 C   0  0  0  0  0  0  0  0  0  0  0  0
   11.0662    4.9103   14.2636 C   0  0  0  0  0  0  0  0  0  0  0  0
    8.6498    4.8776   16.6399 H   0  0  0  0  0  0  0  0  0  0  0  0
    7.2640    4.2327   14.6960 H   0  0  0  0  0  0  0  0  0  0  0  0
    8.2663    4.0171   12.5005 H   0  0  0  0  0  0  0  0  0  0  0  0
   12.5332    4.5492   10.8092 H   0  0  0  0  0  0  0  0  0  0  0  0
   14.0592    5.2105   12.6908 H   0  0  0  0  0  0  0  0  0  0  0  0
   13.0502    5.4368   14.9501 H   0  0  0  0  0  0  0  0  0  0  0  0
  1  2  2  0
  1  7  1  0
  2  3  1  0
  3  4  2  0
  3 10  1  0
  4  5  1  0
  5  6  1  0
  5  7  2  0
  7  8  1  0
  8  9  3  0
 10 11  1  0
 11 12  2  0
 11 13  1  0
 13 14  1  0
 14 15  2  0
 14 22  1  0
 15 16  1  0
 15 18  1  0
 16 17  1  0
 18 19  2  0
 19 20  1  0
 19 21  1  0
 21 22  2  0
 21 23  1  0
 23 24  1  0
  4 25  1  0
  6 26  1  0
  6 27  1  0
 10 28  1  0
 13 29  1  0
 13 30  1  0
 17 31  1  0
 17 32  1  0
 17 33  1  0
 18 34  1  0
 22 35  1  0
 24 36  1  0
 24 37  1  0
 24 38  1  0
 39 40  2  0
 40 41  1  0
 41 42  2  0
 42 43  1  0
 43 44  2  0
 44 45  1  0
 45 46  2  0
 46 47  1  0
 47 48  2  0
 48 39  1  0
 48 43  1  0
 40 49  1  0
 41 50  1  0
 42 51  1  0
 45 52  1  0
 46 53  1  0
 47 54  1  0
  1 39  1  0
M  END
>  <attachment_point>  (496) 
24

>  <score>  (496) 
<NA>

$$$$
17124-1
     RDKit          3D

 57 59  0  0  0  0  0  0  0  0999 V2000
   21.4127   10.2773   31.6976 C   0  0  0  0  0  0  0  0  0  0  0  0
   21.7567    9.0266   31.2850 N   0  0  0  0  0  0  0  0  0  0  0  0
   20.9811    7.9971   31.6572 C   0  0  0  0  0  0  0  0  0  0  0  0
   19.8706    8.1421   32.4769 C   0  0  0  0  0  0  0  0  0  0  0  0
   19.5217    9.4143   32.8937 C   0  0  0  0  0  0  0  0  0  0  0  0
   18.3827    9.4958   33.6863 N   0  0  0  0  0  0  0  0  0  0  0  0
   20.2923   10.5202   32.5003 C   0  0  0  0  0  0  0  0  0  0  0  0
   19.9657   11.8905   32.8774 C   0  0  0  0  0  0  0  0  0  0  0  0
   19.7135   12.9814   33.1712 N   0  0  0  0  0  0  0  0  0  0  0  0
   21.4435    6.8153   31.1146 N   0  0  0  0  0  0  0  0  0  0  0  0
   20.8639    5.6146   31.0308 C   0  0  0  0  0  0  0  0  0  0  0  0
   19.7396    5.3500   31.4512 O   0  0  0  0  0  0  0  0  0  0  0  0
   21.6499    4.5466   30.2798 C   0  0  0  0  0  0  0  0  0  0  0  0
   23.0247    4.2587   30.8770 C   0  0  0  0  0  0  0  0  0  0  0  0
   24.1218    5.0797   30.5737 C   0  0  0  0  0  0  0  0  0  0  0  0
   23.8940    6.1755   29.7600 O   0  0  0  0  0  0  0  0  0  0  0  0
   24.9260    7.1419   29.5741 C   0  0  0  0  0  0  0  0  0  0  0  0
   25.3756    4.7488   31.1028 C   0  0  0  0  0  0  0  0  0  0  0  0
   25.5283    3.6468   31.9432 C   0  0  0  0  0  0  0  0  0  0  0  0
   27.2648    3.2511   32.6230 Br  0  0  0  0  0  0  0  0  0  0  0  0
   24.4329    2.8399   32.2701 C   0  0  0  0  0  0  0  0  0  0  0  0
   23.1819    3.1565   31.7231 C   0  0  0  0  0  0  0  0  0  0  0  0
   24.6457    1.7801   33.1306 O   0  0  0  0  0  0  0  0  0  0  0  0
   23.7084    0.7066   33.1601 C   0  0  0  0  0  0  0  0  0  0  0  0
    0.0000    0.0000    0.0000 H   0  0  0  0  0  0  0  0  0  0  0  0
    0.0000    0.0000    0.0000 H   0  0  0  0  0  0  0  0  0  0  0  0
    0.0000    0.0000    0.0000 H   0  0  0  0  0  0  0  0  0  0  0  0
    0.0000    0.0000    0.0000 H   0  0  0  0  0  0  0  0  0  0  0  0
    0.0000    0.0000    0.0000 H   0  0  0  0  0  0  0  0  0  0  0  0
    0.0000    0.0000    0.0000 H   0  0  0  0  0  0  0  0  0  0  0  0
    0.0000    0.0000    0.0000 H   0  0  0  0  0  0  0  0  0  0  0  0
    0.0000    0.0000    0.0000 H   0  0  0  0  0  0  0  0  0  0  0  0
    0.0000    0.0000    0.0000 H   0  0  0  0  0  0  0  0  0  0  0  0
    0.0000    0.0000    0.0000 H   0  0  0  0  0  0  0  0  0  0  0  0
    0.0000    0.0000    0.0000 H   0  0  0  0  0  0  0  0  0  0  0  0
    0.0000    0.0000    0.0000 H   0  0  0  0  0  0  0  0  0  0  0  0
    0.0000    0.0000    0.0000 H   0  0  0  0  0  0  0  0  0  0  0  0
    0.0000    0.0000    0.0000 H   0  0  0  0  0  0  0  0  0  0  0  0
   10.4530    5.0170   15.4737 N   0  0  0  0  0  0  0  0  0  0  0  0
   10.4492    6.2321   14.6854 C   0  0  0  0  0  0  0  0  0  0  0  0
    9.1587    4.7680   16.0819 C   0  0  0  0  0  0  0  0  0  0  0  0
    8.1520    4.3532   15.1008 C   0  0  0  0  0  0  0  0  0  0  0  0
    7.3929    5.3246   14.4837 C   0  0  0  0  0  0  0  0  0  0  0  0
    6.4162    5.0323   13.5420 C   0  0  0  0  0  0  0  0  0  0  0  0
    6.2164    3.7043   13.2278 C   0  0  0  0  0  0  0  0  0  0  0  0
    6.9719    2.7272   13.8408 C   0  0  0  0  0  0  0  0  0  0  0  0
    7.9407    3.0239   14.7755 C   0  0  0  0  0  0  0  0  0  0  0  0
    9.7936    7.0202   15.1016 H   0  0  0  0  0  0  0  0  0  0  0  0
   11.4738    6.6694   14.6013 H   0  0  0  0  0  0  0  0  0  0  0  0
   10.1147    5.9599   13.6815 H   0  0  0  0  0  0  0  0  0  0  0  0
    9.2038    4.0243   16.8818 H   0  0  0  0  0  0  0  0  0  0  0  0
    8.8252    5.7199   16.5497 H   0  0  0  0  0  0  0  0  0  0  0  0
    7.5154    6.3881   14.7006 H   0  0  0  0  0  0  0  0  0  0  0  0
    5.8304    5.8248   13.0701 H   0  0  0  0  0  0  0  0  0  0  0  0
    5.4698    3.4326   12.5031 H   0  0  0  0  0  0  0  0  0  0  0  0
    6.8231    1.6762   13.6008 H   0  0  0  0  0  0  0  0  0  0  0  0
    8.5365    2.2467   15.2584 H   0  0  0  0  0  0  0  0  0  0  0  0
  1  2  2  0
  1  7  1  0
  2  3  1  0
  3  4  2  0
  3 10  1  0
  4  5  1  0
  5  6  1  0
  5  7  2  0
  7  8  1  0
  8  9  3  0
 10 11  1  0
 11 12  2  0
 11 13  1  0
 13 14  1  0
 14 15  2  0
 14 22  1  0
 15 16  1  0
 15 18  1  0
 16 17  1  0
 18 19  2  0
 19 20  1  0
 19 21  1  0
 21 22  2  0
 21 23  1  0
 23 24  1  0
  4 25  1  0
  6 26  1  0
  6 27  1  0
 10 28  1  0
 13 29  1  0
 13 30  1  0
 17 31  1  0
 17 32  1  0
 17 33  1  0
 18 34  1  0
 22 35  1  0
 24 36  1  0
 24 37  1  0
 24 38  1  0
 39 40  1  0
 39 41  1  0
 41 42  1  0
 42 43  2  0
 43 44  1  0
 44 45  2  0
 45 46  1  0
 46 47  2  0
 47 42  1  0
 40 48  1  0
 40 49  1  0
 40 50  1  0
 41 51  1  0
 41 52  1  0
 43 53  1  0
 44 54  1  0
 45 55  1  0
 46 56  1  0
 47 57  1  0
  1 39  1  0
M  END
>  <attachment_point>  (497) 
24

>  <score>  (497) 
<NA>

$$$$
17124-1
     RDKit          3D

 47 48  0  0  0  0  0  0  0  0999 V2000
   21.4127   10.2773   31.6976 C   0  0  0  0  0  0  0  0  0  0  0  0
   21.7567    9.0266   31.2850 N   0  0  0  0  0  0  0  0  0  0  0  0
   20.9811    7.9971   31.6572 C   0  0  0  0  0  0  0  0  0  0  0  0
   19.8706    8.1421   32.4769 C   0  0  0  0  0  0  0  0  0  0  0  0
   19.5217    9.4143   32.8937 C   0  0  0  0  0  0  0  0  0  0  0  0
   18.3827    9.4958   33.6863 N   0  0  0  0  0  0  0  0  0  0  0  0
   20.2923   10.5202   32.5003 C   0  0  0  0  0  0  0  0  0  0  0  0
   19.9657   11.8905   32.8774 C   0  0  0  0  0  0  0  0  0  0  0  0
   19.7135   12.9814   33.1712 N   0  0  0  0  0  0  0  0  0  0  0  0
   21.4435    6.8153   31.1146 N   0  0  0  0  0  0  0  0  0  0  0  0
   20.8639    5.6146   31.0308 C   0  0  0  0  0  0  0  0  0  0  0  0
   19.7396    5.3500   31.4512 O   0  0  0  0  0  0  0  0  0  0  0  0
   21.6499    4.5466   30.2798 C   0  0  0  0  0  0  0  0  0  0  0  0
   23.0247    4.2587   30.8770 C   0  0  0  0  0  0  0  0  0  0  0  0
   24.1218    5.0797   30.5737 C   0  0  0  0  0  0  0  0  0  0  0  0
   23.8940    6.1755   29.7600 O   0  0  0  0  0  0  0  0  0  0  0  0
   24.9260    7.1419   29.5741 C   0  0  0  0  0  0  0  0  0  0  0  0
   25.3756    4.7488   31.1028 C   0  0  0  0  0  0  0  0  0  0  0  0
   25.5283    3.6468   31.9432 C   0  0  0  0  0  0  0  0  0  0  0  0
   27.2648    3.2511   32.6230 Br  0  0  0  0  0  0  0  0  0  0  0  0
   24.4329    2.8399   32.2701 C   0  0  0  0  0  0  0  0  0  0  0  0
   23.1819    3.1565   31.7231 C   0  0  0  0  0  0  0  0  0  0  0  0
   24.6457    1.7801   33.1306 O   0  0  0  0  0  0  0  0  0  0  0  0
   23.7084    0.7066   33.1601 C   0  0  0  0  0  0  0  0  0  0  0  0
    0.0000    0.0000    0.0000 H   0  0  0  0  0  0  0  0  0  0  0  0
    0.0000    0.0000    0.0000 H   0  0  0  0  0  0  0  0  0  0  0  0
    0.0000    0.0000    0.0000 H   0  0  0  0  0  0  0  0  0  0  0  0
    0.0000    0.0000    0.0000 H   0  0  0  0  0  0  0  0  0  0  0  0
    0.0000    0.0000    0.0000 H   0  0  0  0  0  0  0  0  0  0  0  0
    0.0000    0.0000    0.0000 H   0  0  0  0  0  0  0  0  0  0  0  0
    0.0000    0.0000    0.0000 H   0  0  0  0  0  0  0  0  0  0  0  0
    0.0000    0.0000    0.0000 H   0  0  0  0  0  0  0  0  0  0  0  0
    0.0000    0.0000    0.0000 H   0  0  0  0  0  0  0  0  0  0  0  0
    0.0000    0.0000    0.0000 H   0  0  0  0  0  0  0  0  0  0  0  0
    0.0000    0.0000    0.0000 H   0  0  0  0  0  0  0  0  0  0  0  0
    0.0000    0.0000    0.0000 H   0  0  0  0  0  0  0  0  0  0  0  0
    0.0000    0.0000    0.0000 H   0  0  0  0  0  0  0  0  0  0  0  0
    0.0000    0.0000    0.0000 H   0  0  0  0  0  0  0  0  0  0  0  0
   10.3917    4.9876   15.3831 C   0  0  2  0  0  0  0  0  0  0  0  0
    9.1273    5.2290   16.1106 C   0  0  0  0  0  0  0  0  0  0  0  0
   10.8732    3.6908   15.2781 N   0  0  0  0  0  0  0  0  0  0  0  0
   10.8222    5.7866   14.8236 H   0  0  0  0  0  0  0  0  0  0  0  0
    9.0219    6.3100   16.3126 H   0  0  0  0  0  0  0  0  0  0  0  0
    9.0744    4.7352   17.1229 H   0  0  0  0  0  0  0  0  0  0  0  0
    8.2993    4.8355   15.5353 H   0  0  0  0  0  0  0  0  0  0  0  0
   10.7243    3.1410   16.1694 H   0  0  0  0  0  0  0  0  0  0  0  0
   11.9192    3.7136   15.0891 H   0  0  0  0  0  0  0  0  0  0  0  0
  1  2  2  0
  1  7  1  0
  2  3  1  0
  3  4  2  0
  3 10  1  0
  4  5  1  0
  5  6  1  0
  5  7  2  0
  7  8  1  0
  8  9  3  0
 10 11  1  0
 11 12  2  0
 11 13  1  0
 13 14  1  0
 14 15  2  0
 14 22  1  0
 15 16  1  0
 15 18  1  0
 16 17  1  0
 18 19  2  0
 19 20  1  0
 19 21  1  0
 21 22  2  0
 21 23  1  0
 23 24  1  0
  4 25  1  0
  6 26  1  0
  6 27  1  0
 10 28  1  0
 13 29  1  0
 13 30  1  0
 17 31  1  0
 17 32  1  0
 17 33  1  0
 18 34  1  0
 22 35  1  0
 24 36  1  0
 24 37  1  0
 24 38  1  0
 39 40  1  0
 39 41  1  0
 39 42  1  1
 40 43  1  0
 40 44  1  0
 40 45  1  0
 41 46  1  0
 41 47  1  0
  1 39  1  0
M  END
>  <attachment_point>  (498) 
24

>  <score>  (498) 
<NA>

$$$$
17124-1
     RDKit          3D

 58 60  0  0  0  0  0  0  0  0999 V2000
   21.4127   10.2773   31.6976 C   0  0  0  0  0  0  0  0  0  0  0  0
   21.7567    9.0266   31.2850 N   0  0  0  0  0  0  0  0  0  0  0  0
   20.9811    7.9971   31.6572 C   0  0  0  0  0  0  0  0  0  0  0  0
   19.8706    8.1421   32.4769 C   0  0  0  0  0  0  0  0  0  0  0  0
   19.5217    9.4143   32.8937 C   0  0  0  0  0  0  0  0  0  0  0  0
   18.3827    9.4958   33.6863 N   0  0  0  0  0  0  0  0  0  0  0  0
   20.2923   10.5202   32.5003 C   0  0  0  0  0  0  0  0  0  0  0  0
   19.9657   11.8905   32.8774 C   0  0  0  0  0  0  0  0  0  0  0  0
   19.7135   12.9814   33.1712 N   0  0  0  0  0  0  0  0  0  0  0  0
   21.4435    6.8153   31.1146 N   0  0  0  0  0  0  0  0  0  0  0  0
   20.8639    5.6146   31.0308 C   0  0  0  0  0  0  0  0  0  0  0  0
   19.7396    5.3500   31.4512 O   0  0  0  0  0  0  0  0  0  0  0  0
   21.6499    4.5466   30.2798 C   0  0  0  0  0  0  0  0  0  0  0  0
   23.0247    4.2587   30.8770 C   0  0  0  0  0  0  0  0  0  0  0  0
   24.1218    5.0797   30.5737 C   0  0  0  0  0  0  0  0  0  0  0  0
   23.8940    6.1755   29.7600 O   0  0  0  0  0  0  0  0  0  0  0  0
   24.9260    7.1419   29.5741 C   0  0  0  0  0  0  0  0  0  0  0  0
   25.3756    4.7488   31.1028 C   0  0  0  0  0  0  0  0  0  0  0  0
   25.5283    3.6468   31.9432 C   0  0  0  0  0  0  0  0  0  0  0  0
   27.2648    3.2511   32.6230 Br  0  0  0  0  0  0  0  0  0  0  0  0
   24.4329    2.8399   32.2701 C   0  0  0  0  0  0  0  0  0  0  0  0
   23.1819    3.1565   31.7231 C   0  0  0  0  0  0  0  0  0  0  0  0
   24.6457    1.7801   33.1306 O   0  0  0  0  0  0  0  0  0  0  0  0
   23.7084    0.7066   33.1601 C   0  0  0  0  0  0  0  0  0  0  0  0
    0.0000    0.0000    0.0000 H   0  0  0  0  0  0  0  0  0  0  0  0
    0.0000    0.0000    0.0000 H   0  0  0  0  0  0  0  0  0  0  0  0
    0.0000    0.0000    0.0000 H   0  0  0  0  0  0  0  0  0  0  0  0
    0.0000    0.0000    0.0000 H   0  0  0  0  0  0  0  0  0  0  0  0
    0.0000    0.0000    0.0000 H   0  0  0  0  0  0  0  0  0  0  0  0
    0.0000    0.0000    0.0000 H   0  0  0  0  0  0  0  0  0  0  0  0
    0.0000    0.0000    0.0000 H   0  0  0  0  0  0  0  0  0  0  0  0
    0.0000    0.0000    0.0000 H   0  0  0  0  0  0  0  0  0  0  0  0
    0.0000    0.0000    0.0000 H   0  0  0  0  0  0  0  0  0  0  0  0
    0.0000    0.0000    0.0000 H   0  0  0  0  0  0  0  0  0  0  0  0
    0.0000    0.0000    0.0000 H   0  0  0  0  0  0  0  0  0  0  0  0
    0.0000    0.0000    0.0000 H   0  0  0  0  0  0  0  0  0  0  0  0
    0.0000    0.0000    0.0000 H   0  0  0  0  0  0  0  0  0  0  0  0
    0.0000    0.0000    0.0000 H   0  0  0  0  0  0  0  0  0  0  0  0
   10.4464    5.0139   15.4640 C   0  0  0  0  0  0  0  0  0  0  0  0
    9.1781    5.4902   15.3392 C   0  0  0  0  0  0  0  0  0  0  0  0
    8.4566    5.1006   14.2015 C   0  0  0  0  0  0  0  0  0  0  0  0
    9.0442    4.2642   13.2648 C   0  0  0  0  0  0  0  0  0  0  0  0
    8.3268    3.8716   12.1251 O   0  0  0  0  0  0  0  0  0  0  0  0
    8.9681    3.0222   11.2055 C   0  0  0  0  0  0  0  0  0  0  0  0
    9.1249    3.7439    9.8781 C   0  0  0  0  0  0  0  0  0  0  0  0
    8.2414    1.7076   11.0373 C   0  0  0  0  0  0  0  0  0  0  0  0
   10.3046    3.8474   13.4802 N   0  0  0  0  0  0  0  0  0  0  0  0
   11.0380    4.1968   14.5616 C   0  0  0  0  0  0  0  0  0  0  0  0
    8.7253    6.1355   16.0622 H   0  0  0  0  0  0  0  0  0  0  0  0
    7.4466    5.4582   14.0669 H   0  0  0  0  0  0  0  0  0  0  0  0
    9.9884    2.8014   11.5683 H   0  0  0  0  0  0  0  0  0  0  0  0
   10.0530    4.3791    9.9054 H   0  0  0  0  0  0  0  0  0  0  0  0
    9.2870    3.0134    9.0662 H   0  0  0  0  0  0  0  0  0  0  0  0
    8.2944    4.4448    9.6819 H   0  0  0  0  0  0  0  0  0  0  0  0
    8.7982    0.8651   11.5175 H   0  0  0  0  0  0  0  0  0  0  0  0
    8.1104    1.4401    9.9698 H   0  0  0  0  0  0  0  0  0  0  0  0
    7.2473    1.7747   11.5316 H   0  0  0  0  0  0  0  0  0  0  0  0
   12.0481    3.8401   14.6975 H   0  0  0  0  0  0  0  0  0  0  0  0
  1  2  2  0
  1  7  1  0
  2  3  1  0
  3  4  2  0
  3 10  1  0
  4  5  1  0
  5  6  1  0
  5  7  2  0
  7  8  1  0
  8  9  3  0
 10 11  1  0
 11 12  2  0
 11 13  1  0
 13 14  1  0
 14 15  2  0
 14 22  1  0
 15 16  1  0
 15 18  1  0
 16 17  1  0
 18 19  2  0
 19 20  1  0
 19 21  1  0
 21 22  2  0
 21 23  1  0
 23 24  1  0
  4 25  1  0
  6 26  1  0
  6 27  1  0
 10 28  1  0
 13 29  1  0
 13 30  1  0
 17 31  1  0
 17 32  1  0
 17 33  1  0
 18 34  1  0
 22 35  1  0
 24 36  1  0
 24 37  1  0
 24 38  1  0
 39 40  2  0
 40 41  1  0
 41 42  2  0
 42 43  1  0
 43 44  1  0
 44 45  1  0
 44 46  1  0
 42 47  1  0
 47 48  2  0
 48 39  1  0
 40 49  1  0
 41 50  1  0
 44 51  1  0
 45 52  1  0
 45 53  1  0
 45 54  1  0
 46 55  1  0
 46 56  1  0
 46 57  1  0
 48 58  1  0
  1 39  1  0
M  END
>  <attachment_point>  (499) 
24

>  <score>  (499) 
<NA>

$$$$
17124-1
     RDKit          3D

 54 57  0  0  0  0  0  0  0  0999 V2000
   21.4127   10.2773   31.6976 C   0  0  0  0  0  0  0  0  0  0  0  0
   21.7567    9.0266   31.2850 N   0  0  0  0  0  0  0  0  0  0  0  0
   20.9811    7.9971   31.6572 C   0  0  0  0  0  0  0  0  0  0  0  0
   19.8706    8.1421   32.4769 C   0  0  0  0  0  0  0  0  0  0  0  0
   19.5217    9.4143   32.8937 C   0  0  0  0  0  0  0  0  0  0  0  0
   18.3827    9.4958   33.6863 N   0  0  0  0  0  0  0  0  0  0  0  0
   20.2923   10.5202   32.5003 C   0  0  0  0  0  0  0  0  0  0  0  0
   19.9657   11.8905   32.8774 C   0  0  0  0  0  0  0  0  0  0  0  0
   19.7135   12.9814   33.1712 N   0  0  0  0  0  0  0  0  0  0  0  0
   21.4435    6.8153   31.1146 N   0  0  0  0  0  0  0  0  0  0  0  0
   20.8639    5.6146   31.0308 C   0  0  0  0  0  0  0  0  0  0  0  0
   19.7396    5.3500   31.4512 O   0  0  0  0  0  0  0  0  0  0  0  0
   21.6499    4.5466   30.2798 C   0  0  0  0  0  0  0  0  0  0  0  0
   23.0247    4.2587   30.8770 C   0  0  0  0  0  0  0  0  0  0  0  0
   24.1218    5.0797   30.5737 C   0  0  0  0  0  0  0  0  0  0  0  0
   23.8940    6.1755   29.7600 O   0  0  0  0  0  0  0  0  0  0  0  0
   24.9260    7.1419   29.5741 C   0  0  0  0  0  0  0  0  0  0  0  0
   25.3756    4.7488   31.1028 C   0  0  0  0  0  0  0  0  0  0  0  0
   25.5283    3.6468   31.9432 C   0  0  0  0  0  0  0  0  0  0  0  0
   27.2648    3.2511   32.6230 Br  0  0  0  0  0  0  0  0  0  0  0  0
   24.4329    2.8399   32.2701 C   0  0  0  0  0  0  0  0  0  0  0  0
   23.1819    3.1565   31.7231 C   0  0  0  0  0  0  0  0  0  0  0  0
   24.6457    1.7801   33.1306 O   0  0  0  0  0  0  0  0  0  0  0  0
   23.7084    0.7066   33.1601 C   0  0  0  0  0  0  0  0  0  0  0  0
    0.0000    0.0000    0.0000 H   0  0  0  0  0  0  0  0  0  0  0  0
    0.0000    0.0000    0.0000 H   0  0  0  0  0  0  0  0  0  0  0  0
    0.0000    0.0000    0.0000 H   0  0  0  0  0  0  0  0  0  0  0  0
    0.0000    0.0000    0.0000 H   0  0  0  0  0  0  0  0  0  0  0  0
    0.0000    0.0000    0.0000 H   0  0  0  0  0  0  0  0  0  0  0  0
    0.0000    0.0000    0.0000 H   0  0  0  0  0  0  0  0  0  0  0  0
    0.0000    0.0000    0.0000 H   0  0  0  0  0  0  0  0  0  0  0  0
    0.0000    0.0000    0.0000 H   0  0  0  0  0  0  0  0  0  0  0  0
    0.0000    0.0000    0.0000 H   0  0  0  0  0  0  0  0  0  0  0  0
    0.0000    0.0000    0.0000 H   0  0  0  0  0  0  0  0  0  0  0  0
    0.0000    0.0000    0.0000 H   0  0  0  0  0  0  0  0  0  0  0  0
    0.0000    0.0000    0.0000 H   0  0  0  0  0  0  0  0  0  0  0  0
    0.0000    0.0000    0.0000 H   0  0  0  0  0  0  0  0  0  0  0  0
    0.0000    0.0000    0.0000 H   0  0  0  0  0  0  0  0  0  0  0  0
   10.4444    5.0129   15.4611 C   0  0  0  0  0  0  0  0  0  0  0  0
   11.1611    4.7789   14.3309 C   0  0  0  0  0  0  0  0  0  0  0  0
   10.4629    4.4260   13.2301 N   0  0  0  0  0  0  0  0  0  0  0  0
    9.1169    4.3073   13.2352 C   0  0  0  0  0  0  0  0  0  0  0  0
    8.4247    4.5538   14.4039 C   0  0  0  0  0  0  0  0  0  0  0  0
    7.0536    4.4483   14.4682 C   0  0  0  0  0  0  0  0  0  0  0  0
    6.3965    4.7013   15.6497 C   0  0  0  0  0  0  0  0  0  0  0  0
    7.0398    5.0658   16.8138 C   0  0  0  0  0  0  0  0  0  0  0  0
    8.4131    5.1745   16.7608 C   0  0  0  0  0  0  0  0  0  0  0  0
    9.0903    4.9247   15.5847 C   0  0  0  0  0  0  0  0  0  0  0  0
   12.2489    4.8759   14.3309 H   0  0  0  0  0  0  0  0  0  0  0  0
    8.6085    4.0189   12.3144 H   0  0  0  0  0  0  0  0  0  0  0  0
    6.5260    4.1604   13.5559 H   0  0  0  0  0  0  0  0  0  0  0  0
    5.3038    4.6070   15.6620 H   0  0  0  0  0  0  0  0  0  0  0  0
    6.4731    5.2553   17.7238 H   0  0  0  0  0  0  0  0  0  0  0  0
    8.9542    5.4593   17.6572 H   0  0  0  0  0  0  0  0  0  0  0  0
  1  2  2  0
  1  7  1  0
  2  3  1  0
  3  4  2  0
  3 10  1  0
  4  5  1  0
  5  6  1  0
  5  7  2  0
  7  8  1  0
  8  9  3  0
 10 11  1  0
 11 12  2  0
 11 13  1  0
 13 14  1  0
 14 15  2  0
 14 22  1  0
 15 16  1  0
 15 18  1  0
 16 17  1  0
 18 19  2  0
 19 20  1  0
 19 21  1  0
 21 22  2  0
 21 23  1  0
 23 24  1  0
  4 25  1  0
  6 26  1  0
  6 27  1  0
 10 28  1  0
 13 29  1  0
 13 30  1  0
 17 31  1  0
 17 32  1  0
 17 33  1  0
 18 34  1  0
 22 35  1  0
 24 36  1  0
 24 37  1  0
 24 38  1  0
 39 40  2  0
 40 41  1  0
 41 42  2  0
 42 43  1  0
 43 44  2  0
 44 45  1  0
 45 46  2  0
 46 47  1  0
 47 48  2  0
 48 39  1  0
 48 43  1  0
 40 49  1  0
 42 50  1  0
 44 51  1  0
 45 52  1  0
 46 53  1  0
 47 54  1  0
  1 39  1  0
M  END
>  <attachment_point>  (500) 
24

>  <score>  (500) 
<NA>

$$$$
17124-1
     RDKit          3D

 59 61  0  0  0  0  0  0  0  0999 V2000
   21.4127   10.2773   31.6976 C   0  0  0  0  0  0  0  0  0  0  0  0
   21.7567    9.0266   31.2850 N   0  0  0  0  0  0  0  0  0  0  0  0
   20.9811    7.9971   31.6572 C   0  0  0  0  0  0  0  0  0  0  0  0
   19.8706    8.1421   32.4769 C   0  0  0  0  0  0  0  0  0  0  0  0
   19.5217    9.4143   32.8937 C   0  0  0  0  0  0  0  0  0  0  0  0
   18.3827    9.4958   33.6863 N   0  0  0  0  0  0  0  0  0  0  0  0
   20.2923   10.5202   32.5003 C   0  0  0  0  0  0  0  0  0  0  0  0
   19.9657   11.8905   32.8774 C   0  0  0  0  0  0  0  0  0  0  0  0
   19.7135   12.9814   33.1712 N   0  0  0  0  0  0  0  0  0  0  0  0
   21.4435    6.8153   31.1146 N   0  0  0  0  0  0  0  0  0  0  0  0
   20.8639    5.6146   31.0308 C   0  0  0  0  0  0  0  0  0  0  0  0
   19.7396    5.3500   31.4512 O   0  0  0  0  0  0  0  0  0  0  0  0
   21.6499    4.5466   30.2798 C   0  0  0  0  0  0  0  0  0  0  0  0
   23.0247    4.2587   30.8770 C   0  0  0  0  0  0  0  0  0  0  0  0
   24.1218    5.0797   30.5737 C   0  0  0  0  0  0  0  0  0  0  0  0
   23.8940    6.1755   29.7600 O   0  0  0  0  0  0  0  0  0  0  0  0
   24.9260    7.1419   29.5741 C   0  0  0  0  0  0  0  0  0  0  0  0
   25.3756    4.7488   31.1028 C   0  0  0  0  0  0  0  0  0  0  0  0
   25.5283    3.6468   31.9432 C   0  0  0  0  0  0  0  0  0  0  0  0
   27.2648    3.2511   32.6230 Br  0  0  0  0  0  0  0  0  0  0  0  0
   24.4329    2.8399   32.2701 C   0  0  0  0  0  0  0  0  0  0  0  0
   23.1819    3.1565   31.7231 C   0  0  0  0  0  0  0  0  0  0  0  0
   24.6457    1.7801   33.1306 O   0  0  0  0  0  0  0  0  0  0  0  0
   23.7084    0.7066   33.1601 C   0  0  0  0  0  0  0  0  0  0  0  0
    0.0000    0.0000    0.0000 H   0  0  0  0  0  0  0  0  0  0  0  0
    0.0000    0.0000    0.0000 H   0  0  0  0  0  0  0  0  0  0  0  0
    0.0000    0.0000    0.0000 H   0  0  0  0  0  0  0  0  0  0  0  0
    0.0000    0.0000    0.0000 H   0  0  0  0  0  0  0  0  0  0  0  0
    0.0000    0.0000    0.0000 H   0  0  0  0  0  0  0  0  0  0  0  0
    0.0000    0.0000    0.0000 H   0  0  0  0  0  0  0  0  0  0  0  0
    0.0000    0.0000    0.0000 H   0  0  0  0  0  0  0  0  0  0  0  0
    0.0000    0.0000    0.0000 H   0  0  0  0  0  0  0  0  0  0  0  0
    0.0000    0.0000    0.0000 H   0  0  0  0  0  0  0  0  0  0  0  0
    0.0000    0.0000    0.0000 H   0  0  0  0  0  0  0  0  0  0  0  0
    0.0000    0.0000    0.0000 H   0  0  0  0  0  0  0  0  0  0  0  0
    0.0000    0.0000    0.0000 H   0  0  0  0  0  0  0  0  0  0  0  0
    0.0000    0.0000    0.0000 H   0  0  0  0  0  0  0  0  0  0  0  0
    0.0000    0.0000    0.0000 H   0  0  0  0  0  0  0  0  0  0  0  0
   10.3421    4.9638   15.3096 B   0  0  0  0  0  0  0  0  0  0  0  0
    9.1944    4.4305   16.0638 O   0  0  0  0  0  0  0  0  0  0  0  0
    9.2606    3.0741   15.6824 C   0  0  0  0  0  0  0  0  0  0  0  0
    8.8649    3.0243   14.2287 C   0  0  0  0  0  0  0  0  0  0  0  0
    8.4711    2.1779   16.5617 C   0  0  0  0  0  0  0  0  0  0  0  0
   10.7631    2.8442   15.7732 C   0  0  0  0  0  0  0  0  0  0  0  0
   11.1472    1.4701   15.3350 C   0  0  0  0  0  0  0  0  0  0  0  0
   11.3111    3.2140   17.1282 C   0  0  0  0  0  0  0  0  0  0  0  0
   11.2009    3.8422   14.8816 O   0  0  0  0  0  0  0  0  0  0  0  0
    9.6089    3.6726   13.6880 H   0  0  0  0  0  0  0  0  0  0  0  0
    7.8641    3.5012   14.0735 H   0  0  0  0  0  0  0  0  0  0  0  0
    8.8056    2.0133   13.8157 H   0  0  0  0  0  0  0  0  0  0  0  0
    9.0690    1.7798   17.3941 H   0  0  0  0  0  0  0  0  0  0  0  0
    7.5148    2.6387   16.8764 H   0  0  0  0  0  0  0  0  0  0  0  0
    8.1694    1.2817   15.9443 H   0  0  0  0  0  0  0  0  0  0  0  0
   10.4691    1.0931   14.5552 H   0  0  0  0  0  0  0  0  0  0  0  0
   11.0206    0.7929   16.2121 H   0  0  0  0  0  0  0  0  0  0  0  0
   12.1727    1.3999   14.9418 H   0  0  0  0  0  0  0  0  0  0  0  0
   11.0051    2.5470   17.9348 H   0  0  0  0  0  0  0  0  0  0  0  0
   11.0368    4.2868   17.3012 H   0  0  0  0  0  0  0  0  0  0  0  0
   12.4125    3.1690   17.0561 H   0  0  0  0  0  0  0  0  0  0  0  0
  1  2  2  0
  1  7  1  0
  2  3  1  0
  3  4  2  0
  3 10  1  0
  4  5  1  0
  5  6  1  0
  5  7  2  0
  7  8  1  0
  8  9  3  0
 10 11  1  0
 11 12  2  0
 11 13  1  0
 13 14  1  0
 14 15  2  0
 14 22  1  0
 15 16  1  0
 15 18  1  0
 16 17  1  0
 18 19  2  0
 19 20  1  0
 19 21  1  0
 21 22  2  0
 21 23  1  0
 23 24  1  0
  4 25  1  0
  6 26  1  0
  6 27  1  0
 10 28  1  0
 13 29  1  0
 13 30  1  0
 17 31  1  0
 17 32  1  0
 17 33  1  0
 18 34  1  0
 22 35  1  0
 24 36  1  0
 24 37  1  0
 24 38  1  0
 39 40  1  0
 40 41  1  0
 41 42  1  0
 41 43  1  0
 41 44  1  0
 44 45  1  0
 44 46  1  0
 44 47  1  0
 47 39  1  0
 42 48  1  0
 42 49  1  0
 42 50  1  0
 43 51  1  0
 43 52  1  0
 43 53  1  0
 45 54  1  0
 45 55  1  0
 45 56  1  0
 46 57  1  0
 46 58  1  0
 46 59  1  0
  1 39  1  0
M  END
>  <attachment_point>  (501) 
24

>  <score>  (501) 
<NA>

$$$$
17124-1
     RDKit          3D

 59 61  0  0  0  0  0  0  0  0999 V2000
   21.4127   10.2773   31.6976 C   0  0  0  0  0  0  0  0  0  0  0  0
   21.7567    9.0266   31.2850 N   0  0  0  0  0  0  0  0  0  0  0  0
   20.9811    7.9971   31.6572 C   0  0  0  0  0  0  0  0  0  0  0  0
   19.8706    8.1421   32.4769 C   0  0  0  0  0  0  0  0  0  0  0  0
   19.5217    9.4143   32.8937 C   0  0  0  0  0  0  0  0  0  0  0  0
   18.3827    9.4958   33.6863 N   0  0  0  0  0  0  0  0  0  0  0  0
   20.2923   10.5202   32.5003 C   0  0  0  0  0  0  0  0  0  0  0  0
   19.9657   11.8905   32.8774 C   0  0  0  0  0  0  0  0  0  0  0  0
   19.7135   12.9814   33.1712 N   0  0  0  0  0  0  0  0  0  0  0  0
   21.4435    6.8153   31.1146 N   0  0  0  0  0  0  0  0  0  0  0  0
   20.8639    5.6146   31.0308 C   0  0  0  0  0  0  0  0  0  0  0  0
   19.7396    5.3500   31.4512 O   0  0  0  0  0  0  0  0  0  0  0  0
   21.6499    4.5466   30.2798 C   0  0  0  0  0  0  0  0  0  0  0  0
   23.0247    4.2587   30.8770 C   0  0  0  0  0  0  0  0  0  0  0  0
   24.1218    5.0797   30.5737 C   0  0  0  0  0  0  0  0  0  0  0  0
   23.8940    6.1755   29.7600 O   0  0  0  0  0  0  0  0  0  0  0  0
   24.9260    7.1419   29.5741 C   0  0  0  0  0  0  0  0  0  0  0  0
   25.3756    4.7488   31.1028 C   0  0  0  0  0  0  0  0  0  0  0  0
   25.5283    3.6468   31.9432 C   0  0  0  0  0  0  0  0  0  0  0  0
   27.2648    3.2511   32.6230 Br  0  0  0  0  0  0  0  0  0  0  0  0
   24.4329    2.8399   32.2701 C   0  0  0  0  0  0  0  0  0  0  0  0
   23.1819    3.1565   31.7231 C   0  0  0  0  0  0  0  0  0  0  0  0
   24.6457    1.7801   33.1306 O   0  0  0  0  0  0  0  0  0  0  0  0
   23.7084    0.7066   33.1601 C   0  0  0  0  0  0  0  0  0  0  0  0
    0.0000    0.0000    0.0000 H   0  0  0  0  0  0  0  0  0  0  0  0
    0.0000    0.0000    0.0000 H   0  0  0  0  0  0  0  0  0  0  0  0
    0.0000    0.0000    0.0000 H   0  0  0  0  0  0  0  0  0  0  0  0
    0.0000    0.0000    0.0000 H   0  0  0  0  0  0  0  0  0  0  0  0
    0.0000    0.0000    0.0000 H   0  0  0  0  0  0  0  0  0  0  0  0
    0.0000    0.0000    0.0000 H   0  0  0  0  0  0  0  0  0  0  0  0
    0.0000    0.0000    0.0000 H   0  0  0  0  0  0  0  0  0  0  0  0
    0.0000    0.0000    0.0000 H   0  0  0  0  0  0  0  0  0  0  0  0
    0.0000    0.0000    0.0000 H   0  0  0  0  0  0  0  0  0  0  0  0
    0.0000    0.0000    0.0000 H   0  0  0  0  0  0  0  0  0  0  0  0
    0.0000    0.0000    0.0000 H   0  0  0  0  0  0  0  0  0  0  0  0
    0.0000    0.0000    0.0000 H   0  0  0  0  0  0  0  0  0  0  0  0
    0.0000    0.0000    0.0000 H   0  0  0  0  0  0  0  0  0  0  0  0
    0.0000    0.0000    0.0000 H   0  0  0  0  0  0  0  0  0  0  0  0
   10.4440    5.0127   15.4604 C   0  0  0  0  0  0  0  0  0  0  0  0
   11.0789    4.5283   14.3906 C   0  0  0  0  0  0  0  0  0  0  0  0
   10.2987    4.1766   13.2937 C   0  0  0  0  0  0  0  0  0  0  0  0
    8.9086    4.3206   13.3015 C   0  0  0  0  0  0  0  0  0  0  0  0
    8.1895    3.9513   12.1750 O   0  0  0  0  0  0  0  0  0  0  0  0
    6.8186    4.0171   11.9889 C   0  0  0  0  0  0  0  0  0  0  0  0
    6.4698    4.8514   10.7544 C   0  0  0  0  0  0  0  0  0  0  0  0
    6.3712    2.5801   11.6687 C   0  0  0  0  0  0  0  0  0  0  0  0
    8.3015    4.8260   14.4316 C   0  0  0  0  0  0  0  0  0  0  0  0
    9.1022    5.1806   15.5415 C   0  0  0  0  0  0  0  0  0  0  0  0
   12.1595    4.3859   14.3074 H   0  0  0  0  0  0  0  0  0  0  0  0
   10.7285    3.7782   12.3901 H   0  0  0  0  0  0  0  0  0  0  0  0
    6.2895    4.4126   12.8591 H   0  0  0  0  0  0  0  0  0  0  0  0
    7.1285    5.7273   10.7619 H   0  0  0  0  0  0  0  0  0  0  0  0
    5.3862    5.1103   10.8633 H   0  0  0  0  0  0  0  0  0  0  0  0
    6.5642    4.2709    9.8319 H   0  0  0  0  0  0  0  0  0  0  0  0
    5.3034    2.5262   11.8984 H   0  0  0  0  0  0  0  0  0  0  0  0
    6.9561    1.9321   12.3726 H   0  0  0  0  0  0  0  0  0  0  0  0
    6.6312    2.4062   10.6135 H   0  0  0  0  0  0  0  0  0  0  0  0
    7.2331    4.9624   14.5029 H   0  0  0  0  0  0  0  0  0  0  0  0
    8.6486    5.5747   16.4279 H   0  0  0  0  0  0  0  0  0  0  0  0
  1  2  2  0
  1  7  1  0
  2  3  1  0
  3  4  2  0
  3 10  1  0
  4  5  1  0
  5  6  1  0
  5  7  2  0
  7  8  1  0
  8  9  3  0
 10 11  1  0
 11 12  2  0
 11 13  1  0
 13 14  1  0
 14 15  2  0
 14 22  1  0
 15 16  1  0
 15 18  1  0
 16 17  1  0
 18 19  2  0
 19 20  1  0
 19 21  1  0
 21 22  2  0
 21 23  1  0
 23 24  1  0
  4 25  1  0
  6 26  1  0
  6 27  1  0
 10 28  1  0
 13 29  1  0
 13 30  1  0
 17 31  1  0
 17 32  1  0
 17 33  1  0
 18 34  1  0
 22 35  1  0
 24 36  1  0
 24 37  1  0
 24 38  1  0
 39 40  2  0
 40 41  1  0
 41 42  2  0
 42 43  1  0
 43 44  1  0
 44 45  1  0
 44 46  1  0
 42 47  1  0
 47 48  2  0
 48 39  1  0
 40 49  1  0
 41 50  1  0
 44 51  1  0
 45 52  1  0
 45 53  1  0
 45 54  1  0
 46 55  1  0
 46 56  1  0
 46 57  1  0
 47 58  1  0
 48 59  1  0
  1 39  1  0
M  END
>  <attachment_point>  (502) 
24

>  <score>  (502) 
<NA>

$$$$
17124-1
     RDKit          3D

 54 57  0  0  0  0  0  0  0  0999 V2000
   21.4127   10.2773   31.6976 C   0  0  0  0  0  0  0  0  0  0  0  0
   21.7567    9.0266   31.2850 N   0  0  0  0  0  0  0  0  0  0  0  0
   20.9811    7.9971   31.6572 C   0  0  0  0  0  0  0  0  0  0  0  0
   19.8706    8.1421   32.4769 C   0  0  0  0  0  0  0  0  0  0  0  0
   19.5217    9.4143   32.8937 C   0  0  0  0  0  0  0  0  0  0  0  0
   18.3827    9.4958   33.6863 N   0  0  0  0  0  0  0  0  0  0  0  0
   20.2923   10.5202   32.5003 C   0  0  0  0  0  0  0  0  0  0  0  0
   19.9657   11.8905   32.8774 C   0  0  0  0  0  0  0  0  0  0  0  0
   19.7135   12.9814   33.1712 N   0  0  0  0  0  0  0  0  0  0  0  0
   21.4435    6.8153   31.1146 N   0  0  0  0  0  0  0  0  0  0  0  0
   20.8639    5.6146   31.0308 C   0  0  0  0  0  0  0  0  0  0  0  0
   19.7396    5.3500   31.4512 O   0  0  0  0  0  0  0  0  0  0  0  0
   21.6499    4.5466   30.2798 C   0  0  0  0  0  0  0  0  0  0  0  0
   23.0247    4.2587   30.8770 C   0  0  0  0  0  0  0  0  0  0  0  0
   24.1218    5.0797   30.5737 C   0  0  0  0  0  0  0  0  0  0  0  0
   23.8940    6.1755   29.7600 O   0  0  0  0  0  0  0  0  0  0  0  0
   24.9260    7.1419   29.5741 C   0  0  0  0  0  0  0  0  0  0  0  0
   25.3756    4.7488   31.1028 C   0  0  0  0  0  0  0  0  0  0  0  0
   25.5283    3.6468   31.9432 C   0  0  0  0  0  0  0  0  0  0  0  0
   27.2648    3.2511   32.6230 Br  0  0  0  0  0  0  0  0  0  0  0  0
   24.4329    2.8399   32.2701 C   0  0  0  0  0  0  0  0  0  0  0  0
   23.1819    3.1565   31.7231 C   0  0  0  0  0  0  0  0  0  0  0  0
   24.6457    1.7801   33.1306 O   0  0  0  0  0  0  0  0  0  0  0  0
   23.7084    0.7066   33.1601 C   0  0  0  0  0  0  0  0  0  0  0  0
    0.0000    0.0000    0.0000 H   0  0  0  0  0  0  0  0  0  0  0  0
    0.0000    0.0000    0.0000 H   0  0  0  0  0  0  0  0  0  0  0  0
    0.0000    0.0000    0.0000 H   0  0  0  0  0  0  0  0  0  0  0  0
    0.0000    0.0000    0.0000 H   0  0  0  0  0  0  0  0  0  0  0  0
    0.0000    0.0000    0.0000 H   0  0  0  0  0  0  0  0  0  0  0  0
    0.0000    0.0000    0.0000 H   0  0  0  0  0  0  0  0  0  0  0  0
    0.0000    0.0000    0.0000 H   0  0  0  0  0  0  0  0  0  0  0  0
    0.0000    0.0000    0.0000 H   0  0  0  0  0  0  0  0  0  0  0  0
    0.0000    0.0000    0.0000 H   0  0  0  0  0  0  0  0  0  0  0  0
    0.0000    0.0000    0.0000 H   0  0  0  0  0  0  0  0  0  0  0  0
    0.0000    0.0000    0.0000 H   0  0  0  0  0  0  0  0  0  0  0  0
    0.0000    0.0000    0.0000 H   0  0  0  0  0  0  0  0  0  0  0  0
    0.0000    0.0000    0.0000 H   0  0  0  0  0  0  0  0  0  0  0  0
    0.0000    0.0000    0.0000 H   0  0  0  0  0  0  0  0  0  0  0  0
   10.4593    5.0201   15.4831 C   0  0  0  0  0  0  0  0  0  0  0  0
   10.6068    5.7425   14.3171 C   0  0  0  0  0  0  0  0  0  0  0  0
    9.8738    5.4078   13.1960 C   0  0  0  0  0  0  0  0  0  0  0  0
    9.0035    4.3379   13.2934 C   0  0  0  0  0  0  0  0  0  0  0  0
    8.8572    3.6128   14.4683 C   0  0  0  0  0  0  0  0  0  0  0  0
    7.9861    2.5445   14.5604 C   0  0  0  0  0  0  0  0  0  0  0  0
    7.8759    1.8549   15.7500 C   0  0  0  0  0  0  0  0  0  0  0  0
    8.6186    2.2072   16.8581 C   0  0  0  0  0  0  0  0  0  0  0  0
    9.4605    3.2510   16.7447 N   0  0  0  0  0  0  0  0  0  0  0  0
    9.6006    3.9566   15.5959 C   0  0  0  0  0  0  0  0  0  0  0  0
   11.2986    6.5939   14.2377 H   0  0  0  0  0  0  0  0  0  0  0  0
    9.9819    5.9671   12.2775 H   0  0  0  0  0  0  0  0  0  0  0  0
    8.4208    4.0571   12.4332 H   0  0  0  0  0  0  0  0  0  0  0  0
    7.4149    2.2879   13.6780 H   0  0  0  0  0  0  0  0  0  0  0  0
    7.1953    1.0168   15.8294 H   0  0  0  0  0  0  0  0  0  0  0  0
    8.4950    1.6390   17.7562 H   0  0  0  0  0  0  0  0  0  0  0  0
  1  2  2  0
  1  7  1  0
  2  3  1  0
  3  4  2  0
  3 10  1  0
  4  5  1  0
  5  6  1  0
  5  7  2  0
  7  8  1  0
  8  9  3  0
 10 11  1  0
 11 12  2  0
 11 13  1  0
 13 14  1  0
 14 15  2  0
 14 22  1  0
 15 16  1  0
 15 18  1  0
 16 17  1  0
 18 19  2  0
 19 20  1  0
 19 21  1  0
 21 22  2  0
 21 23  1  0
 23 24  1  0
  4 25  1  0
  6 26  1  0
  6 27  1  0
 10 28  1  0
 13 29  1  0
 13 30  1  0
 17 31  1  0
 17 32  1  0
 17 33  1  0
 18 34  1  0
 22 35  1  0
 24 36  1  0
 24 37  1  0
 24 38  1  0
 39 40  2  0
 40 41  1  0
 41 42  2  0
 42 43  1  0
 43 44  2  0
 44 45  1  0
 45 46  2  0
 46 47  1  0
 47 48  2  0
 48 39  1  0
 48 43  1  0
 40 49  1  0
 41 50  1  0
 42 51  1  0
 44 52  1  0
 45 53  1  0
 46 54  1  0
  1 39  1  0
M  END
>  <attachment_point>  (503) 
24

>  <score>  (503) 
<NA>

$$$$
17124-1
     RDKit          3D

 55 57  0  0  0  0  0  0  0  0999 V2000
   21.4127   10.2773   31.6976 C   0  0  0  0  0  0  0  0  0  0  0  0
   21.7567    9.0266   31.2850 N   0  0  0  0  0  0  0  0  0  0  0  0
   20.9811    7.9971   31.6572 C   0  0  0  0  0  0  0  0  0  0  0  0
   19.8706    8.1421   32.4769 C   0  0  0  0  0  0  0  0  0  0  0  0
   19.5217    9.4143   32.8937 C   0  0  0  0  0  0  0  0  0  0  0  0
   18.3827    9.4958   33.6863 N   0  0  0  0  0  0  0  0  0  0  0  0
   20.2923   10.5202   32.5003 C   0  0  0  0  0  0  0  0  0  0  0  0
   19.9657   11.8905   32.8774 C   0  0  0  0  0  0  0  0  0  0  0  0
   19.7135   12.9814   33.1712 N   0  0  0  0  0  0  0  0  0  0  0  0
   21.4435    6.8153   31.1146 N   0  0  0  0  0  0  0  0  0  0  0  0
   20.8639    5.6146   31.0308 C   0  0  0  0  0  0  0  0  0  0  0  0
   19.7396    5.3500   31.4512 O   0  0  0  0  0  0  0  0  0  0  0  0
   21.6499    4.5466   30.2798 C   0  0  0  0  0  0  0  0  0  0  0  0
   23.0247    4.2587   30.8770 C   0  0  0  0  0  0  0  0  0  0  0  0
   24.1218    5.0797   30.5737 C   0  0  0  0  0  0  0  0  0  0  0  0
   23.8940    6.1755   29.7600 O   0  0  0  0  0  0  0  0  0  0  0  0
   24.9260    7.1419   29.5741 C   0  0  0  0  0  0  0  0  0  0  0  0
   25.3756    4.7488   31.1028 C   0  0  0  0  0  0  0  0  0  0  0  0
   25.5283    3.6468   31.9432 C   0  0  0  0  0  0  0  0  0  0  0  0
   27.2648    3.2511   32.6230 Br  0  0  0  0  0  0  0  0  0  0  0  0
   24.4329    2.8399   32.2701 C   0  0  0  0  0  0  0  0  0  0  0  0
   23.1819    3.1565   31.7231 C   0  0  0  0  0  0  0  0  0  0  0  0
   24.6457    1.7801   33.1306 O   0  0  0  0  0  0  0  0  0  0  0  0
   23.7084    0.7066   33.1601 C   0  0  0  0  0  0  0  0  0  0  0  0
    0.0000    0.0000    0.0000 H   0  0  0  0  0  0  0  0  0  0  0  0
    0.0000    0.0000    0.0000 H   0  0  0  0  0  0  0  0  0  0  0  0
    0.0000    0.0000    0.0000 H   0  0  0  0  0  0  0  0  0  0  0  0
    0.0000    0.0000    0.0000 H   0  0  0  0  0  0  0  0  0  0  0  0
    0.0000    0.0000    0.0000 H   0  0  0  0  0  0  0  0  0  0  0  0
    0.0000    0.0000    0.0000 H   0  0  0  0  0  0  0  0  0  0  0  0
    0.0000    0.0000    0.0000 H   0  0  0  0  0  0  0  0  0  0  0  0
    0.0000    0.0000    0.0000 H   0  0  0  0  0  0  0  0  0  0  0  0
    0.0000    0.0000    0.0000 H   0  0  0  0  0  0  0  0  0  0  0  0
    0.0000    0.0000    0.0000 H   0  0  0  0  0  0  0  0  0  0  0  0
    0.0000    0.0000    0.0000 H   0  0  0  0  0  0  0  0  0  0  0  0
    0.0000    0.0000    0.0000 H   0  0  0  0  0  0  0  0  0  0  0  0
    0.0000    0.0000    0.0000 H   0  0  0  0  0  0  0  0  0  0  0  0
    0.0000    0.0000    0.0000 H   0  0  0  0  0  0  0  0  0  0  0  0
   10.4800    5.0300   15.5138 C   0  0  0  0  0  0  0  0  0  0  0  0
   11.0018    4.0937   14.6180 C   0  0  0  0  0  0  0  0  0  0  0  0
   10.2866    3.7185   13.5144 C   0  0  0  0  0  0  0  0  0  0  0  0
    9.0367    4.2924   13.3140 C   0  0  0  0  0  0  0  0  0  0  0  0
    8.2169    3.9240   12.1355 C   0  0  0  0  0  0  0  0  0  0  0  0
    8.5180    5.2167   14.1953 C   0  0  0  0  0  0  0  0  0  0  0  0
    7.1782    5.8036   13.9407 C   0  0  0  0  0  0  0  0  0  0  0  0
    9.2272    5.6038   15.3108 C   0  0  0  0  0  0  0  0  0  0  0  0
   11.9921    3.6508   14.7934 H   0  0  0  0  0  0  0  0  0  0  0  0
   10.6507    2.9992   12.7966 H   0  0  0  0  0  0  0  0  0  0  0  0
    7.1494    4.1325   12.3108 H   0  0  0  0  0  0  0  0  0  0  0  0
    8.3888    2.8794   11.8110 H   0  0  0  0  0  0  0  0  0  0  0  0
    8.5342    4.6108   11.2991 H   0  0  0  0  0  0  0  0  0  0  0  0
    6.8946    6.5369   14.7208 H   0  0  0  0  0  0  0  0  0  0  0  0
    6.3826    5.0080   13.9866 H   0  0  0  0  0  0  0  0  0  0  0  0
    7.1108    6.2451   12.9156 H   0  0  0  0  0  0  0  0  0  0  0  0
    8.8221    6.3287   16.0033 H   0  0  0  0  0  0  0  0  0  0  0  0
  1  2  2  0
  1  7  1  0
  2  3  1  0
  3  4  2  0
  3 10  1  0
  4  5  1  0
  5  6  1  0
  5  7  2  0
  7  8  1  0
  8  9  3  0
 10 11  1  0
 11 12  2  0
 11 13  1  0
 13 14  1  0
 14 15  2  0
 14 22  1  0
 15 16  1  0
 15 18  1  0
 16 17  1  0
 18 19  2  0
 19 20  1  0
 19 21  1  0
 21 22  2  0
 21 23  1  0
 23 24  1  0
  4 25  1  0
  6 26  1  0
  6 27  1  0
 10 28  1  0
 13 29  1  0
 13 30  1  0
 17 31  1  0
 17 32  1  0
 17 33  1  0
 18 34  1  0
 22 35  1  0
 24 36  1  0
 24 37  1  0
 24 38  1  0
 39 40  2  0
 40 41  1  0
 41 42  2  0
 42 43  1  0
 42 44  1  0
 44 45  1  0
 44 46  2  0
 46 39  1  0
 40 47  1  0
 41 48  1  0
 43 49  1  0
 43 50  1  0
 43 51  1  0
 45 52  1  0
 45 53  1  0
 45 54  1  0
 46 55  1  0
  1 39  1  0
M  END
>  <attachment_point>  (504) 
24

>  <score>  (504) 
<NA>

$$$$
17124-1
     RDKit          3D

 57 59  0  0  0  0  0  0  0  0999 V2000
   21.4127   10.2773   31.6976 C   0  0  0  0  0  0  0  0  0  0  0  0
   21.7567    9.0266   31.2850 N   0  0  0  0  0  0  0  0  0  0  0  0
   20.9811    7.9971   31.6572 C   0  0  0  0  0  0  0  0  0  0  0  0
   19.8706    8.1421   32.4769 C   0  0  0  0  0  0  0  0  0  0  0  0
   19.5217    9.4143   32.8937 C   0  0  0  0  0  0  0  0  0  0  0  0
   18.3827    9.4958   33.6863 N   0  0  0  0  0  0  0  0  0  0  0  0
   20.2923   10.5202   32.5003 C   0  0  0  0  0  0  0  0  0  0  0  0
   19.9657   11.8905   32.8774 C   0  0  0  0  0  0  0  0  0  0  0  0
   19.7135   12.9814   33.1712 N   0  0  0  0  0  0  0  0  0  0  0  0
   21.4435    6.8153   31.1146 N   0  0  0  0  0  0  0  0  0  0  0  0
   20.8639    5.6146   31.0308 C   0  0  0  0  0  0  0  0  0  0  0  0
   19.7396    5.3500   31.4512 O   0  0  0  0  0  0  0  0  0  0  0  0
   21.6499    4.5466   30.2798 C   0  0  0  0  0  0  0  0  0  0  0  0
   23.0247    4.2587   30.8770 C   0  0  0  0  0  0  0  0  0  0  0  0
   24.1218    5.0797   30.5737 C   0  0  0  0  0  0  0  0  0  0  0  0
   23.8940    6.1755   29.7600 O   0  0  0  0  0  0  0  0  0  0  0  0
   24.9260    7.1419   29.5741 C   0  0  0  0  0  0  0  0  0  0  0  0
   25.3756    4.7488   31.1028 C   0  0  0  0  0  0  0  0  0  0  0  0
   25.5283    3.6468   31.9432 C   0  0  0  0  0  0  0  0  0  0  0  0
   27.2648    3.2511   32.6230 Br  0  0  0  0  0  0  0  0  0  0  0  0
   24.4329    2.8399   32.2701 C   0  0  0  0  0  0  0  0  0  0  0  0
   23.1819    3.1565   31.7231 C   0  0  0  0  0  0  0  0  0  0  0  0
   24.6457    1.7801   33.1306 O   0  0  0  0  0  0  0  0  0  0  0  0
   23.7084    0.7066   33.1601 C   0  0  0  0  0  0  0  0  0  0  0  0
    0.0000    0.0000    0.0000 H   0  0  0  0  0  0  0  0  0  0  0  0
    0.0000    0.0000    0.0000 H   0  0  0  0  0  0  0  0  0  0  0  0
    0.0000    0.0000    0.0000 H   0  0  0  0  0  0  0  0  0  0  0  0
    0.0000    0.0000    0.0000 H   0  0  0  0  0  0  0  0  0  0  0  0
    0.0000    0.0000    0.0000 H   0  0  0  0  0  0  0  0  0  0  0  0
    0.0000    0.0000    0.0000 H   0  0  0  0  0  0  0  0  0  0  0  0
    0.0000    0.0000    0.0000 H   0  0  0  0  0  0  0  0  0  0  0  0
    0.0000    0.0000    0.0000 H   0  0  0  0  0  0  0  0  0  0  0  0
    0.0000    0.0000    0.0000 H   0  0  0  0  0  0  0  0  0  0  0  0
    0.0000    0.0000    0.0000 H   0  0  0  0  0  0  0  0  0  0  0  0
    0.0000    0.0000    0.0000 H   0  0  0  0  0  0  0  0  0  0  0  0
    0.0000    0.0000    0.0000 H   0  0  0  0  0  0  0  0  0  0  0  0
    0.0000    0.0000    0.0000 H   0  0  0  0  0  0  0  0  0  0  0  0
    0.0000    0.0000    0.0000 H   0  0  0  0  0  0  0  0  0  0  0  0
   10.4817    5.0308   15.5162 C   0  0  0  0  0  0  0  0  0  0  0  0
   10.0731    3.7167   15.3504 C   0  0  0  0  0  0  0  0  0  0  0  0
    9.3299    3.3587   14.2503 C   0  0  0  0  0  0  0  0  0  0  0  0
    8.9945    4.3277   13.3100 C   0  0  0  0  0  0  0  0  0  0  0  0
    8.2445    3.9641   12.2009 O   0  0  0  0  0  0  0  0  0  0  0  0
    7.9149    4.9559   11.2614 C   0  0  0  0  0  0  0  0  0  0  0  0
    9.4189    5.6339   13.5055 C   0  0  0  0  0  0  0  0  0  0  0  0
   10.1655    6.0047   14.6060 C   0  0  0  0  0  0  0  0  0  0  0  0
   10.5600    7.3266   14.7454 O   0  0  0  0  0  0  0  0  0  0  0  0
   10.2683    8.3494   13.8568 C   0  0  0  0  0  0  0  0  0  0  0  0
   10.3436    2.9566   16.1002 H   0  0  0  0  0  0  0  0  0  0  0  0
    8.9939    2.3336   14.0922 H   0  0  0  0  0  0  0  0  0  0  0  0
    7.3760    4.4635   10.4241 H   0  0  0  0  0  0  0  0  0  0  0  0
    8.8162    5.4988   10.8886 H   0  0  0  0  0  0  0  0  0  0  0  0
    7.2324    5.7332   11.7027 H   0  0  0  0  0  0  0  0  0  0  0  0
    9.1531    6.3627   12.7755 H   0  0  0  0  0  0  0  0  0  0  0  0
   10.3030    8.0476   12.7895 H   0  0  0  0  0  0  0  0  0  0  0  0
    9.2806    8.8340   14.0897 H   0  0  0  0  0  0  0  0  0  0  0  0
   11.0329    9.1631   14.0219 H   0  0  0  0  0  0  0  0  0  0  0  0
  1  2  2  0
  1  7  1  0
  2  3  1  0
  3  4  2  0
  3 10  1  0
  4  5  1  0
  5  6  1  0
  5  7  2  0
  7  8  1  0
  8  9  3  0
 10 11  1  0
 11 12  2  0
 11 13  1  0
 13 14  1  0
 14 15  2  0
 14 22  1  0
 15 16  1  0
 15 18  1  0
 16 17  1  0
 18 19  2  0
 19 20  1  0
 19 21  1  0
 21 22  2  0
 21 23  1  0
 23 24  1  0
  4 25  1  0
  6 26  1  0
  6 27  1  0
 10 28  1  0
 13 29  1  0
 13 30  1  0
 17 31  1  0
 17 32  1  0
 17 33  1  0
 18 34  1  0
 22 35  1  0
 24 36  1  0
 24 37  1  0
 24 38  1  0
 39 40  2  0
 40 41  1  0
 41 42  2  0
 42 43  1  0
 43 44  1  0
 42 45  1  0
 45 46  2  0
 46 47  1  0
 47 48  1  0
 46 39  1  0
 40 49  1  0
 41 50  1  0
 44 51  1  0
 44 52  1  0
 44 53  1  0
 45 54  1  0
 48 55  1  0
 48 56  1  0
 48 57  1  0
  1 39  1  0
M  END
>  <attachment_point>  (505) 
24

>  <score>  (505) 
<NA>

$$$$
17124-1
     RDKit          3D

 43 44  0  0  0  0  0  0  0  0999 V2000
   21.4127   10.2773   31.6976 C   0  0  0  0  0  0  0  0  0  0  0  0
   21.7567    9.0266   31.2850 N   0  0  0  0  0  0  0  0  0  0  0  0
   20.9811    7.9971   31.6572 C   0  0  0  0  0  0  0  0  0  0  0  0
   19.8706    8.1421   32.4769 C   0  0  0  0  0  0  0  0  0  0  0  0
   19.5217    9.4143   32.8937 C   0  0  0  0  0  0  0  0  0  0  0  0
   18.3827    9.4958   33.6863 N   0  0  0  0  0  0  0  0  0  0  0  0
   20.2923   10.5202   32.5003 C   0  0  0  0  0  0  0  0  0  0  0  0
   19.9657   11.8905   32.8774 C   0  0  0  0  0  0  0  0  0  0  0  0
   19.7135   12.9814   33.1712 N   0  0  0  0  0  0  0  0  0  0  0  0
   21.4435    6.8153   31.1146 N   0  0  0  0  0  0  0  0  0  0  0  0
   20.8639    5.6146   31.0308 C   0  0  0  0  0  0  0  0  0  0  0  0
   19.7396    5.3500   31.4512 O   0  0  0  0  0  0  0  0  0  0  0  0
   21.6499    4.5466   30.2798 C   0  0  0  0  0  0  0  0  0  0  0  0
   23.0247    4.2587   30.8770 C   0  0  0  0  0  0  0  0  0  0  0  0
   24.1218    5.0797   30.5737 C   0  0  0  0  0  0  0  0  0  0  0  0
   23.8940    6.1755   29.7600 O   0  0  0  0  0  0  0  0  0  0  0  0
   24.9260    7.1419   29.5741 C   0  0  0  0  0  0  0  0  0  0  0  0
   25.3756    4.7488   31.1028 C   0  0  0  0  0  0  0  0  0  0  0  0
   25.5283    3.6468   31.9432 C   0  0  0  0  0  0  0  0  0  0  0  0
   27.2648    3.2511   32.6230 Br  0  0  0  0  0  0  0  0  0  0  0  0
   24.4329    2.8399   32.2701 C   0  0  0  0  0  0  0  0  0  0  0  0
   23.1819    3.1565   31.7231 C   0  0  0  0  0  0  0  0  0  0  0  0
   24.6457    1.7801   33.1306 O   0  0  0  0  0  0  0  0  0  0  0  0
   23.7084    0.7066   33.1601 C   0  0  0  0  0  0  0  0  0  0  0  0
    0.0000    0.0000    0.0000 H   0  0  0  0  0  0  0  0  0  0  0  0
    0.0000    0.0000    0.0000 H   0  0  0  0  0  0  0  0  0  0  0  0
    0.0000    0.0000    0.0000 H   0  0  0  0  0  0  0  0  0  0  0  0
    0.0000    0.0000    0.0000 H   0  0  0  0  0  0  0  0  0  0  0  0
    0.0000    0.0000    0.0000 H   0  0  0  0  0  0  0  0  0  0  0  0
    0.0000    0.0000    0.0000 H   0  0  0  0  0  0  0  0  0  0  0  0
    0.0000    0.0000    0.0000 H   0  0  0  0  0  0  0  0  0  0  0  0
    0.0000    0.0000    0.0000 H   0  0  0  0  0  0  0  0  0  0  0  0
    0.0000    0.0000    0.0000 H   0  0  0  0  0  0  0  0  0  0  0  0
    0.0000    0.0000    0.0000 H   0  0  0  0  0  0  0  0  0  0  0  0
    0.0000    0.0000    0.0000 H   0  0  0  0  0  0  0  0  0  0  0  0
    0.0000    0.0000    0.0000 H   0  0  0  0  0  0  0  0  0  0  0  0
    0.0000    0.0000    0.0000 H   0  0  0  0  0  0  0  0  0  0  0  0
    0.0000    0.0000    0.0000 H   0  0  0  0  0  0  0  0  0  0  0  0
   10.5150    5.0468   15.5655 N   0  0  0  0  0  0  0  0  0  0  0  0
    9.1758    5.3600   15.5475 N   0  0  0  0  0  0  0  0  0  0  0  0
   10.9076    5.2070   14.5976 H   0  0  0  0  0  0  0  0  0  0  0  0
    8.9361    6.3440   15.6918 H   0  0  0  0  0  0  0  0  0  0  0  0
    8.5390    4.6614   15.9334 H   0  0  0  0  0  0  0  0  0  0  0  0
  1  2  2  0
  1  7  1  0
  2  3  1  0
  3  4  2  0
  3 10  1  0
  4  5  1  0
  5  6  1  0
  5  7  2  0
  7  8  1  0
  8  9  3  0
 10 11  1  0
 11 12  2  0
 11 13  1  0
 13 14  1  0
 14 15  2  0
 14 22  1  0
 15 16  1  0
 15 18  1  0
 16 17  1  0
 18 19  2  0
 19 20  1  0
 19 21  1  0
 21 22  2  0
 21 23  1  0
 23 24  1  0
  4 25  1  0
  6 26  1  0
  6 27  1  0
 10 28  1  0
 13 29  1  0
 13 30  1  0
 17 31  1  0
 17 32  1  0
 17 33  1  0
 18 34  1  0
 22 35  1  0
 24 36  1  0
 24 37  1  0
 24 38  1  0
 39 40  1  0
 39 41  1  0
 40 42  1  0
 40 43  1  0
  1 39  1  0
M  END
>  <attachment_point>  (506) 
24

>  <score>  (506) 
<NA>

$$$$
17124-1
     RDKit          3D

 52 55  0  0  0  0  0  0  0  0999 V2000
   21.4127   10.2773   31.6976 C   0  0  0  0  0  0  0  0  0  0  0  0
   21.7567    9.0266   31.2850 N   0  0  0  0  0  0  0  0  0  0  0  0
   20.9811    7.9971   31.6572 C   0  0  0  0  0  0  0  0  0  0  0  0
   19.8706    8.1421   32.4769 C   0  0  0  0  0  0  0  0  0  0  0  0
   19.5217    9.4143   32.8937 C   0  0  0  0  0  0  0  0  0  0  0  0
   18.3827    9.4958   33.6863 N   0  0  0  0  0  0  0  0  0  0  0  0
   20.2923   10.5202   32.5003 C   0  0  0  0  0  0  0  0  0  0  0  0
   19.9657   11.8905   32.8774 C   0  0  0  0  0  0  0  0  0  0  0  0
   19.7135   12.9814   33.1712 N   0  0  0  0  0  0  0  0  0  0  0  0
   21.4435    6.8153   31.1146 N   0  0  0  0  0  0  0  0  0  0  0  0
   20.8639    5.6146   31.0308 C   0  0  0  0  0  0  0  0  0  0  0  0
   19.7396    5.3500   31.4512 O   0  0  0  0  0  0  0  0  0  0  0  0
   21.6499    4.5466   30.2798 C   0  0  0  0  0  0  0  0  0  0  0  0
   23.0247    4.2587   30.8770 C   0  0  0  0  0  0  0  0  0  0  0  0
   24.1218    5.0797   30.5737 C   0  0  0  0  0  0  0  0  0  0  0  0
   23.8940    6.1755   29.7600 O   0  0  0  0  0  0  0  0  0  0  0  0
   24.9260    7.1419   29.5741 C   0  0  0  0  0  0  0  0  0  0  0  0
   25.3756    4.7488   31.1028 C   0  0  0  0  0  0  0  0  0  0  0  0
   25.5283    3.6468   31.9432 C   0  0  0  0  0  0  0  0  0  0  0  0
   27.2648    3.2511   32.6230 Br  0  0  0  0  0  0  0  0  0  0  0  0
   24.4329    2.8399   32.2701 C   0  0  0  0  0  0  0  0  0  0  0  0
   23.1819    3.1565   31.7231 C   0  0  0  0  0  0  0  0  0  0  0  0
   24.6457    1.7801   33.1306 O   0  0  0  0  0  0  0  0  0  0  0  0
   23.7084    0.7066   33.1601 C   0  0  0  0  0  0  0  0  0  0  0  0
    0.0000    0.0000    0.0000 H   0  0  0  0  0  0  0  0  0  0  0  0
    0.0000    0.0000    0.0000 H   0  0  0  0  0  0  0  0  0  0  0  0
    0.0000    0.0000    0.0000 H   0  0  0  0  0  0  0  0  0  0  0  0
    0.0000    0.0000    0.0000 H   0  0  0  0  0  0  0  0  0  0  0  0
    0.0000    0.0000    0.0000 H   0  0  0  0  0  0  0  0  0  0  0  0
    0.0000    0.0000    0.0000 H   0  0  0  0  0  0  0  0  0  0  0  0
    0.0000    0.0000    0.0000 H   0  0  0  0  0  0  0  0  0  0  0  0
    0.0000    0.0000    0.0000 H   0  0  0  0  0  0  0  0  0  0  0  0
    0.0000    0.0000    0.0000 H   0  0  0  0  0  0  0  0  0  0  0  0
    0.0000    0.0000    0.0000 H   0  0  0  0  0  0  0  0  0  0  0  0
    0.0000    0.0000    0.0000 H   0  0  0  0  0  0  0  0  0  0  0  0
    0.0000    0.0000    0.0000 H   0  0  0  0  0  0  0  0  0  0  0  0
    0.0000    0.0000    0.0000 H   0  0  0  0  0  0  0  0  0  0  0  0
    0.0000    0.0000    0.0000 H   0  0  0  0  0  0  0  0  0  0  0  0
   10.4597    5.0202   15.4836 C   0  0  0  0  0  0  0  0  0  0  0  0
    9.1054    5.0766   15.6105 C   0  0  0  0  0  0  0  0  0  0  0  0
    8.5703    4.5721   14.0714 S   0  0  0  0  0  0  0  0  0  0  0  0
   10.0773    4.3070   13.3200 C   0  0  0  0  0  0  0  0  0  0  0  0
   10.4808    3.8808   12.0466 C   0  0  0  0  0  0  0  0  0  0  0  0
   11.8117    3.7570   11.7157 C   0  0  0  0  0  0  0  0  0  0  0  0
   12.6981    4.0849   12.7334 C   0  0  0  0  0  0  0  0  0  0  0  0
   12.3346    4.4981   13.9681 C   0  0  0  0  0  0  0  0  0  0  0  0
   10.9707    4.6218   14.2980 C   0  0  0  0  0  0  0  0  0  0  0  0
    8.5194    5.3787   16.5034 H   0  0  0  0  0  0  0  0  0  0  0  0
    9.7363    3.6465   11.3163 H   0  0  0  0  0  0  0  0  0  0  0  0
   12.1494    3.4314   10.7444 H   0  0  0  0  0  0  0  0  0  0  0  0
   13.7570    3.9847   12.4647 H   0  0  0  0  0  0  0  0  0  0  0  0
   13.1207    4.7215   14.6675 H   0  0  0  0  0  0  0  0  0  0  0  0
  1  2  2  0
  1  7  1  0
  2  3  1  0
  3  4  2  0
  3 10  1  0
  4  5  1  0
  5  6  1  0
  5  7  2  0
  7  8  1  0
  8  9  3  0
 10 11  1  0
 11 12  2  0
 11 13  1  0
 13 14  1  0
 14 15  2  0
 14 22  1  0
 15 16  1  0
 15 18  1  0
 16 17  1  0
 18 19  2  0
 19 20  1  0
 19 21  1  0
 21 22  2  0
 21 23  1  0
 23 24  1  0
  4 25  1  0
  6 26  1  0
  6 27  1  0
 10 28  1  0
 13 29  1  0
 13 30  1  0
 17 31  1  0
 17 32  1  0
 17 33  1  0
 18 34  1  0
 22 35  1  0
 24 36  1  0
 24 37  1  0
 24 38  1  0
 39 40  2  0
 40 41  1  0
 41 42  1  0
 42 43  2  0
 43 44  1  0
 44 45  2  0
 45 46  1  0
 46 47  2  0
 47 39  1  0
 47 42  1  0
 40 48  1  0
 43 49  1  0
 44 50  1  0
 45 51  1  0
 46 52  1  0
  1 39  1  0
M  END
>  <attachment_point>  (507) 
24

>  <score>  (507) 
<NA>

$$$$
17124-1
     RDKit          3D

 49 51  0  0  0  0  0  0  0  0999 V2000
   21.4127   10.2773   31.6976 C   0  0  0  0  0  0  0  0  0  0  0  0
   21.7567    9.0266   31.2850 N   0  0  0  0  0  0  0  0  0  0  0  0
   20.9811    7.9971   31.6572 C   0  0  0  0  0  0  0  0  0  0  0  0
   19.8706    8.1421   32.4769 C   0  0  0  0  0  0  0  0  0  0  0  0
   19.5217    9.4143   32.8937 C   0  0  0  0  0  0  0  0  0  0  0  0
   18.3827    9.4958   33.6863 N   0  0  0  0  0  0  0  0  0  0  0  0
   20.2923   10.5202   32.5003 C   0  0  0  0  0  0  0  0  0  0  0  0
   19.9657   11.8905   32.8774 C   0  0  0  0  0  0  0  0  0  0  0  0
   19.7135   12.9814   33.1712 N   0  0  0  0  0  0  0  0  0  0  0  0
   21.4435    6.8153   31.1146 N   0  0  0  0  0  0  0  0  0  0  0  0
   20.8639    5.6146   31.0308 C   0  0  0  0  0  0  0  0  0  0  0  0
   19.7396    5.3500   31.4512 O   0  0  0  0  0  0  0  0  0  0  0  0
   21.6499    4.5466   30.2798 C   0  0  0  0  0  0  0  0  0  0  0  0
   23.0247    4.2587   30.8770 C   0  0  0  0  0  0  0  0  0  0  0  0
   24.1218    5.0797   30.5737 C   0  0  0  0  0  0  0  0  0  0  0  0
   23.8940    6.1755   29.7600 O   0  0  0  0  0  0  0  0  0  0  0  0
   24.9260    7.1419   29.5741 C   0  0  0  0  0  0  0  0  0  0  0  0
   25.3756    4.7488   31.1028 C   0  0  0  0  0  0  0  0  0  0  0  0
   25.5283    3.6468   31.9432 C   0  0  0  0  0  0  0  0  0  0  0  0
   27.2648    3.2511   32.6230 Br  0  0  0  0  0  0  0  0  0  0  0  0
   24.4329    2.8399   32.2701 C   0  0  0  0  0  0  0  0  0  0  0  0
   23.1819    3.1565   31.7231 C   0  0  0  0  0  0  0  0  0  0  0  0
   24.6457    1.7801   33.1306 O   0  0  0  0  0  0  0  0  0  0  0  0
   23.7084    0.7066   33.1601 C   0  0  0  0  0  0  0  0  0  0  0  0
    0.0000    0.0000    0.0000 H   0  0  0  0  0  0  0  0  0  0  0  0
    0.0000    0.0000    0.0000 H   0  0  0  0  0  0  0  0  0  0  0  0
    0.0000    0.0000    0.0000 H   0  0  0  0  0  0  0  0  0  0  0  0
    0.0000    0.0000    0.0000 H   0  0  0  0  0  0  0  0  0  0  0  0
    0.0000    0.0000    0.0000 H   0  0  0  0  0  0  0  0  0  0  0  0
    0.0000    0.0000    0.0000 H   0  0  0  0  0  0  0  0  0  0  0  0
    0.0000    0.0000    0.0000 H   0  0  0  0  0  0  0  0  0  0  0  0
    0.0000    0.0000    0.0000 H   0  0  0  0  0  0  0  0  0  0  0  0
    0.0000    0.0000    0.0000 H   0  0  0  0  0  0  0  0  0  0  0  0
    0.0000    0.0000    0.0000 H   0  0  0  0  0  0  0  0  0  0  0  0
    0.0000    0.0000    0.0000 H   0  0  0  0  0  0  0  0  0  0  0  0
    0.0000    0.0000    0.0000 H   0  0  0  0  0  0  0  0  0  0  0  0
    0.0000    0.0000    0.0000 H   0  0  0  0  0  0  0  0  0  0  0  0
    0.0000    0.0000    0.0000 H   0  0  0  0  0  0  0  0  0  0  0  0
    8.0898    3.8828   11.9755 H   0  0  0  0  0  0  0  0  0  0  0  0
   10.7666    2.7450   15.3908 H   0  0  0  0  0  0  0  0  0  0  0  0
    9.6135    7.0367   14.7783 H   0  0  0  0  0  0  0  0  0  0  0  0
    8.2134    6.3647   12.7056 H   0  0  0  0  0  0  0  0  0  0  0  0
    9.3664    2.0729   13.3182 H   0  0  0  0  0  0  0  0  0  0  0  0
   10.3009    4.9440   15.2486 C   0  0  0  0  0  0  0  0  0  0  0  0
   10.2293    3.5067   14.8258 C   0  0  0  0  0  0  0  0  0  0  0  0
    9.4184    3.1175   13.6254 C   0  0  0  0  0  0  0  0  0  0  0  0
    8.6791    4.1656   12.8478 C   0  0  0  0  0  0  0  0  0  0  0  0
    8.7506    5.6030   13.2706 C   0  0  0  0  0  0  0  0  0  0  0  0
    9.5616    5.9922   14.4710 C   0  0  0  0  0  0  0  0  0  0  0  0
  1  2  2  0
  1  7  1  0
  2  3  1  0
  3  4  2  0
  3 10  1  0
  4  5  1  0
  5  6  1  0
  5  7  2  0
  7  8  1  0
  8  9  3  0
 10 11  1  0
 11 12  2  0
 11 13  1  0
 13 14  1  0
 14 15  2  0
 14 22  1  0
 15 16  1  0
 15 18  1  0
 16 17  1  0
 18 19  2  0
 19 20  1  0
 19 21  1  0
 21 22  2  0
 21 23  1  0
 23 24  1  0
  4 25  1  0
  6 26  1  0
  6 27  1  0
 10 28  1  0
 13 29  1  0
 13 30  1  0
 17 31  1  0
 17 32  1  0
 17 33  1  0
 18 34  1  0
 22 35  1  0
 24 36  1  0
 24 37  1  0
 24 38  1  0
 44 45  2  0
 40 45  1  0
 45 46  1  0
 43 46  1  0
 46 47  2  0
 39 47  1  0
 47 48  1  0
 42 48  1  0
 48 49  2  0
 41 49  1  0
 44 49  1  0
  1 44  1  0
M  END
>  <attachment_point>  (508) 
24

>  <score>  (508) 
<NA>

$$$$
