
     RDKit          3D

 44 45  0  0  0  0  0  0  0  0999 V2000
    2.1391  142.5830   51.0528 H   0  0  0  0  0  0  0  0  0  0  0  0
    2.7252  143.1937   51.5188 O   0  0  0  0  0  0  0  0  0  0  0  0
    2.4194  142.7454   53.0136 P   0  0  0  0  0  0  0  0  0  0  0  0
    2.6715  141.2927   53.0308 O   0  0  0  0  0  0  0  0  0  0  0  0
    0.8717  142.5928   53.0592 O   0  0  0  0  0  0  0  0  0  0  0  0
    0.9383  141.6820   52.7410 H   0  0  0  0  0  0  0  0  0  0  0  0
    3.2550  143.8734   54.4494 C   0  0  0  0  0  0  0  0  0  0  0  0
    3.5206  145.1925   54.2255 N   0  0  0  0  0  0  0  0  0  0  0  0
    3.8857  146.0089   55.1908 C   0  0  0  0  0  0  0  0  0  0  0  0
    4.0274  147.2348   54.6720 N   0  0  0  0  0  0  0  0  0  0  0  0
    3.9381  147.2536   53.6703 H   0  0  0  0  0  0  0  0  0  0  0  0
    3.7726  148.3725   55.3583 C   0  0  0  0  0  0  0  0  0  0  0  0
    3.7707  148.3373   56.5740 O   0  0  0  0  0  0  0  0  0  0  0  0
    3.6079  149.6728   54.5897 C   0  0  0  0  0  0  0  0  0  0  0  0
    4.4029  149.7290   53.8448 H   0  0  0  0  0  0  0  0  0  0  0  0
    3.7490  150.4861   55.2972 H   0  0  0  0  0  0  0  0  0  0  0  0
    2.2581  149.8674   53.9295 C   0  0  0  0  0  0  0  0  0  0  0  0
    1.3895  150.7906   54.5335 C   0  0  0  0  0  0  0  0  0  0  0  0
    1.6866  151.2977   55.4459 H   0  0  0  0  0  0  0  0  0  0  0  0
    0.1426  151.0865   53.9849 C   0  0  0  0  0  0  0  0  0  0  0  0
   -0.6653  151.9960   54.6119 O   0  0  0  0  0  0  0  0  0  0  0  0
   -1.6018  151.3878   55.5046 C   0  0  0  0  0  0  0  0  0  0  0  0
   -2.3974  150.8914   54.9424 H   0  0  0  0  0  0  0  0  0  0  0  0
   -2.0494  152.1470   56.1526 H   0  0  0  0  0  0  0  0  0  0  0  0
   -1.1047  150.6505   56.1374 H   0  0  0  0  0  0  0  0  0  0  0  0
   -0.2558  150.4385   52.8089 C   0  0  0  0  0  0  0  0  0  0  0  0
   -1.9765  150.7797   52.0310 Br  0  0  0  0  0  0  0  0  0  0  0  0
    0.6017  149.5078   52.2084 C   0  0  0  0  0  0  0  0  0  0  0  0
    0.2895  149.0066   51.3020 H   0  0  0  0  0  0  0  0  0  0  0  0
    1.8593  149.1948   52.7485 C   0  0  0  0  0  0  0  0  0  0  0  0
    2.6853  148.2736   52.1332 O   0  0  0  0  0  0  0  0  0  0  0  0
    2.0437  147.3284   51.2531 C   0  0  0  0  0  0  0  0  0  0  0  0
    1.3014  146.7427   51.8058 H   0  0  0  0  0  0  0  0  0  0  0  0
    2.7811  146.6375   50.8345 H   0  0  0  0  0  0  0  0  0  0  0  0
    1.5455  147.8310   50.4175 H   0  0  0  0  0  0  0  0  0  0  0  0
    4.0520  145.6154   56.4804 C   0  0  0  0  0  0  0  0  0  0  0  0
    4.3369  146.3077   57.2492 H   0  0  0  0  0  0  0  0  0  0  0  0
    3.8758  144.2977   56.7637 C   0  0  0  0  0  0  0  0  0  0  0  0
    4.0770  143.9745   58.0728 N   0  0  0  0  0  0  0  0  0  0  0  0
    4.2369  143.0088   58.3494 H   0  0  0  0  0  0  0  0  0  0  0  0
    4.3809  144.7296   58.6852 H   0  0  0  0  0  0  0  0  0  0  0  0
    3.4813  143.3946   55.7759 C   0  0  0  0  0  0  0  0  0  0  0  0
    3.2962  142.0335   56.1601 C   0  0  0  0  0  0  0  0  0  0  0  0
    3.1601  140.9183   56.4715 N   0  0  0  0  0  0  0  0  0  0  0  0
  1  2  1  0
  2  3  1  0
  3  4  2  0
  3  5  1  0
  5  6  1  0
  3  7  1  0
  7  8  2  0
  8  9  1  0
  9 10  1  0
 10 11  1  0
 10 12  1  0
 12 13  2  0
 12 14  1  0
 14 15  1  0
 14 16  1  0
 14 17  1  0
 17 18  2  0
 18 19  1  0
 18 20  1  0
 20 21  1  0
 21 22  1  0
 22 23  1  0
 22 24  1  0
 22 25  1  0
 20 26  2  0
 26 27  1  0
 26 28  1  0
 28 29  1  0
 28 30  2  0
 30 31  1  0
 31 32  1  0
 32 33  1  0
 32 34  1  0
 32 35  1  0
  9 36  2  0
 36 37  1  0
 36 38  1  0
 38 39  1  0
 39 40  1  0
 39 41  1  0
 38 42  2  0
 42 43  1  0
 43 44  3  0
 42  7  1  0
 30 17  1  0
M  END
>  <score>  (1) 
5.99493

$$$$

     RDKit          3D

 47 48  0  0  0  0  0  0  0  0999 V2000
    4.2820  143.2458   51.6260 H   0  0  0  0  0  0  0  0  0  0  0  0
    3.7708  144.0356   51.8361 O   0  0  0  0  0  0  0  0  0  0  0  0
    2.3995  143.3589   52.1405 P   0  0  0  0  0  0  0  0  0  0  0  0
    1.2558  144.2576   51.9590 O   0  0  0  0  0  0  0  0  0  0  0  0
    2.3528  142.2115   51.0996 O   0  0  0  0  0  0  0  0  0  0  0  0
    2.2181  142.7573   50.3203 H   0  0  0  0  0  0  0  0  0  0  0  0
    2.3635  142.6852   53.6479 C   0  0  0  0  0  0  0  0  0  0  0  0
    1.3368  142.4642   53.8928 H   0  0  0  0  0  0  0  0  0  0  0  0
    2.9542  141.7825   53.6083 H   0  0  0  0  0  0  0  0  0  0  0  0
    2.9397  143.6441   54.5623 C   0  0  0  0  0  0  0  0  0  0  0  0
    3.0893  144.9028   54.1834 N   0  0  0  0  0  0  0  0  0  0  0  0
    3.5523  145.7521   55.0701 C   0  0  0  0  0  0  0  0  0  0  0  0
    3.6599  146.9636   54.4998 N   0  0  0  0  0  0  0  0  0  0  0  0
    3.4287  146.9985   53.5193 H   0  0  0  0  0  0  0  0  0  0  0  0
    3.7264  148.1339   55.1832 C   0  0  0  0  0  0  0  0  0  0  0  0
    3.8163  148.1467   56.3967 O   0  0  0  0  0  0  0  0  0  0  0  0
    3.7048  149.4352   54.4120 C   0  0  0  0  0  0  0  0  0  0  0  0
    3.9860  150.2193   55.0970 H   0  0  0  0  0  0  0  0  0  0  0  0
    4.4341  149.3966   53.6020 H   0  0  0  0  0  0  0  0  0  0  0  0
    2.3494  149.7709   53.8672 C   0  0  0  0  0  0  0  0  0  0  0  0
    1.5693  150.6828   54.5786 C   0  0  0  0  0  0  0  0  0  0  0  0
    1.9461  151.1294   55.4993 H   0  0  0  0  0  0  0  0  0  0  0  0
    0.3116  151.0431   54.1026 C   0  0  0  0  0  0  0  0  0  0  0  0
   -0.3886  151.9772   54.8135 O   0  0  0  0  0  0  0  0  0  0  0  0
   -1.4251  151.4073   55.6143 C   0  0  0  0  0  0  0  0  0  0  0  0
   -2.1507  150.8867   54.9853 H   0  0  0  0  0  0  0  0  0  0  0  0
   -1.0097  150.6921   56.3262 H   0  0  0  0  0  0  0  0  0  0  0  0
   -1.9437  152.1926   56.1743 H   0  0  0  0  0  0  0  0  0  0  0  0
   -0.1795  150.4833   52.9054 C   0  0  0  0  0  0  0  0  0  0  0  0
   -1.9150  150.9745   52.2557 Br  0  0  0  0  0  0  0  0  0  0  0  0
    0.6201  149.5802   52.1820 C   0  0  0  0  0  0  0  0  0  0  0  0
    0.2798  149.1782   51.2335 H   0  0  0  0  0  0  0  0  0  0  0  0
    1.8937  149.2222   52.6571 C   0  0  0  0  0  0  0  0  0  0  0  0
    2.7529  148.3973   51.9689 O   0  0  0  0  0  0  0  0  0  0  0  0
    2.1452  147.3012   51.2796 C   0  0  0  0  0  0  0  0  0  0  0  0
    1.4355  146.7924   51.9366 H   0  0  0  0  0  0  0  0  0  0  0  0
    2.9098  146.5796   50.9769 H   0  0  0  0  0  0  0  0  0  0  0  0
    1.6209  147.6408   50.3830 H   0  0  0  0  0  0  0  0  0  0  0  0
    3.8721  145.4232   56.3655 C   0  0  0  0  0  0  0  0  0  0  0  0
    4.2287  146.1441   57.0871 H   0  0  0  0  0  0  0  0  0  0  0  0
    3.7395  144.1115   56.7096 C   0  0  0  0  0  0  0  0  0  0  0  0
    4.0919  143.7585   57.9624 N   0  0  0  0  0  0  0  0  0  0  0  0
    4.0557  142.7828   58.2421 H   0  0  0  0  0  0  0  0  0  0  0  0
    4.4542  144.4700   58.5911 H   0  0  0  0  0  0  0  0  0  0  0  0
    3.2713  143.1852   55.8157 C   0  0  0  0  0  0  0  0  0  0  0  0
    3.1411  141.8038   56.1648 C   0  0  0  0  0  0  0  0  0  0  0  0
    3.0520  140.6779   56.4401 N   0  0  0  0  0  0  0  0  0  0  0  0
  1  2  1  0
  2  3  1  0
  3  4  2  0
  3  5  1  0
  5  6  1  0
  3  7  1  0
  7  8  1  0
  7  9  1  0
  7 10  1  0
 10 11  2  0
 11 12  1  0
 12 13  1  0
 13 14  1  0
 13 15  1  0
 15 16  2  0
 15 17  1  0
 17 18  1  0
 17 19  1  0
 17 20  1  0
 20 21  2  0
 21 22  1  0
 21 23  1  0
 23 24  1  0
 24 25  1  0
 25 26  1  0
 25 27  1  0
 25 28  1  0
 23 29  2  0
 29 30  1  0
 29 31  1  0
 31 32  1  0
 31 33  2  0
 33 34  1  0
 34 35  1  0
 35 36  1  0
 35 37  1  0
 35 38  1  0
 12 39  2  0
 39 40  1  0
 39 41  1  0
 41 42  1  0
 42 43  1  0
 42 44  1  0
 41 45  2  0
 45 46  1  0
 46 47  3  0
 45 10  1  0
 33 20  1  0
M  END
>  <score>  (2) 
6.09613

$$$$

     RDKit          3D

 47 48  0  0  0  0  0  0  0  0999 V2000
    1.9051  143.2924   50.3722 H   0  0  0  0  0  0  0  0  0  0  0  0
    1.5384  142.7433   51.0805 O   0  0  0  0  0  0  0  0  0  0  0  0
    2.1149  143.6069   52.2521 P   0  0  0  0  0  0  0  0  0  0  0  0
    3.0001  144.4731   51.4616 O   0  0  0  0  0  0  0  0  0  0  0  0
    0.9300  144.5280   52.7531 O   0  0  0  0  0  0  0  0  0  0  0  0
    0.7274  144.9542   51.9113 H   0  0  0  0  0  0  0  0  0  0  0  0
    2.9195  142.6532   53.6016 C   0  0  0  0  0  0  0  0  0  0  0  0
    2.0175  141.9360   54.3166 F   0  0  0  0  0  0  0  0  0  0  0  0
    3.8930  141.7950   53.1502 F   0  0  0  0  0  0  0  0  0  0  0  0
    3.4375  143.7057   54.5325 C   0  0  0  0  0  0  0  0  0  0  0  0
    3.4810  144.9851   54.1274 N   0  0  0  0  0  0  0  0  0  0  0  0
    3.7733  145.9222   55.0167 C   0  0  0  0  0  0  0  0  0  0  0  0
    3.7613  147.1599   54.4738 N   0  0  0  0  0  0  0  0  0  0  0  0
    3.5871  147.1934   53.4830 H   0  0  0  0  0  0  0  0  0  0  0  0
    3.6876  148.3126   55.2078 C   0  0  0  0  0  0  0  0  0  0  0  0
    3.7679  148.2656   56.4203 O   0  0  0  0  0  0  0  0  0  0  0  0
    3.5965  149.6546   54.4970 C   0  0  0  0  0  0  0  0  0  0  0  0
    4.3818  149.7112   53.7352 H   0  0  0  0  0  0  0  0  0  0  0  0
    3.7522  150.4402   55.2402 H   0  0  0  0  0  0  0  0  0  0  0  0
    2.2466  149.8796   53.8667 C   0  0  0  0  0  0  0  0  0  0  0  0
    1.3966  150.8177   54.4614 C   0  0  0  0  0  0  0  0  0  0  0  0
    1.7270  151.3821   55.3279 H   0  0  0  0  0  0  0  0  0  0  0  0
    0.1285  151.0755   53.9439 C   0  0  0  0  0  0  0  0  0  0  0  0
   -0.6640  151.9891   54.5834 O   0  0  0  0  0  0  0  0  0  0  0  0
   -1.6026  151.3753   55.4781 C   0  0  0  0  0  0  0  0  0  0  0  0
   -2.0515  152.1279   56.1312 H   0  0  0  0  0  0  0  0  0  0  0  0
   -1.1199  150.6261   56.1119 H   0  0  0  0  0  0  0  0  0  0  0  0
   -2.4077  150.8888   54.9217 H   0  0  0  0  0  0  0  0  0  0  0  0
   -0.2920  150.4169   52.7796 C   0  0  0  0  0  0  0  0  0  0  0  0
   -2.0052  150.7846   52.0175 Br  0  0  0  0  0  0  0  0  0  0  0  0
    0.5630  149.4953   52.1634 C   0  0  0  0  0  0  0  0  0  0  0  0
    0.2556  149.0032   51.2467 H   0  0  0  0  0  0  0  0  0  0  0  0
    1.8250  149.1956   52.7082 C   0  0  0  0  0  0  0  0  0  0  0  0
    2.6582  148.2576   52.1399 O   0  0  0  0  0  0  0  0  0  0  0  0
    2.0278  147.3084   51.2644 C   0  0  0  0  0  0  0  0  0  0  0  0
    1.4878  147.8137   50.4594 H   0  0  0  0  0  0  0  0  0  0  0  0
    1.3146  146.6966   51.8212 H   0  0  0  0  0  0  0  0  0  0  0  0
    2.7717  146.6434   50.8163 H   0  0  0  0  0  0  0  0  0  0  0  0
    4.0057  145.6605   56.3391 C   0  0  0  0  0  0  0  0  0  0  0  0
    4.1852  146.4317   57.0648 H   0  0  0  0  0  0  0  0  0  0  0  0
    3.9859  144.3766   56.7539 C   0  0  0  0  0  0  0  0  0  0  0  0
    4.1461  144.2034   58.0894 N   0  0  0  0  0  0  0  0  0  0  0  0
    4.3908  145.0195   58.6481 H   0  0  0  0  0  0  0  0  0  0  0  0
    4.3108  143.2706   58.4575 H   0  0  0  0  0  0  0  0  0  0  0  0
    3.7263  143.3647   55.8614 C   0  0  0  0  0  0  0  0  0  0  0  0
    3.5973  142.0257   56.3399 C   0  0  0  0  0  0  0  0  0  0  0  0
    3.4525  140.9369   56.7190 N   0  0  0  0  0  0  0  0  0  0  0  0
  1  2  1  0
  2  3  1  0
  3  4  2  0
  3  5  1  0
  5  6  1  0
  3  7  1  0
  7  8  1  0
  7  9  1  0
  7 10  1  0
 10 11  2  0
 11 12  1  0
 12 13  1  0
 13 14  1  0
 13 15  1  0
 15 16  2  0
 15 17  1  0
 17 18  1  0
 17 19  1  0
 17 20  1  0
 20 21  2  0
 21 22  1  0
 21 23  1  0
 23 24  1  0
 24 25  1  0
 25 26  1  0
 25 27  1  0
 25 28  1  0
 23 29  2  0
 29 30  1  0
 29 31  1  0
 31 32  1  0
 31 33  2  0
 33 34  1  0
 34 35  1  0
 35 36  1  0
 35 37  1  0
 35 38  1  0
 12 39  2  0
 39 40  1  0
 39 41  1  0
 41 42  1  0
 42 43  1  0
 42 44  1  0
 41 45  2  0
 45 46  1  0
 46 47  3  0
 45 10  1  0
 33 20  1  0
M  END
>  <score>  (3) 
6.20281

$$$$

     RDKit          3D

 45 46  0  0  0  0  0  0  0  0999 V2000
    2.3214  143.9818   50.6771 H   0  0  0  0  0  0  0  0  0  0  0  0
    2.8415  143.5578   51.3736 O   0  0  0  0  0  0  0  0  0  0  0  0
    1.9589  143.4875   52.3714 C   0  0  0  0  0  0  0  0  0  0  0  0
    0.8147  143.8812   52.2809 O   0  0  0  0  0  0  0  0  0  0  0  0
    2.3691  142.7462   53.6012 C   0  0  0  0  0  0  0  0  0  0  0  0
    1.4886  142.2475   54.0012 H   0  0  0  0  0  0  0  0  0  0  0  0
    3.1303  142.0140   53.3228 H   0  0  0  0  0  0  0  0  0  0  0  0
    2.9062  143.6802   54.6229 C   0  0  0  0  0  0  0  0  0  0  0  0
    3.0469  144.9614   54.2957 N   0  0  0  0  0  0  0  0  0  0  0  0
    3.5318  145.7894   55.2030 C   0  0  0  0  0  0  0  0  0  0  0  0
    3.6984  146.9992   54.6348 N   0  0  0  0  0  0  0  0  0  0  0  0
    3.5319  146.9737   53.6406 H   0  0  0  0  0  0  0  0  0  0  0  0
    3.7456  148.2108   55.2685 C   0  0  0  0  0  0  0  0  0  0  0  0
    3.8509  148.2681   56.4835 O   0  0  0  0  0  0  0  0  0  0  0  0
    3.7319  149.4723   54.3981 C   0  0  0  0  0  0  0  0  0  0  0  0
    4.0042  150.3522   54.9730 H   0  0  0  0  0  0  0  0  0  0  0  0
    4.4188  149.3509   53.5579 H   0  0  0  0  0  0  0  0  0  0  0  0
    2.3847  149.7819   53.8573 C   0  0  0  0  0  0  0  0  0  0  0  0
    1.6003  150.6902   54.5736 C   0  0  0  0  0  0  0  0  0  0  0  0
    1.9953  151.1432   55.4753 H   0  0  0  0  0  0  0  0  0  0  0  0
    0.3358  151.0626   54.1336 C   0  0  0  0  0  0  0  0  0  0  0  0
   -0.3796  151.9775   54.8630 O   0  0  0  0  0  0  0  0  0  0  0  0
   -1.4277  151.4042   55.6513 C   0  0  0  0  0  0  0  0  0  0  0  0
   -1.9449  152.2023   56.1955 H   0  0  0  0  0  0  0  0  0  0  0  0
   -1.0138  150.7035   56.3798 H   0  0  0  0  0  0  0  0  0  0  0  0
   -2.1552  150.8740   55.0254 H   0  0  0  0  0  0  0  0  0  0  0  0
   -0.1423  150.5033   52.9380 C   0  0  0  0  0  0  0  0  0  0  0  0
   -1.8669  150.9835   52.2753 Br  0  0  0  0  0  0  0  0  0  0  0  0
    0.6605  149.6105   52.1970 C   0  0  0  0  0  0  0  0  0  0  0  0
    0.3075  149.2037   51.2546 H   0  0  0  0  0  0  0  0  0  0  0  0
    1.9374  149.2401   52.6464 C   0  0  0  0  0  0  0  0  0  0  0  0
    2.7766  148.4005   51.9476 O   0  0  0  0  0  0  0  0  0  0  0  0
    2.1665  147.2927   51.2815 C   0  0  0  0  0  0  0  0  0  0  0  0
    1.6213  147.6329   50.3955 H   0  0  0  0  0  0  0  0  0  0  0  0
    1.4791  146.7637   51.9522 H   0  0  0  0  0  0  0  0  0  0  0  0
    2.9528  146.5957   50.9699 H   0  0  0  0  0  0  0  0  0  0  0  0
    3.8812  145.4212   56.4766 C   0  0  0  0  0  0  0  0  0  0  0  0
    4.3000  146.1124   57.1913 H   0  0  0  0  0  0  0  0  0  0  0  0
    3.7415  144.1045   56.7921 C   0  0  0  0  0  0  0  0  0  0  0  0
    4.1454  143.7183   58.0180 N   0  0  0  0  0  0  0  0  0  0  0  0
    4.4959  144.4282   58.6565 H   0  0  0  0  0  0  0  0  0  0  0  0
    4.0590  142.7414   58.2931 H   0  0  0  0  0  0  0  0  0  0  0  0
    3.2541  143.2012   55.8814 C   0  0  0  0  0  0  0  0  0  0  0  0
    3.1305  141.8202   56.2138 C   0  0  0  0  0  0  0  0  0  0  0  0
    3.0359  140.6851   56.4573 N   0  0  0  0  0  0  0  0  0  0  0  0
  1  2  1  0
  2  3  1  0
  3  4  2  0
  3  5  1  0
  5  6  1  0
  5  7  1  0
  5  8  1  0
  8  9  2  0
  9 10  1  0
 10 11  1  0
 11 12  1  0
 11 13  1  0
 13 14  2  0
 13 15  1  0
 15 16  1  0
 15 17  1  0
 15 18  1  0
 18 19  2  0
 19 20  1  0
 19 21  1  0
 21 22  1  0
 22 23  1  0
 23 24  1  0
 23 25  1  0
 23 26  1  0
 21 27  2  0
 27 28  1  0
 27 29  1  0
 29 30  1  0
 29 31  2  0
 31 32  1  0
 32 33  1  0
 33 34  1  0
 33 35  1  0
 33 36  1  0
 10 37  2  0
 37 38  1  0
 37 39  1  0
 39 40  1  0
 40 41  1  0
 40 42  1  0
 39 43  2  0
 43 44  1  0
 44 45  3  0
 43  8  1  0
 31 18  1  0
M  END
>  <score>  (4) 
6.27296

$$$$

     RDKit          3D

 40 41  0  0  0  0  0  0  0  0999 V2000
    2.3958  142.0443   54.1099 H   0  0  0  0  0  0  0  0  0  0  0  0
    2.4039  142.9255   53.7307 O   0  0  0  0  0  0  0  0  0  0  0  0
    2.9170  143.7135   54.6784 C   0  0  0  0  0  0  0  0  0  0  0  0
    3.0566  144.9728   54.3264 N   0  0  0  0  0  0  0  0  0  0  0  0
    3.5397  145.7851   55.2233 C   0  0  0  0  0  0  0  0  0  0  0  0
    3.6952  146.9817   54.6416 N   0  0  0  0  0  0  0  0  0  0  0  0
    3.5218  146.9338   53.6500 H   0  0  0  0  0  0  0  0  0  0  0  0
    3.7470  148.1944   55.2634 C   0  0  0  0  0  0  0  0  0  0  0  0
    3.8497  148.2477   56.4795 O   0  0  0  0  0  0  0  0  0  0  0  0
    3.7275  149.4605   54.4002 C   0  0  0  0  0  0  0  0  0  0  0  0
    4.0043  150.3314   54.9784 H   0  0  0  0  0  0  0  0  0  0  0  0
    4.4181  149.3493   53.5620 H   0  0  0  0  0  0  0  0  0  0  0  0
    2.3828  149.7826   53.8596 C   0  0  0  0  0  0  0  0  0  0  0  0
    1.5986  150.6904   54.5739 C   0  0  0  0  0  0  0  0  0  0  0  0
    1.9914  151.1449   55.4742 H   0  0  0  0  0  0  0  0  0  0  0  0
    0.3350  151.0609   54.1322 C   0  0  0  0  0  0  0  0  0  0  0  0
   -0.3805  151.9765   54.8624 O   0  0  0  0  0  0  0  0  0  0  0  0
   -1.4277  151.4047   55.6500 C   0  0  0  0  0  0  0  0  0  0  0  0
   -2.1532  150.8757   55.0246 H   0  0  0  0  0  0  0  0  0  0  0  0
   -1.9449  152.2009   56.1942 H   0  0  0  0  0  0  0  0  0  0  0  0
   -1.0149  150.7039   56.3763 H   0  0  0  0  0  0  0  0  0  0  0  0
   -0.1440  150.5023   52.9346 C   0  0  0  0  0  0  0  0  0  0  0  0
   -1.8708  150.9835   52.2742 Br  0  0  0  0  0  0  0  0  0  0  0  0
    0.6600  149.6072   52.1945 C   0  0  0  0  0  0  0  0  0  0  0  0
    0.3047  149.2021   51.2501 H   0  0  0  0  0  0  0  0  0  0  0  0
    1.9355  149.2390   52.6501 C   0  0  0  0  0  0  0  0  0  0  0  0
    2.7746  148.4016   51.9483 O   0  0  0  0  0  0  0  0  0  0  0  0
    2.1652  147.2948   51.2806 C   0  0  0  0  0  0  0  0  0  0  0  0
    1.6243  147.6350   50.3936 H   0  0  0  0  0  0  0  0  0  0  0  0
    1.4754  146.7686   51.9491 H   0  0  0  0  0  0  0  0  0  0  0  0
    2.9502  146.5959   50.9719 H   0  0  0  0  0  0  0  0  0  0  0  0
    3.8854  145.4094   56.4882 C   0  0  0  0  0  0  0  0  0  0  0  0
    4.2986  146.1039   57.1961 H   0  0  0  0  0  0  0  0  0  0  0  0
    3.7431  144.0919   56.7968 C   0  0  0  0  0  0  0  0  0  0  0  0
    4.1420  143.7126   58.0097 N   0  0  0  0  0  0  0  0  0  0  0  0
    4.0559  142.7383   58.2848 H   0  0  0  0  0  0  0  0  0  0  0  0
    4.4895  144.4270   58.6411 H   0  0  0  0  0  0  0  0  0  0  0  0
    3.2568  143.1872   55.9039 C   0  0  0  0  0  0  0  0  0  0  0  0
    3.1251  141.7990   56.2104 C   0  0  0  0  0  0  0  0  0  0  0  0
    3.0259  140.6605   56.4380 N   0  0  0  0  0  0  0  0  0  0  0  0
  1  2  1  0
  2  3  1  0
  3  4  2  0
  4  5  1  0
  5  6  1  0
  6  7  1  0
  6  8  1  0
  8  9  2  0
  8 10  1  0
 10 11  1  0
 10 12  1  0
 10 13  1  0
 13 14  2  0
 14 15  1  0
 14 16  1  0
 16 17  1  0
 17 18  1  0
 18 19  1  0
 18 20  1  0
 18 21  1  0
 16 22  2  0
 22 23  1  0
 22 24  1  0
 24 25  1  0
 24 26  2  0
 26 27  1  0
 27 28  1  0
 28 29  1  0
 28 30  1  0
 28 31  1  0
  5 32  2  0
 32 33  1  0
 32 34  1  0
 34 35  1  0
 35 36  1  0
 35 37  1  0
 34 38  2  0
 38 39  1  0
 39 40  3  0
 38  3  1  0
 26 13  1  0
M  END
>  <score>  (5) 
6.30447

$$$$

     RDKit          3D

 48 49  0  0  0  0  0  0  0  0999 V2000
   -0.4911  141.9825   49.0240 H   0  0  0  0  0  0  0  0  0  0  0  0
    0.4871  142.0387   48.9861 O   0  0  0  0  0  0  0  0  0  0  0  0
    1.0787  142.7631   50.0885 N   0  0  0  0  0  0  0  0  0  0  0  0
    1.3362  143.7389   49.9416 H   0  0  0  0  0  0  0  0  0  0  0  0
    1.4547  142.2405   51.3245 C   0  0  0  0  0  0  0  0  0  0  0  0
    1.2328  141.0698   51.6180 O   0  0  0  0  0  0  0  0  0  0  0  0
    1.9952  143.1710   52.3347 C   0  0  0  0  0  0  0  0  0  0  0  0
    2.0899  144.2135   52.0319 H   0  0  0  0  0  0  0  0  0  0  0  0
    2.3748  142.7969   53.6307 C   0  0  0  0  0  0  0  0  0  0  0  0
    2.2899  141.7613   53.9409 H   0  0  0  0  0  0  0  0  0  0  0  0
    2.9121  143.6930   54.6698 C   0  0  0  0  0  0  0  0  0  0  0  0
    3.0641  144.9765   54.3480 N   0  0  0  0  0  0  0  0  0  0  0  0
    3.5539  145.8021   55.2446 C   0  0  0  0  0  0  0  0  0  0  0  0
    3.7121  147.0022   54.6564 N   0  0  0  0  0  0  0  0  0  0  0  0
    3.5332  146.9630   53.6645 H   0  0  0  0  0  0  0  0  0  0  0  0
    3.7525  148.2190   55.2743 C   0  0  0  0  0  0  0  0  0  0  0  0
    3.8542  148.2805   56.4896 O   0  0  0  0  0  0  0  0  0  0  0  0
    3.7332  149.4777   54.3981 C   0  0  0  0  0  0  0  0  0  0  0  0
    4.4210  149.3546   53.5575 H   0  0  0  0  0  0  0  0  0  0  0  0
    4.0069  150.3571   54.9706 H   0  0  0  0  0  0  0  0  0  0  0  0
    2.3851  149.7873   53.8564 C   0  0  0  0  0  0  0  0  0  0  0  0
    1.5993  150.6931   54.5730 C   0  0  0  0  0  0  0  0  0  0  0  0
    1.9923  151.1471   55.4746 H   0  0  0  0  0  0  0  0  0  0  0  0
    0.3343  151.0624   54.1330 C   0  0  0  0  0  0  0  0  0  0  0  0
   -0.3806  151.9772   54.8633 O   0  0  0  0  0  0  0  0  0  0  0  0
   -1.4283  151.4045   55.6514 C   0  0  0  0  0  0  0  0  0  0  0  0
   -1.9456  152.2019   56.1957 H   0  0  0  0  0  0  0  0  0  0  0  0
   -1.0145  150.7038   56.3791 H   0  0  0  0  0  0  0  0  0  0  0  0
   -2.1548  150.8747   55.0254 H   0  0  0  0  0  0  0  0  0  0  0  0
   -0.1430  150.5027   52.9364 C   0  0  0  0  0  0  0  0  0  0  0  0
   -1.8679  150.9829   52.2743 Br  0  0  0  0  0  0  0  0  0  0  0  0
    0.6604  149.6088   52.1957 C   0  0  0  0  0  0  0  0  0  0  0  0
    0.3058  149.2031   51.2522 H   0  0  0  0  0  0  0  0  0  0  0  0
    1.9373  149.2413   52.6478 C   0  0  0  0  0  0  0  0  0  0  0  0
    2.7759  148.4003   51.9503 O   0  0  0  0  0  0  0  0  0  0  0  0
    2.1654  147.2948   51.2810 C   0  0  0  0  0  0  0  0  0  0  0  0
    2.9504  146.5927   50.9781 H   0  0  0  0  0  0  0  0  0  0  0  0
    1.6304  147.6353   50.3894 H   0  0  0  0  0  0  0  0  0  0  0  0
    1.4695  146.7721   51.9470 H   0  0  0  0  0  0  0  0  0  0  0  0
    3.9019  145.4355   56.5179 C   0  0  0  0  0  0  0  0  0  0  0  0
    4.3197  146.1326   57.2322 H   0  0  0  0  0  0  0  0  0  0  0  0
    3.7564  144.1125   56.8254 C   0  0  0  0  0  0  0  0  0  0  0  0
    4.1564  143.7207   58.0458 N   0  0  0  0  0  0  0  0  0  0  0  0
    4.0664  142.7417   58.3115 H   0  0  0  0  0  0  0  0  0  0  0  0
    4.5079  144.4259   58.6892 H   0  0  0  0  0  0  0  0  0  0  0  0
    3.2653  143.2036   55.9228 C   0  0  0  0  0  0  0  0  0  0  0  0
    3.1429  141.8201   56.2498 C   0  0  0  0  0  0  0  0  0  0  0  0
    3.0359  140.6797   56.4617 N   0  0  0  0  0  0  0  0  0  0  0  0
  1  2  1  0
  2  3  1  0
  3  4  1  0
  3  5  1  0
  5  6  2  0
  5  7  1  0
  7  8  1  0
  7  9  2  3
  9 10  1  0
  9 11  1  0
 11 12  2  0
 12 13  1  0
 13 14  1  0
 14 15  1  0
 14 16  1  0
 16 17  2  0
 16 18  1  0
 18 19  1  0
 18 20  1  0
 18 21  1  0
 21 22  2  0
 22 23  1  0
 22 24  1  0
 24 25  1  0
 25 26  1  0
 26 27  1  0
 26 28  1  0
 26 29  1  0
 24 30  2  0
 30 31  1  0
 30 32  1  0
 32 33  1  0
 32 34  2  0
 34 35  1  0
 35 36  1  0
 36 37  1  0
 36 38  1  0
 36 39  1  0
 13 40  2  0
 40 41  1  0
 40 42  1  0
 42 43  1  0
 43 44  1  0
 43 45  1  0
 42 46  2  0
 46 47  1  0
 47 48  3  0
 46 11  1  0
 34 21  1  0
M  END
>  <score>  (6) 
6.31158

$$$$

     RDKit          3D

 54 55  0  0  0  0  0  0  0  0999 V2000
   -0.0288  142.1881   50.6443 H   0  0  0  0  0  0  0  0  0  0  0  0
    0.8517  142.0516   50.1840 O   0  0  0  0  0  0  0  0  0  0  0  0
    1.2548  141.9818   51.6193 P   0  0  0  0  0  0  0  0  0  0  0  0
   -0.1885  142.1669   51.6306 O   0  0  0  0  0  0  0  0  0  0  0  0
    1.9564  140.6229   51.6942 O   0  0  0  0  0  0  0  0  0  0  0  0
    1.5600  140.2747   50.8784 H   0  0  0  0  0  0  0  0  0  0  0  0
    2.1174  143.1609   52.7188 C   0  0  0  0  0  0  0  0  0  0  0  0
    1.5170  144.0670   52.6950 H   0  0  0  0  0  0  0  0  0  0  0  0
    2.6993  142.9388   54.1998 N   0  0  0  0  0  0  0  0  0  0  0  0
    2.4329  142.1402   54.7863 H   0  0  0  0  0  0  0  0  0  0  0  0
    3.2332  143.8999   55.0491 C   0  0  0  0  0  0  0  0  0  0  0  0
    3.3569  145.1085   54.5494 N   0  0  0  0  0  0  0  0  0  0  0  0
    3.8080  146.0195   55.3536 C   0  0  0  0  0  0  0  0  0  0  0  0
    3.8586  147.1874   54.6976 N   0  0  0  0  0  0  0  0  0  0  0  0
    3.5624  147.1241   53.7372 H   0  0  0  0  0  0  0  0  0  0  0  0
    3.6974  148.3701   55.3500 C   0  0  0  0  0  0  0  0  0  0  0  0
    3.7507  148.3793   56.5643 O   0  0  0  0  0  0  0  0  0  0  0  0
    3.5346  149.6764   54.5812 C   0  0  0  0  0  0  0  0  0  0  0  0
    4.3108  149.7284   53.8156 H   0  0  0  0  0  0  0  0  0  0  0  0
    3.6908  150.5076   55.2726 H   0  0  0  0  0  0  0  0  0  0  0  0
    2.1751  149.8479   53.9416 C   0  0  0  0  0  0  0  0  0  0  0  0
    1.3106  150.8033   54.4948 C   0  0  0  0  0  0  0  0  0  0  0  0
    1.6104  151.3664   55.3752 H   0  0  0  0  0  0  0  0  0  0  0  0
    0.0594  151.0592   53.9291 C   0  0  0  0  0  0  0  0  0  0  0  0
   -0.7627  151.9765   54.5262 O   0  0  0  0  0  0  0  0  0  0  0  0
   -1.6751  151.3649   55.4453 C   0  0  0  0  0  0  0  0  0  0  0  0
   -2.4866  150.8732   54.8995 H   0  0  0  0  0  0  0  0  0  0  0  0
   -2.1074  152.1226   56.1058 H   0  0  0  0  0  0  0  0  0  0  0  0
   -1.1670  150.6214   56.0679 H   0  0  0  0  0  0  0  0  0  0  0  0
   -0.3334  150.3606   52.7767 C   0  0  0  0  0  0  0  0  0  0  0  0
   -2.0278  150.7054   51.9525 Br  0  0  0  0  0  0  0  0  0  0  0  0
    0.5177  149.3902   52.2319 C   0  0  0  0  0  0  0  0  0  0  0  0
    0.2013  148.8327   51.3566 H   0  0  0  0  0  0  0  0  0  0  0  0
    1.7726  149.1125   52.8055 C   0  0  0  0  0  0  0  0  0  0  0  0
    2.6167  148.1509   52.2931 O   0  0  0  0  0  0  0  0  0  0  0  0
    2.0814  147.3172   51.2534 C   0  0  0  0  0  0  0  0  0  0  0  0
    1.7092  147.9221   50.4201 H   0  0  0  0  0  0  0  0  0  0  0  0
    1.2593  146.7068   51.6406 H   0  0  0  0  0  0  0  0  0  0  0  0
    2.8594  146.6494   50.8726 H   0  0  0  0  0  0  0  0  0  0  0  0
    4.1460  145.8069   56.6608 C   0  0  0  0  0  0  0  0  0  0  0  0
    4.5002  146.5911   57.3065 H   0  0  0  0  0  0  0  0  0  0  0  0
    4.0253  144.5391   57.1257 C   0  0  0  0  0  0  0  0  0  0  0  0
    4.3720  144.3214   58.4016 N   0  0  0  0  0  0  0  0  0  0  0  0
    4.1156  143.4215   58.7967 H   0  0  0  0  0  0  0  0  0  0  0  0
    4.3873  145.1434   59.0030 H   0  0  0  0  0  0  0  0  0  0  0  0
    3.5476  143.5409   56.3356 C   0  0  0  0  0  0  0  0  0  0  0  0
    3.3746  142.1951   56.7771 C   0  0  0  0  0  0  0  0  0  0  0  0
    3.2265  141.0696   57.0239 N   0  0  0  0  0  0  0  0  0  0  0  0
    2.9883  143.0885   51.1162 P   0  0  0  0  0  0  0  0  0  0  0  0
    2.2174  143.9646   50.2168 O   0  0  0  0  0  0  0  0  0  0  0  0
    4.4843  143.0669   50.9179 O   0  0  0  0  0  0  0  0  0  0  0  0
    4.4502  142.0817   51.0062 H   0  0  0  0  0  0  0  0  0  0  0  0
    3.6327  141.8021   50.5886 O   0  0  0  0  0  0  0  0  0  0  0  0
    4.3485  142.3953   50.2414 H   0  0  0  0  0  0  0  0  0  0  0  0
  1  2  1  0
  2  3  1  0
  3  4  2  0
  3  5  1  0
  5  6  1  0
  3  7  1  0
  7  8  1  0
  7  9  1  0
  9 10  1  0
  9 11  1  0
 11 12  2  0
 12 13  1  0
 13 14  1  0
 14 15  1  0
 14 16  1  0
 16 17  2  0
 16 18  1  0
 18 19  1  0
 18 20  1  0
 18 21  1  0
 21 22  2  0
 22 23  1  0
 22 24  1  0
 24 25  1  0
 25 26  1  0
 26 27  1  0
 26 28  1  0
 26 29  1  0
 24 30  2  0
 30 31  1  0
 30 32  1  0
 32 33  1  0
 32 34  2  0
 34 35  1  0
 35 36  1  0
 36 37  1  0
 36 38  1  0
 36 39  1  0
 13 40  2  0
 40 41  1  0
 40 42  1  0
 42 43  1  0
 43 44  1  0
 43 45  1  0
 42 46  2  0
 46 47  1  0
 47 48  3  0
  7 49  1  0
 49 50  2  0
 49 51  1  0
 51 52  1  0
 49 53  1  0
 53 54  1  0
 46 11  1  0
 34 21  1  0
M  END
>  <score>  (7) 
6.37967

$$$$

     RDKit          3D

 42 43  0  0  0  0  0  0  0  0999 V2000
    2.0885  141.0702   52.9177 H   0  0  0  0  0  0  0  0  0  0  0  0
    2.6053  141.4507   53.6447 O   0  0  0  0  0  0  0  0  0  0  0  0
    2.4482  142.8008   53.4950 C   0  0  0  0  0  0  0  0  0  0  0  0
    1.8721  143.2843   52.5231 O   0  0  0  0  0  0  0  0  0  0  0  0
    2.9771  143.7284   54.5819 C   0  0  0  0  0  0  0  0  0  0  0  0
    3.1285  145.0488   54.3339 N   0  0  0  0  0  0  0  0  0  0  0  0
    3.5776  145.8569   55.2661 C   0  0  0  0  0  0  0  0  0  0  0  0
    3.7495  147.0236   54.6517 N   0  0  0  0  0  0  0  0  0  0  0  0
    3.4935  146.9639   53.6772 H   0  0  0  0  0  0  0  0  0  0  0  0
    3.7641  148.2333   55.2760 C   0  0  0  0  0  0  0  0  0  0  0  0
    3.8417  148.3027   56.4897 O   0  0  0  0  0  0  0  0  0  0  0  0
    3.7194  149.4878   54.4135 C   0  0  0  0  0  0  0  0  0  0  0  0
    3.9962  150.3454   55.0053 H   0  0  0  0  0  0  0  0  0  0  0  0
    4.4135  149.3896   53.5796 H   0  0  0  0  0  0  0  0  0  0  0  0
    2.3640  149.7836   53.8657 C   0  0  0  0  0  0  0  0  0  0  0  0
    1.5819  150.6906   54.5779 C   0  0  0  0  0  0  0  0  0  0  0  0
    1.9751  151.1451   55.4823 H   0  0  0  0  0  0  0  0  0  0  0  0
    0.3207  151.0507   54.1221 C   0  0  0  0  0  0  0  0  0  0  0  0
   -0.3843  151.9783   54.8454 O   0  0  0  0  0  0  0  0  0  0  0  0
   -1.4252  151.4039   55.6351 C   0  0  0  0  0  0  0  0  0  0  0  0
   -2.1486  150.8794   55.0044 H   0  0  0  0  0  0  0  0  0  0  0  0
   -1.0094  150.6960   56.3545 H   0  0  0  0  0  0  0  0  0  0  0  0
   -1.9383  152.2009   56.1801 H   0  0  0  0  0  0  0  0  0  0  0  0
   -0.1585  150.4894   52.9193 C   0  0  0  0  0  0  0  0  0  0  0  0
   -1.8923  150.9843   52.2725 Br  0  0  0  0  0  0  0  0  0  0  0  0
    0.6429  149.5889   52.1863 C   0  0  0  0  0  0  0  0  0  0  0  0
    0.2974  149.1884   51.2389 H   0  0  0  0  0  0  0  0  0  0  0  0
    1.9175  149.2299   52.6531 C   0  0  0  0  0  0  0  0  0  0  0  0
    2.7704  148.4047   51.9554 O   0  0  0  0  0  0  0  0  0  0  0  0
    2.1584  147.3021   51.2809 C   0  0  0  0  0  0  0  0  0  0  0  0
    2.9384  146.5999   50.9665 H   0  0  0  0  0  0  0  0  0  0  0  0
    1.4671  146.7772   51.9515 H   0  0  0  0  0  0  0  0  0  0  0  0
    1.6149  147.6480   50.3955 H   0  0  0  0  0  0  0  0  0  0  0  0
    3.9023  145.4747   56.5336 C   0  0  0  0  0  0  0  0  0  0  0  0
    4.3286  146.1316   57.2771 H   0  0  0  0  0  0  0  0  0  0  0  0
    3.7478  144.1507   56.8051 C   0  0  0  0  0  0  0  0  0  0  0  0
    4.1323  143.7422   58.0297 N   0  0  0  0  0  0  0  0  0  0  0  0
    4.0659  142.7611   58.2874 H   0  0  0  0  0  0  0  0  0  0  0  0
    4.4963  144.4313   58.6802 H   0  0  0  0  0  0  0  0  0  0  0  0
    3.2928  143.2490   55.8620 C   0  0  0  0  0  0  0  0  0  0  0  0
    3.1491  141.8659   56.1956 C   0  0  0  0  0  0  0  0  0  0  0  0
    3.0522  140.7370   56.4588 N   0  0  0  0  0  0  0  0  0  0  0  0
  1  2  1  0
  2  3  1  0
  3  4  2  0
  3  5  1  0
  5  6  2  0
  6  7  1  0
  7  8  1  0
  8  9  1  0
  8 10  1  0
 10 11  2  0
 10 12  1  0
 12 13  1  0
 12 14  1  0
 12 15  1  0
 15 16  2  0
 16 17  1  0
 16 18  1  0
 18 19  1  0
 19 20  1  0
 20 21  1  0
 20 22  1  0
 20 23  1  0
 18 24  2  0
 24 25  1  0
 24 26  1  0
 26 27  1  0
 26 28  2  0
 28 29  1  0
 29 30  1  0
 30 31  1  0
 30 32  1  0
 30 33  1  0
  7 34  2  0
 34 35  1  0
 34 36  1  0
 36 37  1  0
 37 38  1  0
 37 39  1  0
 36 40  2  0
 40 41  1  0
 41 42  3  0
 40  5  1  0
 28 15  1  0
M  END
>  <score>  (8) 
6.38175

$$$$

     RDKit          3D

 44 45  0  0  0  0  0  0  0  0999 V2000
    4.5003  143.6029   51.5691 H   0  0  0  0  0  0  0  0  0  0  0  0
    3.5797  143.9364   51.5755 O   0  0  0  0  0  0  0  0  0  0  0  0
    2.6579  143.0370   52.1822 N   0  0  0  0  0  0  0  0  0  0  0  0
    2.0056  142.4973   51.6068 H   0  0  0  0  0  0  0  0  0  0  0  0
    2.3630  142.9904   53.5326 C   0  0  0  0  0  0  0  0  0  0  0  0
    1.4023  142.2870   53.7754 O   0  0  0  0  0  0  0  0  0  0  0  0
    3.0096  143.7900   54.6073 C   0  0  0  0  0  0  0  0  0  0  0  0
    3.2230  145.0751   54.3396 N   0  0  0  0  0  0  0  0  0  0  0  0
    3.6599  145.8690   55.2750 C   0  0  0  0  0  0  0  0  0  0  0  0
    3.7686  147.0461   54.6711 N   0  0  0  0  0  0  0  0  0  0  0  0
    3.5184  146.9844   53.6968 H   0  0  0  0  0  0  0  0  0  0  0  0
    3.7620  148.2533   55.2820 C   0  0  0  0  0  0  0  0  0  0  0  0
    3.8523  148.3290   56.4949 O   0  0  0  0  0  0  0  0  0  0  0  0
    3.7226  149.4948   54.4044 C   0  0  0  0  0  0  0  0  0  0  0  0
    3.9996  150.3614   54.9803 H   0  0  0  0  0  0  0  0  0  0  0  0
    4.4182  149.3822   53.5752 H   0  0  0  0  0  0  0  0  0  0  0  0
    2.3738  149.7958   53.8596 C   0  0  0  0  0  0  0  0  0  0  0  0
    1.5858  150.6948   54.5766 C   0  0  0  0  0  0  0  0  0  0  0  0
    1.9816  151.1453   55.4802 H   0  0  0  0  0  0  0  0  0  0  0  0
    0.3241  151.0549   54.1261 C   0  0  0  0  0  0  0  0  0  0  0  0
   -0.3833  151.9757   54.8521 O   0  0  0  0  0  0  0  0  0  0  0  0
   -1.4263  151.4054   55.6417 C   0  0  0  0  0  0  0  0  0  0  0  0
   -1.0134  150.7011   56.3624 H   0  0  0  0  0  0  0  0  0  0  0  0
   -1.9432  152.1987   56.1876 H   0  0  0  0  0  0  0  0  0  0  0  0
   -2.1495  150.8792   55.0155 H   0  0  0  0  0  0  0  0  0  0  0  0
   -0.1519  150.4965   52.9249 C   0  0  0  0  0  0  0  0  0  0  0  0
   -1.8853  150.9839   52.2712 Br  0  0  0  0  0  0  0  0  0  0  0  0
    0.6503  149.5955   52.1901 C   0  0  0  0  0  0  0  0  0  0  0  0
    0.2981  149.1939   51.2417 H   0  0  0  0  0  0  0  0  0  0  0  0
    1.9256  149.2348   52.6541 C   0  0  0  0  0  0  0  0  0  0  0  0
    2.7714  148.4051   51.9520 O   0  0  0  0  0  0  0  0  0  0  0  0
    2.1632  147.2983   51.2808 C   0  0  0  0  0  0  0  0  0  0  0  0
    1.6065  147.6407   50.4047 H   0  0  0  0  0  0  0  0  0  0  0  0
    1.4868  146.7632   51.9549 H   0  0  0  0  0  0  0  0  0  0  0  0
    2.9444  146.6046   50.9530 H   0  0  0  0  0  0  0  0  0  0  0  0
    3.9458  145.4935   56.5547 C   0  0  0  0  0  0  0  0  0  0  0  0
    4.3238  146.1656   57.3116 H   0  0  0  0  0  0  0  0  0  0  0  0
    3.7888  144.1628   56.8220 C   0  0  0  0  0  0  0  0  0  0  0  0
    4.1424  143.7454   58.0560 N   0  0  0  0  0  0  0  0  0  0  0  0
    4.0712  142.7649   58.3104 H   0  0  0  0  0  0  0  0  0  0  0  0
    4.5067  144.4207   58.7162 H   0  0  0  0  0  0  0  0  0  0  0  0
    3.3090  143.2769   55.8761 C   0  0  0  0  0  0  0  0  0  0  0  0
    3.1563  141.8877   56.1874 C   0  0  0  0  0  0  0  0  0  0  0  0
    3.0427  140.7608   56.4476 N   0  0  0  0  0  0  0  0  0  0  0  0
  1  2  1  0
  2  3  1  0
  3  4  1  0
  3  5  1  0
  5  6  2  0
  5  7  1  0
  7  8  2  0
  8  9  1  0
  9 10  1  0
 10 11  1  0
 10 12  1  0
 12 13  2  0
 12 14  1  0
 14 15  1  0
 14 16  1  0
 14 17  1  0
 17 18  2  0
 18 19  1  0
 18 20  1  0
 20 21  1  0
 21 22  1  0
 22 23  1  0
 22 24  1  0
 22 25  1  0
 20 26  2  0
 26 27  1  0
 26 28  1  0
 28 29  1  0
 28 30  2  0
 30 31  1  0
 31 32  1  0
 32 33  1  0
 32 34  1  0
 32 35  1  0
  9 36  2  0
 36 37  1  0
 36 38  1  0
 38 39  1  0
 39 40  1  0
 39 41  1  0
 38 42  2  0
 42 43  1  0
 43 44  3  0
 42  7  1  0
 30 17  1  0
M  END
>  <score>  (9) 
6.4028

$$$$

     RDKit          3D

 43 44  0  0  0  0  0  0  0  0999 V2000
    0.9565  141.7048   52.7887 H   0  0  0  0  0  0  0  0  0  0  0  0
    1.1168  142.4511   53.3963 O   0  0  0  0  0  0  0  0  0  0  0  0
    2.5137  142.8142   53.4312 C   0  0  0  0  0  0  0  0  0  0  0  0
    3.1080  141.8962   53.4730 H   0  0  0  0  0  0  0  0  0  0  0  0
    2.7554  143.3470   52.4991 H   0  0  0  0  0  0  0  0  0  0  0  0
    2.9490  143.7101   54.5932 C   0  0  0  0  0  0  0  0  0  0  0  0
    3.1523  144.9915   54.2858 N   0  0  0  0  0  0  0  0  0  0  0  0
    3.6187  145.8063   55.1918 C   0  0  0  0  0  0  0  0  0  0  0  0
    3.7436  146.9931   54.5865 N   0  0  0  0  0  0  0  0  0  0  0  0
    3.4483  146.9664   53.6210 H   0  0  0  0  0  0  0  0  0  0  0  0
    3.7472  148.1815   55.2315 C   0  0  0  0  0  0  0  0  0  0  0  0
    3.8172  148.2269   56.4476 O   0  0  0  0  0  0  0  0  0  0  0  0
    3.6923  149.4588   54.4218 C   0  0  0  0  0  0  0  0  0  0  0  0
    4.4151  149.4168   53.6090 H   0  0  0  0  0  0  0  0  0  0  0  0
    3.9559  150.2717   55.0778 H   0  0  0  0  0  0  0  0  0  0  0  0
    2.3384  149.7643   53.8747 C   0  0  0  0  0  0  0  0  0  0  0  0
    1.5582  150.6762   54.5786 C   0  0  0  0  0  0  0  0  0  0  0  0
    1.9378  151.1325   55.4918 H   0  0  0  0  0  0  0  0  0  0  0  0
    0.3061  151.0362   54.0998 C   0  0  0  0  0  0  0  0  0  0  0  0
   -0.3870  151.9754   54.8060 O   0  0  0  0  0  0  0  0  0  0  0  0
   -1.4214  151.4056   55.6058 C   0  0  0  0  0  0  0  0  0  0  0  0
   -1.0070  150.6884   56.3168 H   0  0  0  0  0  0  0  0  0  0  0  0
   -1.9346  152.1941   56.1644 H   0  0  0  0  0  0  0  0  0  0  0  0
   -2.1479  150.8867   54.9763 H   0  0  0  0  0  0  0  0  0  0  0  0
   -0.1849  150.4745   52.9064 C   0  0  0  0  0  0  0  0  0  0  0  0
   -1.9183  150.9765   52.2617 Br  0  0  0  0  0  0  0  0  0  0  0  0
    0.6182  149.5733   52.1834 C   0  0  0  0  0  0  0  0  0  0  0  0
    0.2846  149.1707   51.2323 H   0  0  0  0  0  0  0  0  0  0  0  0
    1.8917  149.2195   52.6622 C   0  0  0  0  0  0  0  0  0  0  0  0
    2.7551  148.4070   51.9678 O   0  0  0  0  0  0  0  0  0  0  0  0
    2.1453  147.3150   51.2782 C   0  0  0  0  0  0  0  0  0  0  0  0
    1.5987  147.6643   50.3985 H   0  0  0  0  0  0  0  0  0  0  0  0
    1.4542  146.7901   51.9433 H   0  0  0  0  0  0  0  0  0  0  0  0
    2.9120  146.6062   50.9521 H   0  0  0  0  0  0  0  0  0  0  0  0
    3.9122  145.4520   56.4785 C   0  0  0  0  0  0  0  0  0  0  0  0
    4.2745  146.1534   57.2133 H   0  0  0  0  0  0  0  0  0  0  0  0
    3.7461  144.1368   56.7924 C   0  0  0  0  0  0  0  0  0  0  0  0
    4.1227  143.7645   58.0328 N   0  0  0  0  0  0  0  0  0  0  0  0
    4.0737  142.7852   58.2933 H   0  0  0  0  0  0  0  0  0  0  0  0
    4.4823  144.4686   58.6744 H   0  0  0  0  0  0  0  0  0  0  0  0
    3.2592  143.2294   55.8699 C   0  0  0  0  0  0  0  0  0  0  0  0
    3.1494  141.8447   56.1898 C   0  0  0  0  0  0  0  0  0  0  0  0
    3.0761  140.7102   56.4478 N   0  0  0  0  0  0  0  0  0  0  0  0
  1  2  1  0
  2  3  1  0
  3  4  1  0
  3  5  1  0
  3  6  1  0
  6  7  2  0
  7  8  1  0
  8  9  1  0
  9 10  1  0
  9 11  1  0
 11 12  2  0
 11 13  1  0
 13 14  1  0
 13 15  1  0
 13 16  1  0
 16 17  2  0
 17 18  1  0
 17 19  1  0
 19 20  1  0
 20 21  1  0
 21 22  1  0
 21 23  1  0
 21 24  1  0
 19 25  2  0
 25 26  1  0
 25 27  1  0
 27 28  1  0
 27 29  2  0
 29 30  1  0
 30 31  1  0
 31 32  1  0
 31 33  1  0
 31 34  1  0
  8 35  2  0
 35 36  1  0
 35 37  1  0
 37 38  1  0
 38 39  1  0
 38 40  1  0
 37 41  2  0
 41 42  1  0
 42 43  3  0
 41  6  1  0
 29 16  1  0
M  END
>  <score>  (10) 
6.42505

$$$$

     RDKit          3D

 43 44  0  0  0  0  0  0  0  0999 V2000
    0.2776  149.1743   51.2445 H   0  0  0  0  0  0  0  0  0  0  0  0
    0.6201  149.5819   52.1890 C   0  0  0  0  0  0  0  0  0  0  0  0
   -0.1878  150.4780   52.9100 C   0  0  0  0  0  0  0  0  0  0  0  0
   -1.9191  150.9702   52.2506 Br  0  0  0  0  0  0  0  0  0  0  0  0
    0.3026  151.0432   54.0981 C   0  0  0  0  0  0  0  0  0  0  0  0
   -0.3984  151.9788   54.8009 O   0  0  0  0  0  0  0  0  0  0  0  0
   -1.4285  151.4053   55.6049 C   0  0  0  0  0  0  0  0  0  0  0  0
   -2.1575  150.8871   54.9775 H   0  0  0  0  0  0  0  0  0  0  0  0
   -1.9408  152.1895   56.1698 H   0  0  0  0  0  0  0  0  0  0  0  0
   -1.0088  150.6904   56.3141 H   0  0  0  0  0  0  0  0  0  0  0  0
    1.5537  150.6805   54.5730 C   0  0  0  0  0  0  0  0  0  0  0  0
    1.9232  151.1240   55.4934 H   0  0  0  0  0  0  0  0  0  0  0  0
    2.3474  149.7882   53.8612 C   0  0  0  0  0  0  0  0  0  0  0  0
    3.7009  149.5043   54.4165 C   0  0  0  0  0  0  0  0  0  0  0  0
    3.9382  150.3280   55.0667 H   0  0  0  0  0  0  0  0  0  0  0  0
    4.4375  149.4364   53.6120 H   0  0  0  0  0  0  0  0  0  0  0  0
    3.7472  148.2558   55.2637 C   0  0  0  0  0  0  0  0  0  0  0  0
    3.8200  148.3074   56.4753 O   0  0  0  0  0  0  0  0  0  0  0  0
    3.8091  147.0742   54.6225 N   0  0  0  0  0  0  0  0  0  0  0  0
    3.4931  147.0433   53.6682 H   0  0  0  0  0  0  0  0  0  0  0  0
    3.7402  145.8921   55.2235 C   0  0  0  0  0  0  0  0  0  0  0  0
    3.3637  145.0924   54.2798 N   0  0  0  0  0  0  0  0  0  0  0  0
    3.1864  143.8456   54.6323 C   0  0  0  0  0  0  0  0  0  0  0  0
    2.6872  143.2119   53.5381 N   0  0  0  0  0  0  0  0  0  0  0  0
    2.6120  143.9631   52.8580 H   0  0  0  0  0  0  0  0  0  0  0  0
    1.6127  142.2505   53.5948 N   0  0  0  0  0  0  0  0  0  0  0  0
    0.6907  142.6530   53.4355 H   0  0  0  0  0  0  0  0  0  0  0  0
    1.7536  141.4198   53.0117 H   0  0  0  0  0  0  0  0  0  0  0  0
    3.3939  143.3424   55.8801 C   0  0  0  0  0  0  0  0  0  0  0  0
    3.1850  141.9632   56.1337 C   0  0  0  0  0  0  0  0  0  0  0  0
    3.0330  140.8205   56.2851 N   0  0  0  0  0  0  0  0  0  0  0  0
    3.7998  144.2296   56.8274 C   0  0  0  0  0  0  0  0  0  0  0  0
    4.0338  143.8124   58.0784 N   0  0  0  0  0  0  0  0  0  0  0  0
    4.5055  144.4504   58.7144 H   0  0  0  0  0  0  0  0  0  0  0  0
    4.0791  142.8043   58.2228 H   0  0  0  0  0  0  0  0  0  0  0  0
    3.9728  145.5493   56.5339 C   0  0  0  0  0  0  0  0  0  0  0  0
    4.2720  146.2454   57.3006 H   0  0  0  0  0  0  0  0  0  0  0  0
    1.8981  149.2338   52.6557 C   0  0  0  0  0  0  0  0  0  0  0  0
    2.7519  148.4044   51.9678 O   0  0  0  0  0  0  0  0  0  0  0  0
    2.1419  147.3115   51.2745 C   0  0  0  0  0  0  0  0  0  0  0  0
    1.4518  146.7827   51.9364 H   0  0  0  0  0  0  0  0  0  0  0  0
    2.9103  146.6045   50.9480 H   0  0  0  0  0  0  0  0  0  0  0  0
    1.5958  147.6577   50.3935 H   0  0  0  0  0  0  0  0  0  0  0  0
  1  2  1  0
  2  3  2  0
  3  4  1  0
  3  5  1  0
  5  6  1  0
  6  7  1  0
  7  8  1  0
  7  9  1  0
  7 10  1  0
  5 11  2  0
 11 12  1  0
 11 13  1  0
 13 14  1  0
 14 15  1  0
 14 16  1  0
 14 17  1  0
 17 18  2  0
 17 19  1  0
 19 20  1  0
 19 21  1  0
 21 22  2  0
 22 23  1  0
 23 24  1  0
 24 25  1  0
 24 26  1  0
 26 27  1  0
 26 28  1  0
 23 29  2  0
 29 30  1  0
 30 31  3  0
 29 32  1  0
 32 33  1  0
 33 34  1  0
 33 35  1  0
 32 36  2  0
 36 37  1  0
 13 38  2  0
 38 39  1  0
 39 40  1  0
 40 41  1  0
 40 42  1  0
 40 43  1  0
 38  2  1  0
 36 21  1  0
M  END
>  <score>  (11) 
6.42688

$$$$

     RDKit          3D

 47 48  0  0  0  0  0  0  0  0999 V2000
    0.8305  141.6165   49.8074 H   0  0  0  0  0  0  0  0  0  0  0  0
    1.0035  142.4020   50.3519 O   0  0  0  0  0  0  0  0  0  0  0  0
    1.4539  142.0204   51.6580 C   0  0  0  0  0  0  0  0  0  0  0  0
    0.6397  141.5599   52.2257 H   0  0  0  0  0  0  0  0  0  0  0  0
    2.2733  141.2974   51.5917 H   0  0  0  0  0  0  0  0  0  0  0  0
    1.9494  143.2267   52.4277 C   0  0  0  0  0  0  0  0  0  0  0  0
    1.1791  144.0037   52.4482 H   0  0  0  0  0  0  0  0  0  0  0  0
    2.8216  143.6556   51.9261 H   0  0  0  0  0  0  0  0  0  0  0  0
    2.2720  142.7354   53.7452 O   0  0  0  0  0  0  0  0  0  0  0  0
    2.8689  143.5966   54.6224 C   0  0  0  0  0  0  0  0  0  0  0  0
    2.9734  144.8801   54.2810 N   0  0  0  0  0  0  0  0  0  0  0  0
    3.4756  145.7079   55.1577 C   0  0  0  0  0  0  0  0  0  0  0  0
    3.6041  146.9243   54.5820 N   0  0  0  0  0  0  0  0  0  0  0  0
    3.3758  146.9464   53.6012 H   0  0  0  0  0  0  0  0  0  0  0  0
    3.6752  148.0969   55.2655 C   0  0  0  0  0  0  0  0  0  0  0  0
    3.7715  148.0861   56.4782 O   0  0  0  0  0  0  0  0  0  0  0  0
    3.6679  149.4127   54.4939 C   0  0  0  0  0  0  0  0  0  0  0  0
    3.9234  150.2130   55.1750 H   0  0  0  0  0  0  0  0  0  0  0  0
    4.4193  149.3807   53.7099 H   0  0  0  0  0  0  0  0  0  0  0  0
    2.3379  149.7534   53.8901 C   0  0  0  0  0  0  0  0  0  0  0  0
    1.5357  150.6653   54.5730 C   0  0  0  0  0  0  0  0  0  0  0  0
    1.8855  151.1025   55.5008 H   0  0  0  0  0  0  0  0  0  0  0  0
    0.2925  151.0479   54.0752 C   0  0  0  0  0  0  0  0  0  0  0  0
   -0.4265  151.9805   54.7674 O   0  0  0  0  0  0  0  0  0  0  0  0
   -1.4509  151.4011   55.5746 C   0  0  0  0  0  0  0  0  0  0  0  0
   -1.9542  152.1795   56.1557 H   0  0  0  0  0  0  0  0  0  0  0  0
   -1.0201  150.6744   56.2650 H   0  0  0  0  0  0  0  0  0  0  0  0
   -2.1904  150.8960   54.9494 H   0  0  0  0  0  0  0  0  0  0  0  0
   -0.1855  150.4707   52.8882 C   0  0  0  0  0  0  0  0  0  0  0  0
   -1.9191  150.9316   52.2165 Br  0  0  0  0  0  0  0  0  0  0  0  0
    0.6231  149.5637   52.1853 C   0  0  0  0  0  0  0  0  0  0  0  0
    0.2625  149.1385   51.2522 H   0  0  0  0  0  0  0  0  0  0  0  0
    1.8996  149.2066   52.6692 C   0  0  0  0  0  0  0  0  0  0  0  0
    2.7392  148.3622   51.9816 O   0  0  0  0  0  0  0  0  0  0  0  0
    2.1074  147.3011   51.2595 C   0  0  0  0  0  0  0  0  0  0  0  0
    1.5657  147.6823   50.3913 H   0  0  0  0  0  0  0  0  0  0  0  0
    2.8677  146.5966   50.9156 H   0  0  0  0  0  0  0  0  0  0  0  0
    1.4090  146.7633   51.9045 H   0  0  0  0  0  0  0  0  0  0  0  0
    3.8778  145.3340   56.4174 C   0  0  0  0  0  0  0  0  0  0  0  0
    4.3289  146.0140   57.1250 H   0  0  0  0  0  0  0  0  0  0  0  0
    3.8087  144.0084   56.7263 C   0  0  0  0  0  0  0  0  0  0  0  0
    4.2516  143.6393   57.9441 N   0  0  0  0  0  0  0  0  0  0  0  0
    4.4093  142.6495   58.1192 H   0  0  0  0  0  0  0  0  0  0  0  0
    3.9767  144.2429   58.7150 H   0  0  0  0  0  0  0  0  0  0  0  0
    3.3147  143.1042   55.8331 C   0  0  0  0  0  0  0  0  0  0  0  0
    3.1932  141.7152   56.1288 C   0  0  0  0  0  0  0  0  0  0  0  0
    3.0141  140.5800   56.3052 N   0  0  0  0  0  0  0  0  0  0  0  0
  1  2  1  0
  2  3  1  0
  3  4  1  0
  3  5  1  0
  3  6  1  0
  6  7  1  0
  6  8  1  0
  6  9  1  0
  9 10  1  0
 10 11  2  0
 11 12  1  0
 12 13  1  0
 13 14  1  0
 13 15  1  0
 15 16  2  0
 15 17  1  0
 17 18  1  0
 17 19  1  0
 17 20  1  0
 20 21  2  0
 21 22  1  0
 21 23  1  0
 23 24  1  0
 24 25  1  0
 25 26  1  0
 25 27  1  0
 25 28  1  0
 23 29  2  0
 29 30  1  0
 29 31  1  0
 31 32  1  0
 31 33  2  0
 33 34  1  0
 34 35  1  0
 35 36  1  0
 35 37  1  0
 35 38  1  0
 12 39  2  0
 39 40  1  0
 39 41  1  0
 41 42  1  0
 42 43  1  0
 42 44  1  0
 41 45  2  0
 45 46  1  0
 46 47  3  0
 45 10  1  0
 33 20  1  0
M  END
>  <score>  (12) 
6.44568

$$$$

     RDKit          3D

 48 49  0  0  0  0  0  0  0  0999 V2000
    0.3062  149.2000   51.2502 H   0  0  0  0  0  0  0  0  0  0  0  0
    0.6585  149.6052   52.1945 C   0  0  0  0  0  0  0  0  0  0  0  0
   -0.1454  150.4993   52.9349 C   0  0  0  0  0  0  0  0  0  0  0  0
   -1.8708  150.9844   52.2770 Br  0  0  0  0  0  0  0  0  0  0  0  0
    0.3338  151.0585   54.1311 C   0  0  0  0  0  0  0  0  0  0  0  0
   -0.3792  151.9760   54.8599 O   0  0  0  0  0  0  0  0  0  0  0  0
   -1.4262  151.4037   55.6469 C   0  0  0  0  0  0  0  0  0  0  0  0
   -1.0135  150.7022   56.3737 H   0  0  0  0  0  0  0  0  0  0  0  0
   -1.9413  152.2018   56.1905 H   0  0  0  0  0  0  0  0  0  0  0  0
   -2.1526  150.8752   55.0209 H   0  0  0  0  0  0  0  0  0  0  0  0
    1.5957  150.6883   54.5731 C   0  0  0  0  0  0  0  0  0  0  0  0
    1.9893  151.1448   55.4717 H   0  0  0  0  0  0  0  0  0  0  0  0
    2.3797  149.7812   53.8599 C   0  0  0  0  0  0  0  0  0  0  0  0
    3.7249  149.4662   54.4019 C   0  0  0  0  0  0  0  0  0  0  0  0
    3.9980  150.3405   54.9834 H   0  0  0  0  0  0  0  0  0  0  0  0
    4.4119  149.3558   53.5599 H   0  0  0  0  0  0  0  0  0  0  0  0
    3.7462  148.1939   55.2598 C   0  0  0  0  0  0  0  0  0  0  0  0
    3.8475  148.2475   56.4772 O   0  0  0  0  0  0  0  0  0  0  0  0
    3.7025  146.9803   54.6324 N   0  0  0  0  0  0  0  0  0  0  0  0
    3.5097  146.9326   53.6455 H   0  0  0  0  0  0  0  0  0  0  0  0
    3.5317  145.7854   55.2141 C   0  0  0  0  0  0  0  0  0  0  0  0
    3.0429  144.9566   54.3165 N   0  0  0  0  0  0  0  0  0  0  0  0
    2.9095  143.6747   54.6610 C   0  0  0  0  0  0  0  0  0  0  0  0
    2.4274  142.7505   53.7669 O   0  0  0  0  0  0  0  0  0  0  0  0
    1.9089  143.1795   52.4876 C   0  0  0  0  0  0  0  0  0  0  0  0
    1.8401  142.2892   51.8547 H   0  0  0  0  0  0  0  0  0  0  0  0
    2.5926  143.8850   52.0021 H   0  0  0  0  0  0  0  0  0  0  0  0
    0.5099  143.8020   52.5591 C   0  0  0  0  0  0  0  0  0  0  0  0
    0.5618  144.7179   53.1567 H   0  0  0  0  0  0  0  0  0  0  0  0
   -0.1641  143.1065   53.0636 H   0  0  0  0  0  0  0  0  0  0  0  0
   -0.0325  144.0829   51.2118 N   0  0  0  0  0  0  0  0  0  0  0  0
    0.5369  144.7555   50.6945 H   0  0  0  0  0  0  0  0  0  0  0  0
   -0.1554  143.2262   50.6702 H   0  0  0  0  0  0  0  0  0  0  0  0
    3.2650  143.2140   55.9075 C   0  0  0  0  0  0  0  0  0  0  0  0
    3.1452  141.8345   56.2363 C   0  0  0  0  0  0  0  0  0  0  0  0
    3.0366  140.6965   56.4473 N   0  0  0  0  0  0  0  0  0  0  0  0
    3.7453  144.1211   56.7982 C   0  0  0  0  0  0  0  0  0  0  0  0
    4.1448  143.7301   58.0110 N   0  0  0  0  0  0  0  0  0  0  0  0
    4.4946  144.4361   58.6525 H   0  0  0  0  0  0  0  0  0  0  0  0
    4.0554  142.7509   58.2742 H   0  0  0  0  0  0  0  0  0  0  0  0
    3.8849  145.4325   56.4866 C   0  0  0  0  0  0  0  0  0  0  0  0
    4.3046  146.1234   57.2019 H   0  0  0  0  0  0  0  0  0  0  0  0
    1.9338  149.2379   52.6497 C   0  0  0  0  0  0  0  0  0  0  0  0
    2.7741  148.4014   51.9493 O   0  0  0  0  0  0  0  0  0  0  0  0
    2.1625  147.2961   51.2827 C   0  0  0  0  0  0  0  0  0  0  0  0
    1.4648  146.7757   51.9487 H   0  0  0  0  0  0  0  0  0  0  0  0
    1.6289  147.6370   50.3909 H   0  0  0  0  0  0  0  0  0  0  0  0
    2.9471  146.5931   50.9825 H   0  0  0  0  0  0  0  0  0  0  0  0
  1  2  1  0
  2  3  2  0
  3  4  1  0
  3  5  1  0
  5  6  1  0
  6  7  1  0
  7  8  1  0
  7  9  1  0
  7 10  1  0
  5 11  2  0
 11 12  1  0
 11 13  1  0
 13 14  1  0
 14 15  1  0
 14 16  1  0
 14 17  1  0
 17 18  2  0
 17 19  1  0
 19 20  1  0
 19 21  1  0
 21 22  2  0
 22 23  1  0
 23 24  1  0
 24 25  1  0
 25 26  1  0
 25 27  1  0
 25 28  1  0
 28 29  1  0
 28 30  1  0
 28 31  1  0
 31 32  1  0
 31 33  1  0
 23 34  2  0
 34 35  1  0
 35 36  3  0
 34 37  1  0
 37 38  1  0
 38 39  1  0
 38 40  1  0
 37 41  2  0
 41 42  1  0
 13 43  2  0
 43 44  1  0
 44 45  1  0
 45 46  1  0
 45 47  1  0
 45 48  1  0
 43  2  1  0
 41 21  1  0
M  END
>  <score>  (13) 
6.5052

$$$$

     RDKit          3D

 48 49  0  0  0  0  0  0  0  0999 V2000
    0.9708  144.2876   51.1151 H   0  0  0  0  0  0  0  0  0  0  0  0
    1.8081  143.9765   51.4874 O   0  0  0  0  0  0  0  0  0  0  0  0
    1.4099  143.5020   52.6738 C   0  0  0  0  0  0  0  0  0  0  0  0
    0.2537  143.5564   53.0400 O   0  0  0  0  0  0  0  0  0  0  0  0
    2.4048  142.7663   53.5486 C   0  0  2  0  0  0  0  0  0  0  0  0
    1.8739  141.9639   54.0510 H   0  0  0  0  0  0  0  0  0  0  0  0
    2.8842  143.6959   54.6184 C   0  0  0  0  0  0  0  0  0  0  0  0
    3.0142  144.9826   54.3046 N   0  0  0  0  0  0  0  0  0  0  0  0
    3.5167  145.7994   55.2124 C   0  0  0  0  0  0  0  0  0  0  0  0
    3.7039  147.0026   54.6384 N   0  0  0  0  0  0  0  0  0  0  0  0
    3.5295  146.9741   53.6455 H   0  0  0  0  0  0  0  0  0  0  0  0
    3.7489  148.2147   55.2694 C   0  0  0  0  0  0  0  0  0  0  0  0
    3.8541  148.2732   56.4843 O   0  0  0  0  0  0  0  0  0  0  0  0
    3.7317  149.4748   54.3980 C   0  0  0  0  0  0  0  0  0  0  0  0
    4.0034  150.3534   54.9738 H   0  0  0  0  0  0  0  0  0  0  0  0
    4.4195  149.3522   53.5587 H   0  0  0  0  0  0  0  0  0  0  0  0
    2.3843  149.7849   53.8554 C   0  0  0  0  0  0  0  0  0  0  0  0
    1.5997  150.6925   54.5722 C   0  0  0  0  0  0  0  0  0  0  0  0
    1.9924  151.1465   55.4744 H   0  0  0  0  0  0  0  0  0  0  0  0
    0.3349  151.0627   54.1326 C   0  0  0  0  0  0  0  0  0  0  0  0
   -0.3794  151.9775   54.8639 O   0  0  0  0  0  0  0  0  0  0  0  0
   -1.4278  151.4043   55.6515 C   0  0  0  0  0  0  0  0  0  0  0  0
   -2.1547  150.8744   55.0251 H   0  0  0  0  0  0  0  0  0  0  0  0
   -1.9451  152.2022   56.1957 H   0  0  0  0  0  0  0  0  0  0  0  0
   -1.0144  150.7034   56.3797 H   0  0  0  0  0  0  0  0  0  0  0  0
   -0.1430  150.5025   52.9366 C   0  0  0  0  0  0  0  0  0  0  0  0
   -1.8676  150.9826   52.2747 Br  0  0  0  0  0  0  0  0  0  0  0  0
    0.6596  149.6094   52.1949 C   0  0  0  0  0  0  0  0  0  0  0  0
    0.3053  149.2027   51.2528 H   0  0  0  0  0  0  0  0  0  0  0  0
    1.9368  149.2416   52.6452 C   0  0  0  0  0  0  0  0  0  0  0  0
    2.7764  148.4010   51.9491 O   0  0  0  0  0  0  0  0  0  0  0  0
    2.1658  147.2938   51.2824 C   0  0  0  0  0  0  0  0  0  0  0  0
    1.6306  147.6335   50.3903 H   0  0  0  0  0  0  0  0  0  0  0  0
    1.4697  146.7717   51.9492 H   0  0  0  0  0  0  0  0  0  0  0  0
    2.9504  146.5905   50.9805 H   0  0  0  0  0  0  0  0  0  0  0  0
    3.8771  145.4237   56.4825 C   0  0  0  0  0  0  0  0  0  0  0  0
    4.3069  146.1119   57.1944 H   0  0  0  0  0  0  0  0  0  0  0  0
    3.7301  144.1058   56.7970 C   0  0  0  0  0  0  0  0  0  0  0  0
    4.1492  143.7142   58.0195 N   0  0  0  0  0  0  0  0  0  0  0  0
    4.0584  142.7387   58.2987 H   0  0  0  0  0  0  0  0  0  0  0  0
    4.4962  144.4237   58.6609 H   0  0  0  0  0  0  0  0  0  0  0  0
    3.2336  143.2088   55.8805 C   0  0  0  0  0  0  0  0  0  0  0  0
    3.1237  141.8243   56.2049 C   0  0  0  0  0  0  0  0  0  0  0  0
    3.0413  140.6883   56.4504 N   0  0  0  0  0  0  0  0  0  0  0  0
    3.5576  142.1730   52.7069 C   0  0  0  0  0  0  0  0  0  0  0  0
    4.2340  141.5901   53.3427 H   0  0  0  0  0  0  0  0  0  0  0  0
    3.1603  141.5050   51.9323 H   0  0  0  0  0  0  0  0  0  0  0  0
    4.1208  142.9759   52.2082 H   0  0  0  0  0  0  0  0  0  0  0  0
  1  2  1  0
  2  3  1  0
  3  4  2  0
  3  5  1  0
  5  6  1  1
  5  7  1  0
  7  8  2  0
  8  9  1  0
  9 10  1  0
 10 11  1  0
 10 12  1  0
 12 13  2  0
 12 14  1  0
 14 15  1  0
 14 16  1  0
 14 17  1  0
 17 18  2  0
 18 19  1  0
 18 20  1  0
 20 21  1  0
 21 22  1  0
 22 23  1  0
 22 24  1  0
 22 25  1  0
 20 26  2  0
 26 27  1  0
 26 28  1  0
 28 29  1  0
 28 30  2  0
 30 31  1  0
 31 32  1  0
 32 33  1  0
 32 34  1  0
 32 35  1  0
  9 36  2  0
 36 37  1  0
 36 38  1  0
 38 39  1  0
 39 40  1  0
 39 41  1  0
 38 42  2  0
 42 43  1  0
 43 44  3  0
  5 45  1  0
 45 46  1  0
 45 47  1  0
 45 48  1  0
 42  7  1  0
 30 17  1  0
M  END
>  <score>  (14) 
6.52013

$$$$

     RDKit          3D

 43 44  0  0  0  0  0  0  0  0999 V2000
    1.4983  140.1034   52.5987 H   0  0  0  0  0  0  0  0  0  0  0  0
    1.9819  140.8958   52.2980 O   0  0  0  0  0  0  0  0  0  0  0  0
    2.6014  141.5366   53.3960 N   0  0  0  0  0  0  0  0  0  0  0  0
    2.4868  142.8514   53.4449 C   0  0  0  0  0  0  0  0  0  0  0  0
    2.0014  143.3681   52.6187 H   0  0  0  0  0  0  0  0  0  0  0  0
    2.9425  143.6955   54.5891 C   0  0  0  0  0  0  0  0  0  0  0  0
    3.0651  145.0053   54.3397 N   0  0  0  0  0  0  0  0  0  0  0  0
    3.5507  145.8245   55.2576 C   0  0  0  0  0  0  0  0  0  0  0  0
    3.7299  147.0204   54.6682 N   0  0  0  0  0  0  0  0  0  0  0  0
    3.5396  146.9867   53.6795 H   0  0  0  0  0  0  0  0  0  0  0  0
    3.7537  148.2365   55.2852 C   0  0  0  0  0  0  0  0  0  0  0  0
    3.8538  148.3045   56.4987 O   0  0  0  0  0  0  0  0  0  0  0  0
    3.7287  149.4830   54.3969 C   0  0  0  0  0  0  0  0  0  0  0  0
    4.4201  149.3562   53.5600 H   0  0  0  0  0  0  0  0  0  0  0  0
    3.9940  150.3657   54.9641 H   0  0  0  0  0  0  0  0  0  0  0  0
    2.3824  149.7870   53.8559 C   0  0  0  0  0  0  0  0  0  0  0  0
    1.5991  150.6910   54.5750 C   0  0  0  0  0  0  0  0  0  0  0  0
    1.9934  151.1437   55.4767 H   0  0  0  0  0  0  0  0  0  0  0  0
    0.3347  151.0590   54.1338 C   0  0  0  0  0  0  0  0  0  0  0  0
   -0.3791  151.9767   54.8614 O   0  0  0  0  0  0  0  0  0  0  0  0
   -1.4269  151.4044   55.6498 C   0  0  0  0  0  0  0  0  0  0  0  0
   -2.1540  150.8746   55.0246 H   0  0  0  0  0  0  0  0  0  0  0  0
   -1.9440  152.2013   56.1944 H   0  0  0  0  0  0  0  0  0  0  0  0
   -1.0140  150.7032   56.3774 H   0  0  0  0  0  0  0  0  0  0  0  0
   -0.1429  150.5014   52.9359 C   0  0  0  0  0  0  0  0  0  0  0  0
   -1.8679  150.9839   52.2757 Br  0  0  0  0  0  0  0  0  0  0  0  0
    0.6605  149.6087   52.1976 C   0  0  0  0  0  0  0  0  0  0  0  0
    0.3085  149.2045   51.2555 H   0  0  0  0  0  0  0  0  0  0  0  0
    1.9362  149.2406   52.6479 C   0  0  0  0  0  0  0  0  0  0  0  0
    2.7773  148.4028   51.9486 O   0  0  0  0  0  0  0  0  0  0  0  0
    2.1666  147.2954   51.2807 C   0  0  0  0  0  0  0  0  0  0  0  0
    1.6237  147.6338   50.3927 H   0  0  0  0  0  0  0  0  0  0  0  0
    1.4760  146.7684   51.9493 H   0  0  0  0  0  0  0  0  0  0  0  0
    2.9507  146.5953   50.9713 H   0  0  0  0  0  0  0  0  0  0  0  0
    3.9061  145.4506   56.5270 C   0  0  0  0  0  0  0  0  0  0  0  0
    4.3330  146.1381   57.2546 H   0  0  0  0  0  0  0  0  0  0  0  0
    3.7456  144.1221   56.8074 C   0  0  0  0  0  0  0  0  0  0  0  0
    4.1480  143.7247   58.0353 N   0  0  0  0  0  0  0  0  0  0  0  0
    4.0660  142.7463   58.3052 H   0  0  0  0  0  0  0  0  0  0  0  0
    4.5045  144.4290   58.6784 H   0  0  0  0  0  0  0  0  0  0  0  0
    3.2647  143.2201   55.8686 C   0  0  0  0  0  0  0  0  0  0  0  0
    3.1398  141.8393   56.2107 C   0  0  0  0  0  0  0  0  0  0  0  0
    3.0424  140.7102   56.4710 N   0  0  0  0  0  0  0  0  0  0  0  0
  1  2  1  0
  2  3  1  0
  3  4  2  3
  4  5  1  0
  4  6  1  0
  6  7  2  0
  7  8  1  0
  8  9  1  0
  9 10  1  0
  9 11  1  0
 11 12  2  0
 11 13  1  0
 13 14  1  0
 13 15  1  0
 13 16  1  0
 16 17  2  0
 17 18  1  0
 17 19  1  0
 19 20  1  0
 20 21  1  0
 21 22  1  0
 21 23  1  0
 21 24  1  0
 19 25  2  0
 25 26  1  0
 25 27  1  0
 27 28  1  0
 27 29  2  0
 29 30  1  0
 30 31  1  0
 31 32  1  0
 31 33  1  0
 31 34  1  0
  8 35  2  0
 35 36  1  0
 35 37  1  0
 37 38  1  0
 38 39  1  0
 38 40  1  0
 37 41  2  0
 41 42  1  0
 42 43  3  0
 41  6  1  0
 29 16  1  0
M  END
>  <score>  (15) 
6.52187

$$$$

     RDKit          3D

 48 49  0  0  0  0  0  0  0  0999 V2000
   -0.3743  143.5733   50.7159 H   0  0  0  0  0  0  0  0  0  0  0  0
   -0.1079  144.3177   51.2861 O   0  0  0  0  0  0  0  0  0  0  0  0
    0.4512  143.8817   52.5485 C   0  0  0  0  0  0  0  0  0  0  0  0
   -0.2242  143.1572   53.0085 H   0  0  0  0  0  0  0  0  0  0  0  0
    0.5374  144.7341   53.2308 H   0  0  0  0  0  0  0  0  0  0  0  0
    1.8500  143.2586   52.4080 C   0  0  0  0  0  0  0  0  0  0  0  0
    1.7590  142.3924   51.7435 H   0  0  0  0  0  0  0  0  0  0  0  0
    2.5066  143.9831   51.9040 H   0  0  0  0  0  0  0  0  0  0  0  0
    2.4229  142.8423   53.7259 N   0  0  0  0  0  0  0  0  0  0  0  0
    2.4640  141.8667   53.9974 H   0  0  0  0  0  0  0  0  0  0  0  0
    2.9202  143.6953   54.6696 C   0  0  0  0  0  0  0  0  0  0  0  0
    3.0427  144.9562   54.3109 N   0  0  0  0  0  0  0  0  0  0  0  0
    3.5273  145.7752   55.2076 C   0  0  0  0  0  0  0  0  0  0  0  0
    3.6855  146.9790   54.6344 N   0  0  0  0  0  0  0  0  0  0  0  0
    3.5220  146.9415   53.6410 H   0  0  0  0  0  0  0  0  0  0  0  0
    3.7456  148.1909   55.2629 C   0  0  0  0  0  0  0  0  0  0  0  0
    3.8470  148.2478   56.4799 O   0  0  0  0  0  0  0  0  0  0  0  0
    3.7279  149.4592   54.4009 C   0  0  0  0  0  0  0  0  0  0  0  0
    4.4174  149.3468   53.5617 H   0  0  0  0  0  0  0  0  0  0  0  0
    4.0052  150.3306   54.9785 H   0  0  0  0  0  0  0  0  0  0  0  0
    2.3828  149.7807   53.8609 C   0  0  0  0  0  0  0  0  0  0  0  0
    1.5992  150.6893   54.5747 C   0  0  0  0  0  0  0  0  0  0  0  0
    1.9919  151.1447   55.4744 H   0  0  0  0  0  0  0  0  0  0  0  0
    0.3360  151.0601   54.1325 C   0  0  0  0  0  0  0  0  0  0  0  0
   -0.3794  151.9761   54.8623 O   0  0  0  0  0  0  0  0  0  0  0  0
   -1.4272  151.4045   55.6497 C   0  0  0  0  0  0  0  0  0  0  0  0
   -1.0147  150.7036   56.3763 H   0  0  0  0  0  0  0  0  0  0  0  0
   -1.9442  152.2010   56.1937 H   0  0  0  0  0  0  0  0  0  0  0  0
   -2.1529  150.8756   55.0242 H   0  0  0  0  0  0  0  0  0  0  0  0
   -0.1432  150.5016   52.9350 C   0  0  0  0  0  0  0  0  0  0  0  0
   -1.8700  150.9832   52.2746 Br  0  0  0  0  0  0  0  0  0  0  0  0
    0.6605  149.6064   52.1952 C   0  0  0  0  0  0  0  0  0  0  0  0
    0.3054  149.2013   51.2510 H   0  0  0  0  0  0  0  0  0  0  0  0
    1.9356  149.2372   52.6510 C   0  0  0  0  0  0  0  0  0  0  0  0
    2.7743  148.3998   51.9486 O   0  0  0  0  0  0  0  0  0  0  0  0
    2.1632  147.2935   51.2814 C   0  0  0  0  0  0  0  0  0  0  0  0
    2.9473  146.5907   50.9796 H   0  0  0  0  0  0  0  0  0  0  0  0
    1.4671  146.7721   51.9474 H   0  0  0  0  0  0  0  0  0  0  0  0
    1.6289  147.6335   50.3901 H   0  0  0  0  0  0  0  0  0  0  0  0
    3.8824  145.4110   56.4770 C   0  0  0  0  0  0  0  0  0  0  0  0
    4.2970  146.1114   57.1866 H   0  0  0  0  0  0  0  0  0  0  0  0
    3.7458  144.0935   56.7880 C   0  0  0  0  0  0  0  0  0  0  0  0
    4.1399  143.7154   58.0081 N   0  0  0  0  0  0  0  0  0  0  0  0
    4.0566  142.7403   58.2836 H   0  0  0  0  0  0  0  0  0  0  0  0
    4.4908  144.4287   58.6422 H   0  0  0  0  0  0  0  0  0  0  0  0
    3.2667  143.1880   55.8954 C   0  0  0  0  0  0  0  0  0  0  0  0
    3.1384  141.8049   56.2158 C   0  0  0  0  0  0  0  0  0  0  0  0
    3.0263  140.6674   56.4344 N   0  0  0  0  0  0  0  0  0  0  0  0
  1  2  1  0
  2  3  1  0
  3  4  1  0
  3  5  1  0
  3  6  1  0
  6  7  1  0
  6  8  1  0
  6  9  1  0
  9 10  1  0
  9 11  1  0
 11 12  2  0
 12 13  1  0
 13 14  1  0
 14 15  1  0
 14 16  1  0
 16 17  2  0
 16 18  1  0
 18 19  1  0
 18 20  1  0
 18 21  1  0
 21 22  2  0
 22 23  1  0
 22 24  1  0
 24 25  1  0
 25 26  1  0
 26 27  1  0
 26 28  1  0
 26 29  1  0
 24 30  2  0
 30 31  1  0
 30 32  1  0
 32 33  1  0
 32 34  2  0
 34 35  1  0
 35 36  1  0
 36 37  1  0
 36 38  1  0
 36 39  1  0
 13 40  2  0
 40 41  1  0
 40 42  1  0
 42 43  1  0
 43 44  1  0
 43 45  1  0
 42 46  2  0
 46 47  1  0
 47 48  3  0
 46 11  1  0
 34 21  1  0
M  END
>  <score>  (16) 
6.52616

$$$$

     RDKit          3D

 49 50  0  0  0  0  0  0  0  0999 V2000
    0.3045  149.2028   51.2508 H   0  0  0  0  0  0  0  0  0  0  0  0
    0.6602  149.6071   52.1949 C   0  0  0  0  0  0  0  0  0  0  0  0
   -0.1437  150.5020   52.9350 C   0  0  0  0  0  0  0  0  0  0  0  0
   -1.8706  150.9834   52.2743 Br  0  0  0  0  0  0  0  0  0  0  0  0
    0.3353  151.0607   54.1324 C   0  0  0  0  0  0  0  0  0  0  0  0
   -0.3800  151.9765   54.8624 O   0  0  0  0  0  0  0  0  0  0  0  0
   -1.4276  151.4046   55.6501 C   0  0  0  0  0  0  0  0  0  0  0  0
   -1.0148  150.7039   56.3765 H   0  0  0  0  0  0  0  0  0  0  0  0
   -1.9447  152.2009   56.1942 H   0  0  0  0  0  0  0  0  0  0  0  0
   -2.1532  150.8756   55.0246 H   0  0  0  0  0  0  0  0  0  0  0  0
    1.5989  150.6902   54.5739 C   0  0  0  0  0  0  0  0  0  0  0  0
    1.9915  151.1451   55.4745 H   0  0  0  0  0  0  0  0  0  0  0  0
    2.3822  149.7816   53.8593 C   0  0  0  0  0  0  0  0  0  0  0  0
    3.7271  149.4586   54.3997 C   0  0  0  0  0  0  0  0  0  0  0  0
    4.4181  149.3480   53.5616 H   0  0  0  0  0  0  0  0  0  0  0  0
    4.0032  150.3289   54.9793 H   0  0  0  0  0  0  0  0  0  0  0  0
    3.7454  148.1880   55.2598 C   0  0  0  0  0  0  0  0  0  0  0  0
    3.8483  148.2425   56.4760 O   0  0  0  0  0  0  0  0  0  0  0  0
    3.6925  146.9748   54.6329 N   0  0  0  0  0  0  0  0  0  0  0  0
    3.5196  146.9335   53.6422 H   0  0  0  0  0  0  0  0  0  0  0  0
    3.5332  145.7730   55.2072 C   0  0  0  0  0  0  0  0  0  0  0  0
    3.0420  144.9555   54.3122 N   0  0  0  0  0  0  0  0  0  0  0  0
    2.8927  143.7003   54.6822 C   0  0  0  0  0  0  0  0  0  0  0  0
    2.3341  142.8568   53.7688 N   0  0  0  0  0  0  0  0  0  0  0  0
    2.2288  141.9086   54.1088 H   0  0  0  0  0  0  0  0  0  0  0  0
    2.0361  143.2053   52.3413 C   0  0  0  0  0  0  0  0  0  0  0  0
    1.4581  144.1381   52.2831 H   0  0  0  0  0  0  0  0  0  0  0  0
    1.4122  142.4212   51.8977 H   0  0  0  0  0  0  0  0  0  0  0  0
    3.2896  143.3569   51.4453 C   0  0  0  0  0  0  0  0  0  0  0  0
    3.8860  144.1870   51.8341 H   0  0  0  0  0  0  0  0  0  0  0  0
    3.8875  142.4436   51.5325 H   0  0  0  0  0  0  0  0  0  0  0  0
    2.9758  143.5846   50.0049 N   0  0  0  0  0  0  0  0  0  0  0  0
    2.4272  144.4322   49.8578 H   0  0  0  0  0  0  0  0  0  0  0  0
    3.8268  143.6175   49.4391 H   0  0  0  0  0  0  0  0  0  0  0  0
    3.2456  143.1933   55.9057 C   0  0  0  0  0  0  0  0  0  0  0  0
    3.1227  141.8097   56.2248 C   0  0  0  0  0  0  0  0  0  0  0  0
    3.0263  140.6694   56.4358 N   0  0  0  0  0  0  0  0  0  0  0  0
    3.7399  144.0958   56.7911 C   0  0  0  0  0  0  0  0  0  0  0  0
    4.1451  143.7163   58.0070 N   0  0  0  0  0  0  0  0  0  0  0  0
    4.4915  144.4286   58.6447 H   0  0  0  0  0  0  0  0  0  0  0  0
    4.0548  142.7418   58.2826 H   0  0  0  0  0  0  0  0  0  0  0  0
    3.8824  145.4103   56.4772 C   0  0  0  0  0  0  0  0  0  0  0  0
    4.2972  146.1084   57.1861 H   0  0  0  0  0  0  0  0  0  0  0  0
    1.9356  149.2385   52.6496 C   0  0  0  0  0  0  0  0  0  0  0  0
    2.7758  148.4019   51.9480 O   0  0  0  0  0  0  0  0  0  0  0  0
    2.1671  147.2943   51.2809 C   0  0  0  0  0  0  0  0  0  0  0  0
    1.4831  146.7639   51.9521 H   0  0  0  0  0  0  0  0  0  0  0  0
    2.9529  146.5987   50.9663 H   0  0  0  0  0  0  0  0  0  0  0  0
    1.6200  147.6349   50.3978 H   0  0  0  0  0  0  0  0  0  0  0  0
  1  2  1  0
  2  3  2  0
  3  4  1  0
  3  5  1  0
  5  6  1  0
  6  7  1  0
  7  8  1  0
  7  9  1  0
  7 10  1  0
  5 11  2  0
 11 12  1  0
 11 13  1  0
 13 14  1  0
 14 15  1  0
 14 16  1  0
 14 17  1  0
 17 18  2  0
 17 19  1  0
 19 20  1  0
 19 21  1  0
 21 22  2  0
 22 23  1  0
 23 24  1  0
 24 25  1  0
 24 26  1  0
 26 27  1  0
 26 28  1  0
 26 29  1  0
 29 30  1  0
 29 31  1  0
 29 32  1  0
 32 33  1  0
 32 34  1  0
 23 35  2  0
 35 36  1  0
 36 37  3  0
 35 38  1  0
 38 39  1  0
 39 40  1  0
 39 41  1  0
 38 42  2  0
 42 43  1  0
 13 44  2  0
 44 45  1  0
 45 46  1  0
 46 47  1  0
 46 48  1  0
 46 49  1  0
 44  2  1  0
 42 21  1  0
M  END
>  <score>  (17) 
6.56154

$$$$

     RDKit          3D

 47 48  0  0  0  0  0  0  0  0999 V2000
    0.2704  149.1634   51.2393 H   0  0  0  0  0  0  0  0  0  0  0  0
    0.6089  149.5719   52.1861 C   0  0  0  0  0  0  0  0  0  0  0  0
   -0.1978  150.4709   52.9033 C   0  0  0  0  0  0  0  0  0  0  0  0
   -1.9311  150.9646   52.2455 Br  0  0  0  0  0  0  0  0  0  0  0  0
    0.2951  151.0397   54.0876 C   0  0  0  0  0  0  0  0  0  0  0  0
   -0.4027  151.9796   54.7844 O   0  0  0  0  0  0  0  0  0  0  0  0
   -1.4290  151.4055   55.5910 C   0  0  0  0  0  0  0  0  0  0  0  0
   -1.0074  150.6874   56.2960 H   0  0  0  0  0  0  0  0  0  0  0  0
   -1.9385  152.1874   56.1605 H   0  0  0  0  0  0  0  0  0  0  0  0
   -2.1596  150.8899   54.9641 H   0  0  0  0  0  0  0  0  0  0  0  0
    1.5424  150.6710   54.5713 C   0  0  0  0  0  0  0  0  0  0  0  0
    1.9058  151.1230   55.4897 H   0  0  0  0  0  0  0  0  0  0  0  0
    2.3367  149.7682   53.8706 C   0  0  0  0  0  0  0  0  0  0  0  0
    3.6924  149.4623   54.4267 C   0  0  0  0  0  0  0  0  0  0  0  0
    3.9291  150.2594   55.1160 H   0  0  0  0  0  0  0  0  0  0  0  0
    4.4316  149.4321   53.6202 H   0  0  0  0  0  0  0  0  0  0  0  0
    3.7415  148.1810   55.2310 C   0  0  0  0  0  0  0  0  0  0  0  0
    3.8127  148.2080   56.4441 O   0  0  0  0  0  0  0  0  0  0  0  0
    3.7577  146.9988   54.5789 N   0  0  0  0  0  0  0  0  0  0  0  0
    3.4398  146.9888   53.6245 H   0  0  0  0  0  0  0  0  0  0  0  0
    3.6226  145.8134   55.1812 C   0  0  0  0  0  0  0  0  0  0  0  0
    3.1626  145.0126   54.2634 N   0  0  0  0  0  0  0  0  0  0  0  0
    2.9427  143.7340   54.5632 C   0  0  0  0  0  0  0  0  0  0  0  0
    2.4694  142.8480   53.4030 C   0  0  0  0  0  0  0  0  0  0  0  0
    2.8974  143.2605   52.4799 H   0  0  0  0  0  0  0  0  0  0  0  0
    2.9133  141.8630   53.5605 H   0  0  0  0  0  0  0  0  0  0  0  0
    0.9923  142.6317   53.2548 N   0  0  0  0  0  0  0  0  0  0  0  0
    0.7813  141.8102   52.6786 H   0  0  0  0  0  0  0  0  0  0  0  0
    0.0435  143.7206   52.9549 C   0  0  0  0  0  0  0  0  0  0  0  0
    0.0113  143.8907   51.8725 H   0  0  0  0  0  0  0  0  0  0  0  0
   -0.9619  143.4335   53.2880 H   0  0  0  0  0  0  0  0  0  0  0  0
    0.2979  144.6567   53.4700 H   0  0  0  0  0  0  0  0  0  0  0  0
    3.2529  143.2500   55.8400 C   0  0  0  0  0  0  0  0  0  0  0  0
    3.1339  141.8692   56.1639 C   0  0  0  0  0  0  0  0  0  0  0  0
    3.0818  140.7362   56.4152 N   0  0  0  0  0  0  0  0  0  0  0  0
    3.7343  144.1368   56.7768 C   0  0  0  0  0  0  0  0  0  0  0  0
    4.0950  143.7626   58.0241 N   0  0  0  0  0  0  0  0  0  0  0  0
    4.4662  144.4725   58.6525 H   0  0  0  0  0  0  0  0  0  0  0  0
    4.0708  142.7775   58.2837 H   0  0  0  0  0  0  0  0  0  0  0  0
    3.9028  145.4497   56.4687 C   0  0  0  0  0  0  0  0  0  0  0  0
    4.2733  146.1452   57.2012 H   0  0  0  0  0  0  0  0  0  0  0  0
    1.8855  149.2232   52.6614 C   0  0  0  0  0  0  0  0  0  0  0  0
    2.7420  148.4005   51.9745 O   0  0  0  0  0  0  0  0  0  0  0  0
    2.1330  147.3145   51.2740 C   0  0  0  0  0  0  0  0  0  0  0  0
    1.5869  147.6692   50.3970 H   0  0  0  0  0  0  0  0  0  0  0  0
    1.4430  146.7847   51.9340 H   0  0  0  0  0  0  0  0  0  0  0  0
    2.8996  146.6085   50.9424 H   0  0  0  0  0  0  0  0  0  0  0  0
  1  2  1  0
  2  3  2  0
  3  4  1  0
  3  5  1  0
  5  6  1  0
  6  7  1  0
  7  8  1  0
  7  9  1  0
  7 10  1  0
  5 11  2  0
 11 12  1  0
 11 13  1  0
 13 14  1  0
 14 15  1  0
 14 16  1  0
 14 17  1  0
 17 18  2  0
 17 19  1  0
 19 20  1  0
 19 21  1  0
 21 22  2  0
 22 23  1  0
 23 24  1  0
 24 25  1  0
 24 26  1  0
 24 27  1  0
 27 28  1  0
 27 29  1  0
 29 30  1  0
 29 31  1  0
 29 32  1  0
 23 33  2  0
 33 34  1  0
 34 35  3  0
 33 36  1  0
 36 37  1  0
 37 38  1  0
 37 39  1  0
 36 40  2  0
 40 41  1  0
 13 42  2  0
 42 43  1  0
 43 44  1  0
 44 45  1  0
 44 46  1  0
 44 47  1  0
 42  2  1  0
 40 21  1  0
M  END
>  <score>  (18) 
6.57322

$$$$

     RDKit          3D

 49 50  0  0  0  0  0  0  0  0999 V2000
   -0.8944  143.2211   53.8957 H   0  0  0  0  0  0  0  0  0  0  0  0
   -0.7629  143.5570   52.9909 O   0  0  0  0  0  0  0  0  0  0  0  0
    0.5888  144.0007   52.8392 C   0  0  0  0  0  0  0  0  0  0  0  0
    0.8804  144.7318   53.6115 H   0  0  0  0  0  0  0  0  0  0  0  0
    0.7418  144.4422   51.8461 H   0  0  0  0  0  0  0  0  0  0  0  0
    1.4035  142.7304   52.9981 C   0  0  0  0  0  0  0  0  0  0  0  0
    1.2230  142.0879   52.1393 H   0  0  0  0  0  0  0  0  0  0  0  0
    1.0488  142.1998   53.8687 H   0  0  0  0  0  0  0  0  0  0  0  0
    2.9031  142.9474   53.1535 C   0  0  0  0  0  0  0  0  0  0  0  0
    3.4011  141.9750   53.1993 H   0  0  0  0  0  0  0  0  0  0  0  0
    3.2508  143.4627   52.2537 H   0  0  0  0  0  0  0  0  0  0  0  0
    3.2542  143.7743   54.3674 C   0  0  0  0  0  0  0  0  0  0  0  0
    3.3993  145.0613   54.0923 N   0  0  0  0  0  0  0  0  0  0  0  0
    3.6924  145.8831   55.0615 C   0  0  0  0  0  0  0  0  0  0  0  0
    3.7232  147.1212   54.5512 N   0  0  0  0  0  0  0  0  0  0  0  0
    3.5131  147.1665   53.5652 H   0  0  0  0  0  0  0  0  0  0  0  0
    3.6731  148.2602   55.2813 C   0  0  0  0  0  0  0  0  0  0  0  0
    3.7800  148.2226   56.4964 O   0  0  0  0  0  0  0  0  0  0  0  0
    3.6367  149.5841   54.5380 C   0  0  0  0  0  0  0  0  0  0  0  0
    3.8069  150.4057   55.2372 H   0  0  0  0  0  0  0  0  0  0  0  0
    4.4375  149.5825   53.7952 H   0  0  0  0  0  0  0  0  0  0  0  0
    2.3062  149.8334   53.8786 C   0  0  0  0  0  0  0  0  0  0  0  0
    1.4662  150.7267   54.5485 C   0  0  0  0  0  0  0  0  0  0  0  0
    1.7827  151.1613   55.4909 H   0  0  0  0  0  0  0  0  0  0  0  0
    0.2273  151.0819   54.0237 C   0  0  0  0  0  0  0  0  0  0  0  0
   -0.5325  152.0032   54.6935 O   0  0  0  0  0  0  0  0  0  0  0  0
   -1.5166  151.3958   55.5324 C   0  0  0  0  0  0  0  0  0  0  0  0
   -1.9983  152.1590   56.1496 H   0  0  0  0  0  0  0  0  0  0  0  0
   -2.2834  150.9020   54.9297 H   0  0  0  0  0  0  0  0  0  0  0  0
   -1.0569  150.6551   56.1918 H   0  0  0  0  0  0  0  0  0  0  0  0
   -0.2142  150.4730   52.8389 C   0  0  0  0  0  0  0  0  0  0  0  0
   -1.9515  150.8623   52.1362 Br  0  0  0  0  0  0  0  0  0  0  0  0
    0.6047  149.5457   52.1754 C   0  0  0  0  0  0  0  0  0  0  0  0
    0.2373  149.0663   51.2730 H   0  0  0  0  0  0  0  0  0  0  0  0
    1.8820  149.2235   52.6739 C   0  0  0  0  0  0  0  0  0  0  0  0
    2.7039  148.3239   52.0273 O   0  0  0  0  0  0  0  0  0  0  0  0
    2.0585  147.3042   51.2425 C   0  0  0  0  0  0  0  0  0  0  0  0
    2.8058  146.6005   50.8595 H   0  0  0  0  0  0  0  0  0  0  0  0
    1.3476  146.7421   51.8555 H   0  0  0  0  0  0  0  0  0  0  0  0
    1.5196  147.7307   50.3903 H   0  0  0  0  0  0  0  0  0  0  0  0
    3.8653  145.5295   56.3681 C   0  0  0  0  0  0  0  0  0  0  0  0
    4.1143  146.2623   57.1211 H   0  0  0  0  0  0  0  0  0  0  0  0
    3.7013  144.2048   56.6534 C   0  0  0  0  0  0  0  0  0  0  0  0
    3.8785  143.8455   57.9375 N   0  0  0  0  0  0  0  0  0  0  0  0
    4.3467  144.5261   58.5277 H   0  0  0  0  0  0  0  0  0  0  0  0
    4.0823  142.8623   58.0857 H   0  0  0  0  0  0  0  0  0  0  0  0
    3.4036  143.2842   55.6633 C   0  0  0  0  0  0  0  0  0  0  0  0
    3.2522  141.8921   55.9359 C   0  0  0  0  0  0  0  0  0  0  0  0
    3.1184  140.7504   56.1314 N   0  0  0  0  0  0  0  0  0  0  0  0
  1  2  1  0
  2  3  1  0
  3  4  1  0
  3  5  1  0
  3  6  1  0
  6  7  1  0
  6  8  1  0
  6  9  1  0
  9 10  1  0
  9 11  1  0
  9 12  1  0
 12 13  2  0
 13 14  1  0
 14 15  1  0
 15 16  1  0
 15 17  1  0
 17 18  2  0
 17 19  1  0
 19 20  1  0
 19 21  1  0
 19 22  1  0
 22 23  2  0
 23 24  1  0
 23 25  1  0
 25 26  1  0
 26 27  1  0
 27 28  1  0
 27 29  1  0
 27 30  1  0
 25 31  2  0
 31 32  1  0
 31 33  1  0
 33 34  1  0
 33 35  2  0
 35 36  1  0
 36 37  1  0
 37 38  1  0
 37 39  1  0
 37 40  1  0
 14 41  2  0
 41 42  1  0
 41 43  1  0
 43 44  1  0
 44 45  1  0
 44 46  1  0
 43 47  2  0
 47 48  1  0
 48 49  3  0
 47 12  1  0
 35 22  1  0
M  END
>  <score>  (19) 
6.57433

$$$$

     RDKit          3D

 44 45  0  0  0  0  0  0  0  0999 V2000
    0.2802  149.1733   51.2273 H   0  0  0  0  0  0  0  0  0  0  0  0
    0.6154  149.5750   52.1788 C   0  0  0  0  0  0  0  0  0  0  0  0
   -0.1857  150.4771   52.9033 C   0  0  0  0  0  0  0  0  0  0  0  0
   -1.9202  150.9792   52.2624 Br  0  0  0  0  0  0  0  0  0  0  0  0
    0.3046  151.0380   54.0994 C   0  0  0  0  0  0  0  0  0  0  0  0
   -0.3875  151.9769   54.8084 O   0  0  0  0  0  0  0  0  0  0  0  0
   -1.4217  151.4057   55.6087 C   0  0  0  0  0  0  0  0  0  0  0  0
   -2.1479  150.8858   54.9779 H   0  0  0  0  0  0  0  0  0  0  0  0
   -1.9357  152.1953   56.1664 H   0  0  0  0  0  0  0  0  0  0  0  0
   -1.0056  150.6881   56.3202 H   0  0  0  0  0  0  0  0  0  0  0  0
    1.5584  150.6764   54.5783 C   0  0  0  0  0  0  0  0  0  0  0  0
    1.9414  151.1306   55.4920 H   0  0  0  0  0  0  0  0  0  0  0  0
    2.3369  149.7637   53.8729 C   0  0  0  0  0  0  0  0  0  0  0  0
    3.6928  149.4617   54.4233 C   0  0  0  0  0  0  0  0  0  0  0  0
    3.9661  150.2738   55.0791 H   0  0  0  0  0  0  0  0  0  0  0  0
    4.4132  149.4148   53.6100 H   0  0  0  0  0  0  0  0  0  0  0  0
    3.7502  148.1862   55.2346 C   0  0  0  0  0  0  0  0  0  0  0  0
    3.8274  148.2317   56.4512 O   0  0  0  0  0  0  0  0  0  0  0  0
    3.7571  146.9968   54.5879 N   0  0  0  0  0  0  0  0  0  0  0  0
    3.4547  146.9578   53.6240 H   0  0  0  0  0  0  0  0  0  0  0  0
    3.6469  145.8090   55.1914 C   0  0  0  0  0  0  0  0  0  0  0  0
    3.1933  144.9924   54.2783 N   0  0  0  0  0  0  0  0  0  0  0  0
    2.9705  143.7075   54.5847 C   0  0  0  0  0  0  0  0  0  0  0  0
    2.5150  142.7694   53.4442 C   0  0  0  0  0  0  0  0  0  0  0  0
    2.8535  143.2410   52.5154 H   0  0  0  0  0  0  0  0  0  0  0  0
    3.0622  141.8248   53.5548 H   0  0  0  0  0  0  0  0  0  0  0  0
    1.0621  142.4641   53.2690 N   0  0  0  0  0  0  0  0  0  0  0  0
    0.6565  142.0559   54.1212 H   0  0  0  0  0  0  0  0  0  0  0  0
    0.9074  141.8609   52.4539 H   0  0  0  0  0  0  0  0  0  0  0  0
    3.2770  143.2348   55.8623 C   0  0  0  0  0  0  0  0  0  0  0  0
    3.1518  141.8507   56.1818 C   0  0  0  0  0  0  0  0  0  0  0  0
    3.0651  140.7192   56.4448 N   0  0  0  0  0  0  0  0  0  0  0  0
    3.7563  144.1395   56.7888 C   0  0  0  0  0  0  0  0  0  0  0  0
    4.1099  143.7642   58.0346 N   0  0  0  0  0  0  0  0  0  0  0  0
    4.4846  144.4609   58.6758 H   0  0  0  0  0  0  0  0  0  0  0  0
    4.0754  142.7798   58.2807 H   0  0  0  0  0  0  0  0  0  0  0  0
    3.9223  145.4533   56.4816 C   0  0  0  0  0  0  0  0  0  0  0  0
    4.2681  146.1475   57.2283 H   0  0  0  0  0  0  0  0  0  0  0  0
    1.8899  149.2204   52.6580 C   0  0  0  0  0  0  0  0  0  0  0  0
    2.7552  148.4092   51.9637 O   0  0  0  0  0  0  0  0  0  0  0  0
    2.1464  147.3137   51.2776 C   0  0  0  0  0  0  0  0  0  0  0  0
    2.9149  146.6050   50.9533 H   0  0  0  0  0  0  0  0  0  0  0  0
    1.5990  147.6611   50.3965 H   0  0  0  0  0  0  0  0  0  0  0  0
    1.4558  146.7894   51.9456 H   0  0  0  0  0  0  0  0  0  0  0  0
  1  2  1  0
  2  3  2  0
  3  4  1  0
  3  5  1  0
  5  6  1  0
  6  7  1  0
  7  8  1  0
  7  9  1  0
  7 10  1  0
  5 11  2  0
 11 12  1  0
 11 13  1  0
 13 14  1  0
 14 15  1  0
 14 16  1  0
 14 17  1  0
 17 18  2  0
 17 19  1  0
 19 20  1  0
 19 21  1  0
 21 22  2  0
 22 23  1  0
 23 24  1  0
 24 25  1  0
 24 26  1  0
 24 27  1  0
 27 28  1  0
 27 29  1  0
 23 30  2  0
 30 31  1  0
 31 32  3  0
 30 33  1  0
 33 34  1  0
 34 35  1  0
 34 36  1  0
 33 37  2  0
 37 38  1  0
 13 39  2  0
 39 40  1  0
 40 41  1  0
 41 42  1  0
 41 43  1  0
 41 44  1  0
 39  2  1  0
 37 21  1  0
M  END
>  <score>  (20) 
6.57973

$$$$

     RDKit          3D

 46 47  0  0  0  0  0  0  0  0999 V2000
    2.8955  143.9470   51.3880 H   0  0  0  0  0  0  0  0  0  0  0  0
    3.4788  143.2442   51.7312 O   0  0  0  0  0  0  0  0  0  0  0  0
    3.1118  142.8363   53.0709 C   0  0  1  0  0  0  0  0  0  0  0  0
    3.5977  141.8711   53.2550 H   0  0  0  0  0  0  0  0  0  0  0  0
    3.4303  143.7802   54.2615 C   0  0  0  0  0  0  0  0  0  0  0  0
    3.5187  145.0992   54.0426 N   0  0  0  0  0  0  0  0  0  0  0  0
    3.7116  145.9205   55.0544 C   0  0  0  0  0  0  0  0  0  0  0  0
    3.7021  147.1731   54.5943 N   0  0  0  0  0  0  0  0  0  0  0  0
    3.5543  147.2257   53.6033 H   0  0  0  0  0  0  0  0  0  0  0  0
    3.6527  148.3145   55.3288 C   0  0  0  0  0  0  0  0  0  0  0  0
    3.7766  148.2730   56.5385 O   0  0  0  0  0  0  0  0  0  0  0  0
    3.6098  149.6325   54.5710 C   0  0  0  0  0  0  0  0  0  0  0  0
    4.4247  149.6419   53.8406 H   0  0  0  0  0  0  0  0  0  0  0  0
    3.7497  150.4554   55.2762 H   0  0  0  0  0  0  0  0  0  0  0  0
    2.2860  149.8603   53.8942 C   0  0  0  0  0  0  0  0  0  0  0  0
    1.4328  150.7637   54.5365 C   0  0  0  0  0  0  0  0  0  0  0  0
    1.7420  151.2249   55.4716 H   0  0  0  0  0  0  0  0  0  0  0  0
    0.1900  151.0885   54.0013 C   0  0  0  0  0  0  0  0  0  0  0  0
   -0.5880  152.0048   54.6554 O   0  0  0  0  0  0  0  0  0  0  0  0
   -1.5546  151.3895   55.5136 C   0  0  0  0  0  0  0  0  0  0  0  0
   -2.3379  150.9012   54.9251 H   0  0  0  0  0  0  0  0  0  0  0  0
   -2.0206  152.1464   56.1496 H   0  0  0  0  0  0  0  0  0  0  0  0
   -1.0882  150.6439   56.1646 H   0  0  0  0  0  0  0  0  0  0  0  0
   -0.2271  150.4654   52.8155 C   0  0  0  0  0  0  0  0  0  0  0  0
   -1.9581  150.8244   52.0908 Br  0  0  0  0  0  0  0  0  0  0  0  0
    0.6074  149.5305   52.1860 C   0  0  0  0  0  0  0  0  0  0  0  0
    0.2686  149.0324   51.2849 H   0  0  0  0  0  0  0  0  0  0  0  0
    1.8769  149.2152   52.7014 C   0  0  0  0  0  0  0  0  0  0  0  0
    2.6960  148.2932   52.0783 O   0  0  0  0  0  0  0  0  0  0  0  0
    2.0455  147.3135   51.2392 C   0  0  0  0  0  0  0  0  0  0  0  0
    2.7804  146.6097   50.8311 H   0  0  0  0  0  0  0  0  0  0  0  0
    1.3200  146.7393   51.8260 H   0  0  0  0  0  0  0  0  0  0  0  0
    1.5215  147.7784   50.3945 H   0  0  0  0  0  0  0  0  0  0  0  0
    3.8377  145.5451   56.3550 C   0  0  0  0  0  0  0  0  0  0  0  0
    4.0138  146.2499   57.1571 H   0  0  0  0  0  0  0  0  0  0  0  0
    3.7295  144.2156   56.5907 C   0  0  0  0  0  0  0  0  0  0  0  0
    3.8596  143.8403   57.8736 N   0  0  0  0  0  0  0  0  0  0  0  0
    4.2664  144.5418   58.4819 H   0  0  0  0  0  0  0  0  0  0  0  0
    4.1034  142.8697   58.0326 H   0  0  0  0  0  0  0  0  0  0  0  0
    3.5156  143.3068   55.5770 C   0  0  0  0  0  0  0  0  0  0  0  0
    3.3446  141.9189   55.8675 C   0  0  0  0  0  0  0  0  0  0  0  0
    3.1892  140.7855   56.0634 N   0  0  0  0  0  0  0  0  0  0  0  0
    1.6156  142.6166   52.9990 C   0  0  0  0  0  0  0  0  0  0  0  0
    1.2565  142.2499   53.9524 H   0  0  0  0  0  0  0  0  0  0  0  0
    1.0933  143.5466   52.7369 H   0  0  0  0  0  0  0  0  0  0  0  0
    1.3892  141.8433   52.2699 H   0  0  0  0  0  0  0  0  0  0  0  0
  1  2  1  0
  2  3  1  0
  3  4  1  1
  3  5  1  0
  5  6  2  0
  6  7  1  0
  7  8  1  0
  8  9  1  0
  8 10  1  0
 10 11  2  0
 10 12  1  0
 12 13  1  0
 12 14  1  0
 12 15  1  0
 15 16  2  0
 16 17  1  0
 16 18  1  0
 18 19  1  0
 19 20  1  0
 20 21  1  0
 20 22  1  0
 20 23  1  0
 18 24  2  0
 24 25  1  0
 24 26  1  0
 26 27  1  0
 26 28  2  0
 28 29  1  0
 29 30  1  0
 30 31  1  0
 30 32  1  0
 30 33  1  0
  7 34  2  0
 34 35  1  0
 34 36  1  0
 36 37  1  0
 37 38  1  0
 37 39  1  0
 36 40  2  0
 40 41  1  0
 41 42  3  0
  3 43  1  0
 43 44  1  0
 43 45  1  0
 43 46  1  0
 40  5  1  0
 28 15  1  0
M  END
>  <score>  (21) 
6.60976

$$$$

     RDKit          3D

 39 40  0  0  0  0  0  0  0  0999 V2000
    0.3058  149.2030   51.2526 H   0  0  0  0  0  0  0  0  0  0  0  0
    0.6602  149.6078   52.1952 C   0  0  0  0  0  0  0  0  0  0  0  0
   -0.1431  150.5023   52.9345 C   0  0  0  0  0  0  0  0  0  0  0  0
   -1.8693  150.9833   52.2743 Br  0  0  0  0  0  0  0  0  0  0  0  0
    0.3350  151.0609   54.1328 C   0  0  0  0  0  0  0  0  0  0  0  0
   -0.3806  151.9770   54.8629 O   0  0  0  0  0  0  0  0  0  0  0  0
   -1.4279  151.4049   55.6506 C   0  0  0  0  0  0  0  0  0  0  0  0
   -1.0150  150.7040   56.3776 H   0  0  0  0  0  0  0  0  0  0  0  0
   -2.1539  150.8753   55.0253 H   0  0  0  0  0  0  0  0  0  0  0  0
   -1.9455  152.2009   56.1951 H   0  0  0  0  0  0  0  0  0  0  0  0
    1.5994  150.6930   54.5738 C   0  0  0  0  0  0  0  0  0  0  0  0
    1.9918  151.1462   55.4749 H   0  0  0  0  0  0  0  0  0  0  0  0
    2.3845  149.7876   53.8578 C   0  0  0  0  0  0  0  0  0  0  0  0
    3.7308  149.4717   54.3984 C   0  0  0  0  0  0  0  0  0  0  0  0
    4.0062  150.3468   54.9736 H   0  0  0  0  0  0  0  0  0  0  0  0
    4.4207  149.3532   53.5600 H   0  0  0  0  0  0  0  0  0  0  0  0
    3.7511  148.2109   55.2689 C   0  0  0  0  0  0  0  0  0  0  0  0
    3.8524  148.2691   56.4847 O   0  0  0  0  0  0  0  0  0  0  0  0
    3.7079  146.9969   54.6507 N   0  0  0  0  0  0  0  0  0  0  0  0
    3.5257  146.9499   53.6609 H   0  0  0  0  0  0  0  0  0  0  0  0
    3.5529  145.8032   55.2431 C   0  0  0  0  0  0  0  0  0  0  0  0
    3.0673  144.9755   54.3504 N   0  0  0  0  0  0  0  0  0  0  0  0
    2.9247  143.6983   54.6978 C   0  0  0  0  0  0  0  0  0  0  0  0
    2.4190  142.8557   53.7752 F   0  0  0  0  0  0  0  0  0  0  0  0
    3.2745  143.2140   55.9371 C   0  0  0  0  0  0  0  0  0  0  0  0
    3.1429  141.8283   56.2439 C   0  0  0  0  0  0  0  0  0  0  0  0
    3.0322  140.6876   56.4468 N   0  0  0  0  0  0  0  0  0  0  0  0
    3.7597  144.1227   56.8268 C   0  0  0  0  0  0  0  0  0  0  0  0
    4.1544  143.7259   58.0369 N   0  0  0  0  0  0  0  0  0  0  0  0
    4.0616  142.7462   58.2965 H   0  0  0  0  0  0  0  0  0  0  0  0
    4.5044  144.4285   58.6804 H   0  0  0  0  0  0  0  0  0  0  0  0
    3.9012  145.4401   56.5145 C   0  0  0  0  0  0  0  0  0  0  0  0
    4.3169  146.1348   57.2250 H   0  0  0  0  0  0  0  0  0  0  0  0
    1.9362  149.2407   52.6491 C   0  0  0  0  0  0  0  0  0  0  0  0
    2.7758  148.4015   51.9499 O   0  0  0  0  0  0  0  0  0  0  0  0
    2.1659  147.2954   51.2810 C   0  0  0  0  0  0  0  0  0  0  0  0
    2.9504  146.5957   50.9718 H   0  0  0  0  0  0  0  0  0  0  0  0
    1.6246  147.6349   50.3931 H   0  0  0  0  0  0  0  0  0  0  0  0
    1.4753  146.7682   51.9487 H   0  0  0  0  0  0  0  0  0  0  0  0
  1  2  1  0
  2  3  2  0
  3  4  1  0
  3  5  1  0
  5  6  1  0
  6  7  1  0
  7  8  1  0
  7  9  1  0
  7 10  1  0
  5 11  2  0
 11 12  1  0
 11 13  1  0
 13 14  1  0
 14 15  1  0
 14 16  1  0
 14 17  1  0
 17 18  2  0
 17 19  1  0
 19 20  1  0
 19 21  1  0
 21 22  2  0
 22 23  1  0
 23 24  1  0
 23 25  2  0
 25 26  1  0
 26 27  3  0
 25 28  1  0
 28 29  1  0
 29 30  1  0
 29 31  1  0
 28 32  2  0
 32 33  1  0
 13 34  2  0
 34 35  1  0
 35 36  1  0
 36 37  1  0
 36 38  1  0
 36 39  1  0
 34  2  1  0
 32 21  1  0
M  END
>  <score>  (22) 
6.61296

$$$$

     RDKit          3D

 44 45  0  0  0  0  0  0  0  0999 V2000
    1.9891  141.7365   52.2275 H   0  0  0  0  0  0  0  0  0  0  0  0
    2.2797  141.8935   53.1897 N   0  0  0  0  0  0  0  0  0  0  0  0
    2.6390  143.1154   53.3161 C   0  0  0  0  0  0  0  0  0  0  0  0
    3.1026  143.9401   54.5395 C   0  0  0  0  0  0  0  0  0  0  0  0
    3.3344  145.2509   54.3275 N   0  0  0  0  0  0  0  0  0  0  0  0
    3.7676  146.0278   55.2864 C   0  0  0  0  0  0  0  0  0  0  0  0
    3.9815  147.2262   54.7267 N   0  0  0  0  0  0  0  0  0  0  0  0
    3.8096  147.2129   53.7377 H   0  0  0  0  0  0  0  0  0  0  0  0
    3.7918  148.4033   55.3756 C   0  0  0  0  0  0  0  0  0  0  0  0
    3.7811  148.4086   56.5917 O   0  0  0  0  0  0  0  0  0  0  0  0
    3.6676  149.6656   54.5212 C   0  0  0  0  0  0  0  0  0  0  0  0
    3.8395  150.5533   55.1338 H   0  0  0  0  0  0  0  0  0  0  0  0
    4.4277  149.6276   53.7355 H   0  0  0  0  0  0  0  0  0  0  0  0
    2.3072  149.8478   53.8990 C   0  0  0  0  0  0  0  0  0  0  0  0
    1.4615  150.7427   54.5592 C   0  0  0  0  0  0  0  0  0  0  0  0
    1.7885  151.2097   55.4838 H   0  0  0  0  0  0  0  0  0  0  0  0
    0.2183  151.0823   54.0375 C   0  0  0  0  0  0  0  0  0  0  0  0
   -0.5419  152.0056   54.7031 O   0  0  0  0  0  0  0  0  0  0  0  0
   -1.5173  151.3983   55.5535 C   0  0  0  0  0  0  0  0  0  0  0  0
   -2.0029  152.1644   56.1652 H   0  0  0  0  0  0  0  0  0  0  0  0
   -1.0486  150.6688   56.2202 H   0  0  0  0  0  0  0  0  0  0  0  0
   -2.2821  150.8912   54.9575 H   0  0  0  0  0  0  0  0  0  0  0  0
   -0.2198  150.4668   52.8548 C   0  0  0  0  0  0  0  0  0  0  0  0
   -1.9520  150.8622   52.1443 Br  0  0  0  0  0  0  0  0  0  0  0  0
    0.6091  149.5449   52.1963 C   0  0  0  0  0  0  0  0  0  0  0  0
    0.2584  149.0721   51.2839 H   0  0  0  0  0  0  0  0  0  0  0  0
    1.8875  149.2301   52.6963 C   0  0  0  0  0  0  0  0  0  0  0  0
    2.7253  148.3525   52.0413 O   0  0  0  0  0  0  0  0  0  0  0  0
    2.0865  147.3265   51.2612 C   0  0  0  0  0  0  0  0  0  0  0  0
    2.8382  146.6260   50.8822 H   0  0  0  0  0  0  0  0  0  0  0  0
    1.3785  146.7651   51.8790 H   0  0  0  0  0  0  0  0  0  0  0  0
    1.5468  147.7477   50.4066 H   0  0  0  0  0  0  0  0  0  0  0  0
    3.9879  145.6160   56.5640 C   0  0  0  0  0  0  0  0  0  0  0  0
    4.4051  146.2811   57.3092 H   0  0  0  0  0  0  0  0  0  0  0  0
    3.7366  144.2957   56.8367 C   0  0  0  0  0  0  0  0  0  0  0  0
    3.9940  143.8911   58.1074 N   0  0  0  0  0  0  0  0  0  0  0  0
    4.1241  142.8956   58.2813 H   0  0  0  0  0  0  0  0  0  0  0  0
    4.4768  144.5681   58.6982 H   0  0  0  0  0  0  0  0  0  0  0  0
    3.3118  143.4200   55.8402 C   0  0  0  0  0  0  0  0  0  0  0  0
    3.1499  142.0313   56.1222 C   0  0  0  0  0  0  0  0  0  0  0  0
    3.0635  140.8888   56.3419 N   0  0  0  0  0  0  0  0  0  0  0  0
    2.5040  143.4500   51.9796 N   0  0  0  0  0  0  0  0  0  0  0  0
    3.0308  144.2502   51.6415 H   0  0  0  0  0  0  0  0  0  0  0  0
    2.3841  142.6551   51.3665 H   0  0  0  0  0  0  0  0  0  0  0  0
  1  2  1  0
  2  3  2  3
  3  4  1  0
  4  5  2  0
  5  6  1  0
  6  7  1  0
  7  8  1  0
  7  9  1  0
  9 10  2  0
  9 11  1  0
 11 12  1  0
 11 13  1  0
 11 14  1  0
 14 15  2  0
 15 16  1  0
 15 17  1  0
 17 18  1  0
 18 19  1  0
 19 20  1  0
 19 21  1  0
 19 22  1  0
 17 23  2  0
 23 24  1  0
 23 25  1  0
 25 26  1  0
 25 27  2  0
 27 28  1  0
 28 29  1  0
 29 30  1  0
 29 31  1  0
 29 32  1  0
  6 33  2  0
 33 34  1  0
 33 35  1  0
 35 36  1  0
 36 37  1  0
 36 38  1  0
 35 39  2  0
 39 40  1  0
 40 41  3  0
  3 42  1  0
 42 43  1  0
 42 44  1  0
 39  4  1  0
 27 14  1  0
M  END
>  <score>  (23) 
6.61933

$$$$

     RDKit          3D

 50 51  0  0  0  0  0  0  0  0999 V2000
    0.3063  149.1997   51.2496 H   0  0  0  0  0  0  0  0  0  0  0  0
    0.6584  149.6046   52.1946 C   0  0  0  0  0  0  0  0  0  0  0  0
   -0.1455  150.4990   52.9346 C   0  0  0  0  0  0  0  0  0  0  0  0
   -1.8712  150.9848   52.2772 Br  0  0  0  0  0  0  0  0  0  0  0  0
    0.3333  151.0583   54.1308 C   0  0  0  0  0  0  0  0  0  0  0  0
   -0.3790  151.9756   54.8594 O   0  0  0  0  0  0  0  0  0  0  0  0
   -1.4260  151.4038   55.6465 C   0  0  0  0  0  0  0  0  0  0  0  0
   -1.9410  152.2017   56.1901 H   0  0  0  0  0  0  0  0  0  0  0  0
   -1.0135  150.7022   56.3731 H   0  0  0  0  0  0  0  0  0  0  0  0
   -2.1523  150.8754   55.0206 H   0  0  0  0  0  0  0  0  0  0  0  0
    1.5953  150.6881   54.5732 C   0  0  0  0  0  0  0  0  0  0  0  0
    1.9890  151.1448   55.4713 H   0  0  0  0  0  0  0  0  0  0  0  0
    2.3794  149.7814   53.8602 C   0  0  0  0  0  0  0  0  0  0  0  0
    3.7241  149.4666   54.4021 C   0  0  0  0  0  0  0  0  0  0  0  0
    3.9968  150.3401   54.9838 H   0  0  0  0  0  0  0  0  0  0  0  0
    4.4111  149.3567   53.5604 H   0  0  0  0  0  0  0  0  0  0  0  0
    3.7468  148.1950   55.2601 C   0  0  0  0  0  0  0  0  0  0  0  0
    3.8476  148.2467   56.4769 O   0  0  0  0  0  0  0  0  0  0  0  0
    3.7070  146.9810   54.6322 N   0  0  0  0  0  0  0  0  0  0  0  0
    3.5081  146.9315   53.6465 H   0  0  0  0  0  0  0  0  0  0  0  0
    3.5391  145.7868   55.2148 C   0  0  0  0  0  0  0  0  0  0  0  0
    3.0499  144.9601   54.3127 N   0  0  0  0  0  0  0  0  0  0  0  0
    2.9024  143.6778   54.6528 C   0  0  0  0  0  0  0  0  0  0  0  0
    2.3928  142.7593   53.7609 O   0  0  0  0  0  0  0  0  0  0  0  0
    1.9699  143.1897   52.4473 C   0  0  0  0  0  0  0  0  0  0  0  0
    2.8089  143.6300   51.8980 H   0  0  0  0  0  0  0  0  0  0  0  0
    1.1803  143.9451   52.5278 H   0  0  0  0  0  0  0  0  0  0  0  0
    1.4296  141.9816   51.6512 C   0  0  0  0  0  0  0  0  0  0  0  0
    0.6167  141.5105   52.2186 H   0  0  0  0  0  0  0  0  0  0  0  0
    2.2268  141.2366   51.5427 H   0  0  0  0  0  0  0  0  0  0  0  0
    0.9354  142.3694   50.3519 O   0  0  0  0  0  0  0  0  0  0  0  0
    1.9025  142.2376   49.2977 C   0  0  0  0  0  0  0  0  0  0  0  0
    2.8149  142.7845   49.5457 H   0  0  0  0  0  0  0  0  0  0  0  0
    2.1597  141.1869   49.1335 H   0  0  0  0  0  0  0  0  0  0  0  0
    1.5074  142.6384   48.3596 H   0  0  0  0  0  0  0  0  0  0  0  0
    3.2614  143.2162   55.9008 C   0  0  0  0  0  0  0  0  0  0  0  0
    3.1416  141.8369   56.2319 C   0  0  0  0  0  0  0  0  0  0  0  0
    3.0364  140.6989   56.4450 N   0  0  0  0  0  0  0  0  0  0  0  0
    3.7460  144.1208   56.7953 C   0  0  0  0  0  0  0  0  0  0  0  0
    4.1458  143.7297   58.0099 N   0  0  0  0  0  0  0  0  0  0  0  0
    4.0549  142.7512   58.2745 H   0  0  0  0  0  0  0  0  0  0  0  0
    4.4938  144.4363   58.6521 H   0  0  0  0  0  0  0  0  0  0  0  0
    3.8875  145.4328   56.4877 C   0  0  0  0  0  0  0  0  0  0  0  0
    4.3047  146.1241   57.2052 H   0  0  0  0  0  0  0  0  0  0  0  0
    1.9339  149.2372   52.6505 C   0  0  0  0  0  0  0  0  0  0  0  0
    2.7743  148.4016   51.9495 O   0  0  0  0  0  0  0  0  0  0  0  0
    2.1634  147.2966   51.2814 C   0  0  0  0  0  0  0  0  0  0  0  0
    1.4722  146.7713   51.9497 H   0  0  0  0  0  0  0  0  0  0  0  0
    1.6228  147.6383   50.3944 H   0  0  0  0  0  0  0  0  0  0  0  0
    2.9487  146.5977   50.9735 H   0  0  0  0  0  0  0  0  0  0  0  0
  1  2  1  0
  2  3  2  0
  3  4  1  0
  3  5  1  0
  5  6  1  0
  6  7  1  0
  7  8  1  0
  7  9  1  0
  7 10  1  0
  5 11  2  0
 11 12  1  0
 11 13  1  0
 13 14  1  0
 14 15  1  0
 14 16  1  0
 14 17  1  0
 17 18  2  0
 17 19  1  0
 19 20  1  0
 19 21  1  0
 21 22  2  0
 22 23  1  0
 23 24  1  0
 24 25  1  0
 25 26  1  0
 25 27  1  0
 25 28  1  0
 28 29  1  0
 28 30  1  0
 28 31  1  0
 31 32  1  0
 32 33  1  0
 32 34  1  0
 32 35  1  0
 23 36  2  0
 36 37  1  0
 37 38  3  0
 36 39  1  0
 39 40  1  0
 40 41  1  0
 40 42  1  0
 39 43  2  0
 43 44  1  0
 13 45  2  0
 45 46  1  0
 46 47  1  0
 47 48  1  0
 47 49  1  0
 47 50  1  0
 45  2  1  0
 43 21  1  0
M  END
>  <score>  (24) 
6.62808

$$$$

     RDKit          3D

 46 47  0  0  0  0  0  0  0  0999 V2000
    0.4830  141.3480   51.9977 H   0  0  0  0  0  0  0  0  0  0  0  0
    1.4261  141.5253   52.1193 O   0  0  0  0  0  0  0  0  0  0  0  0
    1.6245  142.5551   53.0828 C   0  0  0  0  0  0  0  0  0  0  0  0
    1.2632  142.2391   54.0640 H   0  0  0  0  0  0  0  0  0  0  0  0
    1.0975  143.4765   52.7916 H   0  0  0  0  0  0  0  0  0  0  0  0
    3.1157  142.7807   53.1816 C   0  0  0  0  0  0  0  0  0  0  0  0
    3.4808  143.2607   52.2682 H   0  0  0  0  0  0  0  0  0  0  0  0
    3.6315  141.8230   53.3117 H   0  0  0  0  0  0  0  0  0  0  0  0
    3.3754  143.6855   54.3422 C   0  0  0  0  0  0  0  0  0  0  0  0
    3.4467  144.9762   54.0501 N   0  0  0  0  0  0  0  0  0  0  0  0
    3.6522  145.8395   55.0184 C   0  0  0  0  0  0  0  0  0  0  0  0
    3.6451  147.0843   54.5169 N   0  0  0  0  0  0  0  0  0  0  0  0
    3.4650  147.1292   53.5283 H   0  0  0  0  0  0  0  0  0  0  0  0
    3.6425  148.2262   55.2583 C   0  0  0  0  0  0  0  0  0  0  0  0
    3.7667  148.1778   56.4678 O   0  0  0  0  0  0  0  0  0  0  0  0
    3.6269  149.5610   54.5344 C   0  0  0  0  0  0  0  0  0  0  0  0
    3.7984  150.3614   55.2557 H   0  0  0  0  0  0  0  0  0  0  0  0
    4.4279  149.5742   53.7931 H   0  0  0  0  0  0  0  0  0  0  0  0
    2.3030  149.8279   53.8840 C   0  0  0  0  0  0  0  0  0  0  0  0
    1.4694  150.7286   54.5469 C   0  0  0  0  0  0  0  0  0  0  0  0
    1.7925  151.1749   55.4831 H   0  0  0  0  0  0  0  0  0  0  0  0
    0.2296  151.0769   54.0233 C   0  0  0  0  0  0  0  0  0  0  0  0
   -0.5272  151.9981   54.6923 O   0  0  0  0  0  0  0  0  0  0  0  0
   -1.5168  151.3935   55.5295 C   0  0  0  0  0  0  0  0  0  0  0  0
   -1.9959  152.1584   56.1463 H   0  0  0  0  0  0  0  0  0  0  0  0
   -1.0653  150.6512   56.1935 H   0  0  0  0  0  0  0  0  0  0  0  0
   -2.2852  150.9026   54.9251 H   0  0  0  0  0  0  0  0  0  0  0  0
   -0.2115  150.4664   52.8392 C   0  0  0  0  0  0  0  0  0  0  0  0
   -1.9476  150.8614   52.1385 Br  0  0  0  0  0  0  0  0  0  0  0  0
    0.6093  149.5385   52.1811 C   0  0  0  0  0  0  0  0  0  0  0  0
    0.2564  149.0597   51.2729 H   0  0  0  0  0  0  0  0  0  0  0  0
    1.8830  149.2141   52.6830 C   0  0  0  0  0  0  0  0  0  0  0  0
    2.7068  148.3142   52.0424 O   0  0  0  0  0  0  0  0  0  0  0  0
    2.0593  147.3069   51.2427 C   0  0  0  0  0  0  0  0  0  0  0  0
    2.8014  146.6017   50.8526 H   0  0  0  0  0  0  0  0  0  0  0  0
    1.3454  146.7445   51.8521 H   0  0  0  0  0  0  0  0  0  0  0  0
    1.5242  147.7445   50.3927 H   0  0  0  0  0  0  0  0  0  0  0  0
    3.8149  145.5051   56.3298 C   0  0  0  0  0  0  0  0  0  0  0  0
    4.0192  146.2480   57.0915 H   0  0  0  0  0  0  0  0  0  0  0  0
    3.6974  144.1832   56.6271 C   0  0  0  0  0  0  0  0  0  0  0  0
    3.8715  143.8424   57.9190 N   0  0  0  0  0  0  0  0  0  0  0  0
    4.0720  142.8621   58.0968 H   0  0  0  0  0  0  0  0  0  0  0  0
    4.3106  144.5600   58.5007 H   0  0  0  0  0  0  0  0  0  0  0  0
    3.4631  143.2375   55.6513 C   0  0  0  0  0  0  0  0  0  0  0  0
    3.3042  141.8570   55.9662 C   0  0  0  0  0  0  0  0  0  0  0  0
    3.1559  140.7216   56.1693 N   0  0  0  0  0  0  0  0  0  0  0  0
  1  2  1  0
  2  3  1  0
  3  4  1  0
  3  5  1  0
  3  6  1  0
  6  7  1  0
  6  8  1  0
  6  9  1  0
  9 10  2  0
 10 11  1  0
 11 12  1  0
 12 13  1  0
 12 14  1  0
 14 15  2  0
 14 16  1  0
 16 17  1  0
 16 18  1  0
 16 19  1  0
 19 20  2  0
 20 21  1  0
 20 22  1  0
 22 23  1  0
 23 24  1  0
 24 25  1  0
 24 26  1  0
 24 27  1  0
 22 28  2  0
 28 29  1  0
 28 30  1  0
 30 31  1  0
 30 32  2  0
 32 33  1  0
 33 34  1  0
 34 35  1  0
 34 36  1  0
 34 37  1  0
 11 38  2  0
 38 39  1  0
 38 40  1  0
 40 41  1  0
 41 42  1  0
 41 43  1  0
 40 44  2  0
 44 45  1  0
 45 46  3  0
 44  9  1  0
 32 19  1  0
M  END
>  <score>  (25) 
6.64101

$$$$

     RDKit          3D

 41 42  0  0  0  0  0  0  0  0999 V2000
    0.2728  149.1679   51.2552 H   0  0  0  0  0  0  0  0  0  0  0  0
    0.6301  149.5810   52.1895 C   0  0  0  0  0  0  0  0  0  0  0  0
   -0.1738  150.4864   52.8997 C   0  0  0  0  0  0  0  0  0  0  0  0
   -1.9063  150.9508   52.2383 Br  0  0  0  0  0  0  0  0  0  0  0  0
    0.3044  151.0495   54.0915 C   0  0  0  0  0  0  0  0  0  0  0  0
   -0.4053  151.9752   54.7999 O   0  0  0  0  0  0  0  0  0  0  0  0
   -1.4407  151.4057   55.6029 C   0  0  0  0  0  0  0  0  0  0  0  0
   -1.0184  150.6874   56.3055 H   0  0  0  0  0  0  0  0  0  0  0  0
   -2.1739  150.8899   54.9791 H   0  0  0  0  0  0  0  0  0  0  0  0
   -1.9557  152.1858   56.1746 H   0  0  0  0  0  0  0  0  0  0  0  0
    1.5572  150.6874   54.5696 C   0  0  0  0  0  0  0  0  0  0  0  0
    1.9257  151.1204   55.4962 H   0  0  0  0  0  0  0  0  0  0  0  0
    2.3555  149.7893   53.8602 C   0  0  0  0  0  0  0  0  0  0  0  0
    3.6980  149.4541   54.4304 C   0  0  0  0  0  0  0  0  0  0  0  0
    3.9575  150.2472   55.1177 H   0  0  0  0  0  0  0  0  0  0  0  0
    4.4452  149.4117   53.6372 H   0  0  0  0  0  0  0  0  0  0  0  0
    3.6885  148.1454   55.1935 C   0  0  0  0  0  0  0  0  0  0  0  0
    3.7855  148.1513   56.4065 O   0  0  0  0  0  0  0  0  0  0  0  0
    3.5872  146.9783   54.5066 N   0  0  0  0  0  0  0  0  0  0  0  0
    3.4223  146.9987   53.5143 H   0  0  0  0  0  0  0  0  0  0  0  0
    3.4839  145.7856   55.0983 C   0  0  0  0  0  0  0  0  0  0  0  0
    2.9908  144.9206   54.2659 N   0  0  0  0  0  0  0  0  0  0  0  0
    2.8870  143.7213   54.7400 C   0  0  0  0  0  0  0  0  0  0  0  0
    2.4712  142.9743   53.7322 N   0  0  0  0  0  0  0  0  0  0  0  0
    3.0537  143.2916   52.9648 H   0  0  0  0  0  0  0  0  0  0  0  0
    1.4917  143.1703   53.5675 H   0  0  0  0  0  0  0  0  0  0  0  0
    3.2718  143.2763   55.9607 C   0  0  0  0  0  0  0  0  0  0  0  0
    3.1808  141.8931   56.2651 C   0  0  0  0  0  0  0  0  0  0  0  0
    3.0958  140.7459   56.4361 N   0  0  0  0  0  0  0  0  0  0  0  0
    3.8219  144.2163   56.7789 C   0  0  0  0  0  0  0  0  0  0  0  0
    4.3657  143.9336   57.9803 N   0  0  0  0  0  0  0  0  0  0  0  0
    4.9249  144.6869   58.3707 H   0  0  0  0  0  0  0  0  0  0  0  0
    3.7806  143.4221   58.6352 H   0  0  0  0  0  0  0  0  0  0  0  0
    3.8895  145.5089   56.3710 C   0  0  0  0  0  0  0  0  0  0  0  0
    4.2452  146.2907   57.0128 H   0  0  0  0  0  0  0  0  0  0  0  0
    1.9075  149.2255   52.6551 C   0  0  0  0  0  0  0  0  0  0  0  0
    2.7544  148.3827   51.9699 O   0  0  0  0  0  0  0  0  0  0  0  0
    2.1310  147.3035   51.2674 C   0  0  0  0  0  0  0  0  0  0  0  0
    1.4370  146.7668   51.9183 H   0  0  0  0  0  0  0  0  0  0  0  0
    2.8951  146.5984   50.9350 H   0  0  0  0  0  0  0  0  0  0  0  0
    1.5871  147.6615   50.3910 H   0  0  0  0  0  0  0  0  0  0  0  0
  1  2  1  0
  2  3  2  0
  3  4  1  0
  3  5  1  0
  5  6  1  0
  6  7  1  0
  7  8  1  0
  7  9  1  0
  7 10  1  0
  5 11  2  0
 11 12  1  0
 11 13  1  0
 13 14  1  0
 14 15  1  0
 14 16  1  0
 14 17  1  0
 17 18  2  0
 17 19  1  0
 19 20  1  0
 19 21  1  0
 21 22  2  0
 22 23  1  0
 23 24  1  0
 24 25  1  0
 24 26  1  0
 23 27  2  0
 27 28  1  0
 28 29  3  0
 27 30  1  0
 30 31  1  0
 31 32  1  0
 31 33  1  0
 30 34  2  0
 34 35  1  0
 13 36  2  0
 36 37  1  0
 37 38  1  0
 38 39  1  0
 38 40  1  0
 38 41  1  0
 36  2  1  0
 34 21  1  0
M  END
>  <score>  (26) 
6.64456

$$$$

     RDKit          3D

 39 40  0  0  0  0  0  0  0  0999 V2000
    0.3061  149.2033   51.2534 H   0  0  0  0  0  0  0  0  0  0  0  0
    0.6602  149.6087   52.1956 C   0  0  0  0  0  0  0  0  0  0  0  0
   -0.1428  150.5026   52.9354 C   0  0  0  0  0  0  0  0  0  0  0  0
   -1.8683  150.9830   52.2741 Br  0  0  0  0  0  0  0  0  0  0  0  0
    0.3346  151.0617   54.1329 C   0  0  0  0  0  0  0  0  0  0  0  0
   -0.3804  151.9776   54.8634 O   0  0  0  0  0  0  0  0  0  0  0  0
   -1.4283  151.4048   55.6514 C   0  0  0  0  0  0  0  0  0  0  0  0
   -1.9461  152.2014   56.1959 H   0  0  0  0  0  0  0  0  0  0  0  0
   -2.1547  150.8748   55.0255 H   0  0  0  0  0  0  0  0  0  0  0  0
   -1.0149  150.7038   56.3790 H   0  0  0  0  0  0  0  0  0  0  0  0
    1.5996  150.6940   54.5734 C   0  0  0  0  0  0  0  0  0  0  0  0
    1.9923  151.1470   55.4753 H   0  0  0  0  0  0  0  0  0  0  0  0
    2.3856  149.7879   53.8567 C   0  0  0  0  0  0  0  0  0  0  0  0
    3.7332  149.4753   54.3980 C   0  0  0  0  0  0  0  0  0  0  0  0
    4.4215  149.3544   53.5587 H   0  0  0  0  0  0  0  0  0  0  0  0
    4.0064  150.3534   54.9704 H   0  0  0  0  0  0  0  0  0  0  0  0
    3.7521  148.2167   55.2713 C   0  0  0  0  0  0  0  0  0  0  0  0
    3.8536  148.2763   56.4877 O   0  0  0  0  0  0  0  0  0  0  0  0
    3.7091  147.0020   54.6523 N   0  0  0  0  0  0  0  0  0  0  0  0
    3.5316  146.9641   53.6600 H   0  0  0  0  0  0  0  0  0  0  0  0
    3.5518  145.8025   55.2389 C   0  0  0  0  0  0  0  0  0  0  0  0
    3.0637  144.9721   54.3449 N   0  0  0  0  0  0  0  0  0  0  0  0
    2.9192  143.6929   54.6870 C   0  0  0  0  0  0  0  0  0  0  0  0
    2.2632  142.6202   53.4843 Cl  0  0  0  0  0  0  0  0  0  0  0  0
    3.2713  143.2091   55.9303 C   0  0  0  0  0  0  0  0  0  0  0  0
    3.1416  141.8235   56.2429 C   0  0  0  0  0  0  0  0  0  0  0  0
    3.0333  140.6840   56.4533 N   0  0  0  0  0  0  0  0  0  0  0  0
    3.7593  144.1177   56.8267 C   0  0  0  0  0  0  0  0  0  0  0  0
    4.1558  143.7230   58.0425 N   0  0  0  0  0  0  0  0  0  0  0  0
    4.0646  142.7435   58.3062 H   0  0  0  0  0  0  0  0  0  0  0  0
    4.5063  144.4279   58.6849 H   0  0  0  0  0  0  0  0  0  0  0  0
    3.9004  145.4377   56.5129 C   0  0  0  0  0  0  0  0  0  0  0  0
    4.3172  146.1329   57.2252 H   0  0  0  0  0  0  0  0  0  0  0  0
    1.9366  149.2418   52.6480 C   0  0  0  0  0  0  0  0  0  0  0  0
    2.7765  148.4013   51.9504 O   0  0  0  0  0  0  0  0  0  0  0  0
    2.1663  147.2950   51.2811 C   0  0  0  0  0  0  0  0  0  0  0  0
    2.9512  146.5955   50.9718 H   0  0  0  0  0  0  0  0  0  0  0  0
    1.6246  147.6346   50.3929 H   0  0  0  0  0  0  0  0  0  0  0  0
    1.4755  146.7675   51.9491 H   0  0  0  0  0  0  0  0  0  0  0  0
  1  2  1  0
  2  3  2  0
  3  4  1  0
  3  5  1  0
  5  6  1  0
  6  7  1  0
  7  8  1  0
  7  9  1  0
  7 10  1  0
  5 11  2  0
 11 12  1  0
 11 13  1  0
 13 14  1  0
 14 15  1  0
 14 16  1  0
 14 17  1  0
 17 18  2  0
 17 19  1  0
 19 20  1  0
 19 21  1  0
 21 22  2  0
 22 23  1  0
 23 24  1  0
 23 25  2  0
 25 26  1  0
 26 27  3  0
 25 28  1  0
 28 29  1  0
 29 30  1  0
 29 31  1  0
 28 32  2  0
 32 33  1  0
 13 34  2  0
 34 35  1  0
 35 36  1  0
 36 37  1  0
 36 38  1  0
 36 39  1  0
 34  2  1  0
 32 21  1  0
M  END
>  <score>  (27) 
6.68306

$$$$

     RDKit          3D

 40 41  0  0  0  0  0  0  0  0999 V2000
    0.9750  142.8242   53.8231 H   0  0  0  0  0  0  0  0  0  0  0  0
    2.2519  142.6260   53.4629 S   0  0  0  0  0  0  0  0  0  0  0  0
    2.9028  143.6895   54.6901 C   0  0  0  0  0  0  0  0  0  0  0  0
    3.0381  144.9676   54.3509 N   0  0  0  0  0  0  0  0  0  0  0  0
    3.5411  145.7963   55.2367 C   0  0  0  0  0  0  0  0  0  0  0  0
    3.7046  146.9960   54.6479 N   0  0  0  0  0  0  0  0  0  0  0  0
    3.5273  146.9560   53.6571 H   0  0  0  0  0  0  0  0  0  0  0  0
    3.7502  148.2100   55.2680 C   0  0  0  0  0  0  0  0  0  0  0  0
    3.8516  148.2682   56.4836 O   0  0  0  0  0  0  0  0  0  0  0  0
    3.7312  149.4723   54.3970 C   0  0  0  0  0  0  0  0  0  0  0  0
    4.4202  149.3528   53.5583 H   0  0  0  0  0  0  0  0  0  0  0  0
    4.0039  150.3499   54.9718 H   0  0  0  0  0  0  0  0  0  0  0  0
    2.3842  149.7864   53.8570 C   0  0  0  0  0  0  0  0  0  0  0  0
    1.6000  150.6929   54.5728 C   0  0  0  0  0  0  0  0  0  0  0  0
    1.9921  151.1467   55.4746 H   0  0  0  0  0  0  0  0  0  0  0  0
    0.3355  151.0606   54.1329 C   0  0  0  0  0  0  0  0  0  0  0  0
   -0.3797  151.9771   54.8630 O   0  0  0  0  0  0  0  0  0  0  0  0
   -1.4278  151.4049   55.6509 C   0  0  0  0  0  0  0  0  0  0  0  0
   -1.0151  150.7041   56.3786 H   0  0  0  0  0  0  0  0  0  0  0  0
   -2.1543  150.8747   55.0257 H   0  0  0  0  0  0  0  0  0  0  0  0
   -1.9455  152.2011   56.1954 H   0  0  0  0  0  0  0  0  0  0  0  0
   -0.1425  150.5022   52.9354 C   0  0  0  0  0  0  0  0  0  0  0  0
   -1.8677  150.9831   52.2748 Br  0  0  0  0  0  0  0  0  0  0  0  0
    0.6604  149.6088   52.1960 C   0  0  0  0  0  0  0  0  0  0  0  0
    0.3071  149.2037   51.2547 H   0  0  0  0  0  0  0  0  0  0  0  0
    1.9362  149.2412   52.6479 C   0  0  0  0  0  0  0  0  0  0  0  0
    2.7765  148.4020   51.9504 O   0  0  0  0  0  0  0  0  0  0  0  0
    2.1666  147.2955   51.2814 C   0  0  0  0  0  0  0  0  0  0  0  0
    1.6244  147.6344   50.3935 H   0  0  0  0  0  0  0  0  0  0  0  0
    1.4759  146.7676   51.9490 H   0  0  0  0  0  0  0  0  0  0  0  0
    2.9510  146.5960   50.9721 H   0  0  0  0  0  0  0  0  0  0  0  0
    3.8978  145.4322   56.5071 C   0  0  0  0  0  0  0  0  0  0  0  0
    4.3151  146.1282   57.2152 H   0  0  0  0  0  0  0  0  0  0  0  0
    3.7570  144.1132   56.8211 C   0  0  0  0  0  0  0  0  0  0  0  0
    4.1534  143.7228   58.0378 N   0  0  0  0  0  0  0  0  0  0  0  0
    4.0643  142.7428   58.3015 H   0  0  0  0  0  0  0  0  0  0  0  0
    4.5051  144.4302   58.6769 H   0  0  0  0  0  0  0  0  0  0  0  0
    3.2632  143.2037   55.9301 C   0  0  0  0  0  0  0  0  0  0  0  0
    3.1437  141.8199   56.2495 C   0  0  0  0  0  0  0  0  0  0  0  0
    3.0322  140.6802   56.4573 N   0  0  0  0  0  0  0  0  0  0  0  0
  1  2  1  0
  2  3  1  0
  3  4  2  0
  4  5  1  0
  5  6  1  0
  6  7  1  0
  6  8  1  0
  8  9  2  0
  8 10  1  0
 10 11  1  0
 10 12  1  0
 10 13  1  0
 13 14  2  0
 14 15  1  0
 14 16  1  0
 16 17  1  0
 17 18  1  0
 18 19  1  0
 18 20  1  0
 18 21  1  0
 16 22  2  0
 22 23  1  0
 22 24  1  0
 24 25  1  0
 24 26  2  0
 26 27  1  0
 27 28  1  0
 28 29  1  0
 28 30  1  0
 28 31  1  0
  5 32  2  0
 32 33  1  0
 32 34  1  0
 34 35  1  0
 35 36  1  0
 35 37  1  0
 34 38  2  0
 38 39  1  0
 39 40  3  0
 38  3  1  0
 26 13  1  0
M  END
>  <score>  (28) 
6.68388

$$$$

     RDKit          3D

 43 44  0  0  0  0  0  0  0  0999 V2000
    0.3078  149.2052   51.2553 H   0  0  0  0  0  0  0  0  0  0  0  0
    0.6618  149.6099   52.1980 C   0  0  0  0  0  0  0  0  0  0  0  0
   -0.1422  150.5032   52.9364 C   0  0  0  0  0  0  0  0  0  0  0  0
   -1.8675  150.9832   52.2749 Br  0  0  0  0  0  0  0  0  0  0  0  0
    0.3355  151.0603   54.1341 C   0  0  0  0  0  0  0  0  0  0  0  0
   -0.3801  151.9763   54.8621 O   0  0  0  0  0  0  0  0  0  0  0  0
   -1.4277  151.4048   55.6509 C   0  0  0  0  0  0  0  0  0  0  0  0
   -1.9452  152.2007   56.1956 H   0  0  0  0  0  0  0  0  0  0  0  0
   -2.1543  150.8748   55.0270 H   0  0  0  0  0  0  0  0  0  0  0  0
   -1.0150  150.7047   56.3784 H   0  0  0  0  0  0  0  0  0  0  0  0
    1.6000  150.6929   54.5742 C   0  0  0  0  0  0  0  0  0  0  0  0
    1.9947  151.1437   55.4759 H   0  0  0  0  0  0  0  0  0  0  0  0
    2.3857  149.7919   53.8557 C   0  0  0  0  0  0  0  0  0  0  0  0
    3.7327  149.4870   54.3969 C   0  0  0  0  0  0  0  0  0  0  0  0
    4.0027  150.3689   54.9628 H   0  0  0  0  0  0  0  0  0  0  0  0
    4.4221  149.3582   53.5585 H   0  0  0  0  0  0  0  0  0  0  0  0
    3.7553  148.2393   55.2826 C   0  0  0  0  0  0  0  0  0  0  0  0
    3.8551  148.3055   56.4964 O   0  0  0  0  0  0  0  0  0  0  0  0
    3.7271  147.0229   54.6737 N   0  0  0  0  0  0  0  0  0  0  0  0
    3.5391  146.9809   53.6839 H   0  0  0  0  0  0  0  0  0  0  0  0
    3.5661  145.8301   55.2741 C   0  0  0  0  0  0  0  0  0  0  0  0
    3.0712  145.0083   54.3740 N   0  0  0  0  0  0  0  0  0  0  0  0
    2.9113  143.6903   54.6298 C   0  0  0  0  0  0  0  0  0  0  0  0
    2.3406  142.8064   53.5214 C   0  0  0  0  0  0  0  0  0  0  0  0
    2.5360  141.5996   53.4241 O   0  0  0  0  0  0  0  0  0  0  0  0
    1.5392  143.2645   52.4969 N   0  0  0  0  0  0  0  0  0  0  0  0
    1.2893  142.5967   51.7765 H   0  0  0  0  0  0  0  0  0  0  0  0
    1.3340  144.2556   52.3994 H   0  0  0  0  0  0  0  0  0  0  0  0
    3.2806  143.2095   55.8995 C   0  0  0  0  0  0  0  0  0  0  0  0
    3.1521  141.8275   56.2351 C   0  0  0  0  0  0  0  0  0  0  0  0
    3.0402  140.6943   56.4810 N   0  0  0  0  0  0  0  0  0  0  0  0
    3.7675  144.1180   56.8266 C   0  0  0  0  0  0  0  0  0  0  0  0
    4.1549  143.7202   58.0529 N   0  0  0  0  0  0  0  0  0  0  0  0
    4.5100  144.4224   58.6953 H   0  0  0  0  0  0  0  0  0  0  0  0
    4.0716  142.7408   58.3189 H   0  0  0  0  0  0  0  0  0  0  0  0
    3.9148  145.4470   56.5386 C   0  0  0  0  0  0  0  0  0  0  0  0
    4.3308  146.1354   57.2592 H   0  0  0  0  0  0  0  0  0  0  0  0
    1.9380  149.2421   52.6493 C   0  0  0  0  0  0  0  0  0  0  0  0
    2.7764  148.4016   51.9500 O   0  0  0  0  0  0  0  0  0  0  0  0
    2.1659  147.2953   51.2805 C   0  0  0  0  0  0  0  0  0  0  0  0
    1.4575  146.7823   51.9400 H   0  0  0  0  0  0  0  0  0  0  0  0
    2.9472  146.5839   50.9919 H   0  0  0  0  0  0  0  0  0  0  0  0
    1.6444  147.6320   50.3801 H   0  0  0  0  0  0  0  0  0  0  0  0
  1  2  1  0
  2  3  2  0
  3  4  1  0
  3  5  1  0
  5  6  1  0
  6  7  1  0
  7  8  1  0
  7  9  1  0
  7 10  1  0
  5 11  2  0
 11 12  1  0
 11 13  1  0
 13 14  1  0
 14 15  1  0
 14 16  1  0
 14 17  1  0
 17 18  2  0
 17 19  1  0
 19 20  1  0
 19 21  1  0
 21 22  2  0
 22 23  1  0
 23 24  1  0
 24 25  2  0
 24 26  1  0
 26 27  1  0
 26 28  1  0
 23 29  2  0
 29 30  1  0
 30 31  3  0
 29 32  1  0
 32 33  1  0
 33 34  1  0
 33 35  1  0
 32 36  2  0
 36 37  1  0
 13 38  2  0
 38 39  1  0
 39 40  1  0
 40 41  1  0
 40 42  1  0
 40 43  1  0
 38  2  1  0
 36 21  1  0
M  END
>  <score>  (29) 
6.68903

$$$$

     RDKit          3D

 51 52  0  0  0  0  0  0  0  0999 V2000
    0.2514  149.1477   51.2434 H   0  0  0  0  0  0  0  0  0  0  0  0
    0.6006  149.5593   52.1848 C   0  0  0  0  0  0  0  0  0  0  0  0
   -0.2063  150.4643   52.8924 C   0  0  0  0  0  0  0  0  0  0  0  0
   -1.9417  150.9464   52.2284 Br  0  0  0  0  0  0  0  0  0  0  0  0
    0.2839  151.0394   54.0748 C   0  0  0  0  0  0  0  0  0  0  0  0
   -0.4145  151.9843   54.7653 O   0  0  0  0  0  0  0  0  0  0  0  0
   -1.4370  151.4040   55.5695 C   0  0  0  0  0  0  0  0  0  0  0  0
   -1.0068  150.6790   56.2640 H   0  0  0  0  0  0  0  0  0  0  0  0
   -2.1709  150.8970   54.9371 H   0  0  0  0  0  0  0  0  0  0  0  0
   -1.9397  152.1836   56.1481 H   0  0  0  0  0  0  0  0  0  0  0  0
    1.5283  150.6597   54.5681 C   0  0  0  0  0  0  0  0  0  0  0  0
    1.8779  151.0960   55.4979 H   0  0  0  0  0  0  0  0  0  0  0  0
    2.3299  149.7572   53.8734 C   0  0  0  0  0  0  0  0  0  0  0  0
    3.6769  149.4268   54.4523 C   0  0  0  0  0  0  0  0  0  0  0  0
    3.9177  150.1789   55.1897 H   0  0  0  0  0  0  0  0  0  0  0  0
    4.4334  149.4297   53.6619 H   0  0  0  0  0  0  0  0  0  0  0  0
    3.6894  148.1153   55.2043 C   0  0  0  0  0  0  0  0  0  0  0  0
    3.7744  148.1129   56.4203 O   0  0  0  0  0  0  0  0  0  0  0  0
    3.6665  146.9552   54.5116 N   0  0  0  0  0  0  0  0  0  0  0  0
    3.3455  146.9587   53.5568 H   0  0  0  0  0  0  0  0  0  0  0  0
    3.5518  145.7725   55.1246 C   0  0  0  0  0  0  0  0  0  0  0  0
    3.0677  144.9382   54.2580 N   0  0  0  0  0  0  0  0  0  0  0  0
    2.9555  143.7050   54.6716 C   0  0  0  0  0  0  0  0  0  0  0  0
    2.4630  142.8224   53.7648 N   0  0  0  0  0  0  0  0  0  0  0  0
    2.4608  141.8589   54.0643 H   0  0  0  0  0  0  0  0  0  0  0  0
    1.8126  143.2170   52.5013 C   0  0  0  0  0  0  0  0  0  0  0  0
    2.4423  143.9237   51.9545 H   0  0  0  0  0  0  0  0  0  0  0  0
    1.7115  142.3269   51.8785 H   0  0  0  0  0  0  0  0  0  0  0  0
    0.4256  143.8389   52.7279 C   0  0  0  0  0  0  0  0  0  0  0  0
    0.5292  144.8213   53.2084 H   0  0  0  0  0  0  0  0  0  0  0  0
   -0.1337  143.2255   53.4286 H   0  0  0  0  0  0  0  0  0  0  0  0
   -0.3124  143.9075   51.4943 O   0  0  0  0  0  0  0  0  0  0  0  0
    0.0697  144.9952   50.6463 C   0  0  0  0  0  0  0  0  0  0  0  0
   -0.2070  144.7409   49.6235 H   0  0  0  0  0  0  0  0  0  0  0  0
    1.1478  145.1711   50.6948 H   0  0  0  0  0  0  0  0  0  0  0  0
   -0.4520  145.9158   50.9253 H   0  0  0  0  0  0  0  0  0  0  0  0
    3.2979  143.2522   55.9133 C   0  0  0  0  0  0  0  0  0  0  0  0
    3.1935  141.8715   56.2213 C   0  0  0  0  0  0  0  0  0  0  0  0
    3.1019  140.7199   56.3510 N   0  0  0  0  0  0  0  0  0  0  0  0
    3.7587  144.1742   56.7947 C   0  0  0  0  0  0  0  0  0  0  0  0
    4.1174  143.7982   58.0378 N   0  0  0  0  0  0  0  0  0  0  0  0
    4.0903  142.8125   58.2838 H   0  0  0  0  0  0  0  0  0  0  0  0
    4.4712  144.5012   58.6824 H   0  0  0  0  0  0  0  0  0  0  0  0
    3.8888  145.4736   56.4240 C   0  0  0  0  0  0  0  0  0  0  0  0
    4.2696  146.2048   57.1208 H   0  0  0  0  0  0  0  0  0  0  0  0
    1.8818  149.2117   52.6599 C   0  0  0  0  0  0  0  0  0  0  0  0
    2.7310  148.3793   51.9763 O   0  0  0  0  0  0  0  0  0  0  0  0
    2.1094  147.3057   51.2683 C   0  0  0  0  0  0  0  0  0  0  0  0
    1.4321  146.7615   51.9334 H   0  0  0  0  0  0  0  0  0  0  0  0
    1.5486  147.6791   50.4070 H   0  0  0  0  0  0  0  0  0  0  0  0
    2.8768  146.6126   50.9118 H   0  0  0  0  0  0  0  0  0  0  0  0
  1  2  1  0
  2  3  2  0
  3  4  1  0
  3  5  1  0
  5  6  1  0
  6  7  1  0
  7  8  1  0
  7  9  1  0
  7 10  1  0
  5 11  2  0
 11 12  1  0
 11 13  1  0
 13 14  1  0
 14 15  1  0
 14 16  1  0
 14 17  1  0
 17 18  2  0
 17 19  1  0
 19 20  1  0
 19 21  1  0
 21 22  2  0
 22 23  1  0
 23 24  1  0
 24 25  1  0
 24 26  1  0
 26 27  1  0
 26 28  1  0
 26 29  1  0
 29 30  1  0
 29 31  1  0
 29 32  1  0
 32 33  1  0
 33 34  1  0
 33 35  1  0
 33 36  1  0
 23 37  2  0
 37 38  1  0
 38 39  3  0
 37 40  1  0
 40 41  1  0
 41 42  1  0
 41 43  1  0
 40 44  2  0
 44 45  1  0
 13 46  2  0
 46 47  1  0
 47 48  1  0
 48 49  1  0
 48 50  1  0
 48 51  1  0
 46  2  1  0
 44 21  1  0
M  END
>  <score>  (30) 
6.69063

$$$$

     RDKit          3D

 46 47  0  0  0  0  0  0  0  0999 V2000
    1.8580  140.5556   50.4519 H   0  0  0  0  0  0  0  0  0  0  0  0
    2.3872  141.2726   50.8257 O   0  0  0  0  0  0  0  0  0  0  0  0
    1.4954  141.9307   51.5967 C   0  0  0  0  0  0  0  0  0  0  0  0
    0.3056  141.6346   51.6151 O   0  0  0  0  0  0  0  0  0  0  0  0
    1.9839  143.1354   52.4320 C   0  0  0  0  0  0  0  0  0  0  0  0
    2.8200  143.5896   51.8875 H   0  0  0  0  0  0  0  0  0  0  0  0
    1.1749  143.8745   52.4691 H   0  0  0  0  0  0  0  0  0  0  0  0
    2.3942  142.7596   53.7797 O   0  0  0  0  0  0  0  0  0  0  0  0
    2.9077  143.6850   54.6660 C   0  0  0  0  0  0  0  0  0  0  0  0
    3.0525  144.9654   54.3210 N   0  0  0  0  0  0  0  0  0  0  0  0
    3.5410  145.7928   55.2214 C   0  0  0  0  0  0  0  0  0  0  0  0
    3.7012  146.9947   54.6435 N   0  0  0  0  0  0  0  0  0  0  0  0
    3.5277  146.9582   53.6513 H   0  0  0  0  0  0  0  0  0  0  0  0
    3.7456  148.2086   55.2669 C   0  0  0  0  0  0  0  0  0  0  0  0
    3.8508  148.2698   56.4830 O   0  0  0  0  0  0  0  0  0  0  0  0
    3.7304  149.4703   54.3984 C   0  0  0  0  0  0  0  0  0  0  0  0
    4.4205  149.3493   53.5610 H   0  0  0  0  0  0  0  0  0  0  0  0
    4.0037  150.3453   54.9744 H   0  0  0  0  0  0  0  0  0  0  0  0
    2.3844  149.7839   53.8570 C   0  0  0  0  0  0  0  0  0  0  0  0
    1.6004  150.6902   54.5747 C   0  0  0  0  0  0  0  0  0  0  0  0
    1.9950  151.1424   55.4766 H   0  0  0  0  0  0  0  0  0  0  0  0
    0.3363  151.0607   54.1336 C   0  0  0  0  0  0  0  0  0  0  0  0
   -0.3790  151.9760   54.8618 O   0  0  0  0  0  0  0  0  0  0  0  0
   -1.4272  151.4046   55.6505 C   0  0  0  0  0  0  0  0  0  0  0  0
   -1.0145  150.7041   56.3780 H   0  0  0  0  0  0  0  0  0  0  0  0
   -2.1541  150.8749   55.0260 H   0  0  0  0  0  0  0  0  0  0  0  0
   -1.9450  152.2010   56.1953 H   0  0  0  0  0  0  0  0  0  0  0  0
   -0.1417  150.5032   52.9370 C   0  0  0  0  0  0  0  0  0  0  0  0
   -1.8678  150.9837   52.2751 Br  0  0  0  0  0  0  0  0  0  0  0  0
    0.6613  149.6097   52.1972 C   0  0  0  0  0  0  0  0  0  0  0  0
    0.3072  149.2046   51.2541 H   0  0  0  0  0  0  0  0  0  0  0  0
    1.9370  149.2395   52.6483 C   0  0  0  0  0  0  0  0  0  0  0  0
    2.7764  148.4010   51.9480 O   0  0  0  0  0  0  0  0  0  0  0  0
    2.1663  147.2940   51.2805 C   0  0  0  0  0  0  0  0  0  0  0  0
    1.4753  146.7685   51.9488 H   0  0  0  0  0  0  0  0  0  0  0  0
    1.6256  147.6327   50.3923 H   0  0  0  0  0  0  0  0  0  0  0  0
    2.9506  146.5938   50.9728 H   0  0  0  0  0  0  0  0  0  0  0  0
    3.8932  145.4357   56.4949 C   0  0  0  0  0  0  0  0  0  0  0  0
    4.3107  146.1298   57.2100 H   0  0  0  0  0  0  0  0  0  0  0  0
    3.7533  144.1214   56.8072 C   0  0  0  0  0  0  0  0  0  0  0  0
    4.1509  143.7268   58.0258 N   0  0  0  0  0  0  0  0  0  0  0  0
    4.5012  144.4298   58.6712 H   0  0  0  0  0  0  0  0  0  0  0  0
    4.0597  142.7478   58.2917 H   0  0  0  0  0  0  0  0  0  0  0  0
    3.2661  143.2195   55.9118 C   0  0  0  0  0  0  0  0  0  0  0  0
    3.1422  141.8373   56.2375 C   0  0  0  0  0  0  0  0  0  0  0  0
    3.0351  140.6995   56.4486 N   0  0  0  0  0  0  0  0  0  0  0  0
  1  2  1  0
  2  3  1  0
  3  4  2  0
  3  5  1  0
  5  6  1  0
  5  7  1  0
  5  8  1  0
  8  9  1  0
  9 10  2  0
 10 11  1  0
 11 12  1  0
 12 13  1  0
 12 14  1  0
 14 15  2  0
 14 16  1  0
 16 17  1  0
 16 18  1  0
 16 19  1  0
 19 20  2  0
 20 21  1  0
 20 22  1  0
 22 23  1  0
 23 24  1  0
 24 25  1  0
 24 26  1  0
 24 27  1  0
 22 28  2  0
 28 29  1  0
 28 30  1  0
 30 31  1  0
 30 32  2  0
 32 33  1  0
 33 34  1  0
 34 35  1  0
 34 36  1  0
 34 37  1  0
 11 38  2  0
 38 39  1  0
 38 40  1  0
 40 41  1  0
 41 42  1  0
 41 43  1  0
 40 44  2  0
 44 45  1  0
 45 46  3  0
 44  9  1  0
 32 19  1  0
M  END
>  <score>  (31) 
6.69156

$$$$

     RDKit          3D

 47 48  0  0  0  0  0  0  0  0999 V2000
    4.9835  143.9137   51.9765 H   0  0  0  0  0  0  0  0  0  0  0  0
    4.3682  143.3078   51.5156 O   0  0  0  0  0  0  0  0  0  0  0  0
    3.0296  143.8047   51.4443 N   0  0  0  0  0  0  0  0  0  0  0  0
    2.6606  143.9624   50.5103 H   0  0  0  0  0  0  0  0  0  0  0  0
    2.0390  143.4698   52.3510 C   0  0  0  0  0  0  0  0  0  0  0  0
    0.8845  143.7455   52.0677 O   0  0  0  0  0  0  0  0  0  0  0  0
    2.3201  142.7443   53.6408 C   0  0  0  0  0  0  0  0  0  0  0  0
    3.0243  141.9371   53.4572 H   0  0  0  0  0  0  0  0  0  0  0  0
    1.3961  142.3265   54.0296 H   0  0  0  0  0  0  0  0  0  0  0  0
    2.8874  143.6808   54.6317 C   0  0  0  0  0  0  0  0  0  0  0  0
    3.0625  144.9506   54.2817 N   0  0  0  0  0  0  0  0  0  0  0  0
    3.5543  145.7801   55.1694 C   0  0  0  0  0  0  0  0  0  0  0  0
    3.7028  146.9703   54.5738 N   0  0  0  0  0  0  0  0  0  0  0  0
    3.4444  146.9542   53.6007 H   0  0  0  0  0  0  0  0  0  0  0  0
    3.7450  148.1614   55.2188 C   0  0  0  0  0  0  0  0  0  0  0  0
    3.8270  148.2025   56.4349 O   0  0  0  0  0  0  0  0  0  0  0  0
    3.7017  149.4487   54.4128 C   0  0  0  0  0  0  0  0  0  0  0  0
    4.4181  149.3921   53.5956 H   0  0  0  0  0  0  0  0  0  0  0  0
    3.9777  150.2659   55.0540 H   0  0  0  0  0  0  0  0  0  0  0  0
    2.3511  149.7727   53.8671 C   0  0  0  0  0  0  0  0  0  0  0  0
    1.5741  150.6846   54.5785 C   0  0  0  0  0  0  0  0  0  0  0  0
    1.9610  151.1369   55.4906 H   0  0  0  0  0  0  0  0  0  0  0  0
    0.3161  151.0403   54.1107 C   0  0  0  0  0  0  0  0  0  0  0  0
   -0.3820  151.9742   54.8253 O   0  0  0  0  0  0  0  0  0  0  0  0
   -1.4220  151.4061   55.6212 C   0  0  0  0  0  0  0  0  0  0  0  0
   -1.9385  152.1956   56.1744 H   0  0  0  0  0  0  0  0  0  0  0  0
   -1.0101  150.6938   56.3365 H   0  0  0  0  0  0  0  0  0  0  0  0
   -2.1468  150.8835   54.9939 H   0  0  0  0  0  0  0  0  0  0  0  0
   -0.1687  150.4840   52.9100 C   0  0  0  0  0  0  0  0  0  0  0  0
   -1.9046  150.9813   52.2673 Br  0  0  0  0  0  0  0  0  0  0  0  0
    0.6326  149.5816   52.1855 C   0  0  0  0  0  0  0  0  0  0  0  0
    0.2910  149.1828   51.2371 H   0  0  0  0  0  0  0  0  0  0  0  0
    1.9031  149.2232   52.6580 C   0  0  0  0  0  0  0  0  0  0  0  0
    2.7627  148.4047   51.9633 O   0  0  0  0  0  0  0  0  0  0  0  0
    2.1522  147.3057   51.2806 C   0  0  0  0  0  0  0  0  0  0  0  0
    2.9232  146.6021   50.9523 H   0  0  0  0  0  0  0  0  0  0  0  0
    1.5996  147.6493   50.4017 H   0  0  0  0  0  0  0  0  0  0  0  0
    1.4675  146.7747   51.9489 H   0  0  0  0  0  0  0  0  0  0  0  0
    3.8868  145.4403   56.4524 C   0  0  0  0  0  0  0  0  0  0  0  0
    4.2826  146.1372   57.1746 H   0  0  0  0  0  0  0  0  0  0  0  0
    3.7395  144.1251   56.7722 C   0  0  0  0  0  0  0  0  0  0  0  0
    4.1407  143.7498   58.0017 N   0  0  0  0  0  0  0  0  0  0  0  0
    4.0630  142.7778   58.2818 H   0  0  0  0  0  0  0  0  0  0  0  0
    4.4782  144.4519   58.6520 H   0  0  0  0  0  0  0  0  0  0  0  0
    3.2403  143.2096   55.8787 C   0  0  0  0  0  0  0  0  0  0  0  0
    3.1308  141.8230   56.2074 C   0  0  0  0  0  0  0  0  0  0  0  0
    3.0558  140.6883   56.4574 N   0  0  0  0  0  0  0  0  0  0  0  0
  1  2  1  0
  2  3  1  0
  3  4  1  0
  3  5  1  0
  5  6  2  0
  5  7  1  0
  7  8  1  0
  7  9  1  0
  7 10  1  0
 10 11  2  0
 11 12  1  0
 12 13  1  0
 13 14  1  0
 13 15  1  0
 15 16  2  0
 15 17  1  0
 17 18  1  0
 17 19  1  0
 17 20  1  0
 20 21  2  0
 21 22  1  0
 21 23  1  0
 23 24  1  0
 24 25  1  0
 25 26  1  0
 25 27  1  0
 25 28  1  0
 23 29  2  0
 29 30  1  0
 29 31  1  0
 31 32  1  0
 31 33  2  0
 33 34  1  0
 34 35  1  0
 35 36  1  0
 35 37  1  0
 35 38  1  0
 12 39  2  0
 39 40  1  0
 39 41  1  0
 41 42  1  0
 42 43  1  0
 42 44  1  0
 41 45  2  0
 45 46  1  0
 46 47  3  0
 45 10  1  0
 33 20  1  0
M  END
>  <score>  (32) 
6.69786

$$$$

     RDKit          3D

 41 42  0  0  0  0  0  0  0  0999 V2000
    2.0636  143.3397   52.6410 H   0  0  0  0  0  0  0  0  0  0  0  0
    2.4379  142.8387   53.5279 C   0  0  0  0  0  0  0  0  0  0  0  0
    2.5589  141.6108   53.5104 O   0  0  0  0  0  0  0  0  0  0  0  0
    2.9130  143.7091   54.6352 C   0  0  0  0  0  0  0  0  0  0  0  0
    3.0574  145.0138   54.3567 N   0  0  0  0  0  0  0  0  0  0  0  0
    3.5575  145.8330   55.2627 C   0  0  0  0  0  0  0  0  0  0  0  0
    3.7328  147.0232   54.6642 N   0  0  0  0  0  0  0  0  0  0  0  0
    3.5338  146.9817   53.6783 H   0  0  0  0  0  0  0  0  0  0  0  0
    3.7577  148.2374   55.2788 C   0  0  0  0  0  0  0  0  0  0  0  0
    3.8548  148.2938   56.4918 O   0  0  0  0  0  0  0  0  0  0  0  0
    3.7294  149.4859   54.3952 C   0  0  0  0  0  0  0  0  0  0  0  0
    4.4208  149.3595   53.5590 H   0  0  0  0  0  0  0  0  0  0  0  0
    3.9995  150.3650   54.9646 H   0  0  0  0  0  0  0  0  0  0  0  0
    2.3833  149.7922   53.8552 C   0  0  0  0  0  0  0  0  0  0  0  0
    1.5984  150.6942   54.5729 C   0  0  0  0  0  0  0  0  0  0  0  0
    1.9910  151.1471   55.4741 H   0  0  0  0  0  0  0  0  0  0  0  0
    0.3340  151.0601   54.1327 C   0  0  0  0  0  0  0  0  0  0  0  0
   -0.3799  151.9759   54.8620 O   0  0  0  0  0  0  0  0  0  0  0  0
   -1.4277  151.4050   55.6503 C   0  0  0  0  0  0  0  0  0  0  0  0
   -2.1536  150.8755   55.0261 H   0  0  0  0  0  0  0  0  0  0  0  0
   -1.0157  150.7046   56.3770 H   0  0  0  0  0  0  0  0  0  0  0  0
   -1.9453  152.2003   56.1951 H   0  0  0  0  0  0  0  0  0  0  0  0
   -0.1430  150.5020   52.9348 C   0  0  0  0  0  0  0  0  0  0  0  0
   -1.8687  150.9832   52.2746 Br  0  0  0  0  0  0  0  0  0  0  0  0
    0.6606  149.6080   52.1966 C   0  0  0  0  0  0  0  0  0  0  0  0
    0.3065  149.2032   51.2539 H   0  0  0  0  0  0  0  0  0  0  0  0
    1.9366  149.2417   52.6496 C   0  0  0  0  0  0  0  0  0  0  0  0
    2.7760  148.4019   51.9517 O   0  0  0  0  0  0  0  0  0  0  0  0
    2.1660  147.2962   51.2811 C   0  0  0  0  0  0  0  0  0  0  0  0
    1.4757  146.7685   51.9475 H   0  0  0  0  0  0  0  0  0  0  0  0
    2.9497  146.5966   50.9713 H   0  0  0  0  0  0  0  0  0  0  0  0
    1.6245  147.6351   50.3940 H   0  0  0  0  0  0  0  0  0  0  0  0
    3.9095  145.4528   56.5304 C   0  0  0  0  0  0  0  0  0  0  0  0
    4.3308  146.1390   57.2518 H   0  0  0  0  0  0  0  0  0  0  0  0
    3.7540  144.1272   56.8239 C   0  0  0  0  0  0  0  0  0  0  0  0
    4.1569  143.7244   58.0465 N   0  0  0  0  0  0  0  0  0  0  0  0
    4.0678  142.7452   58.3126 H   0  0  0  0  0  0  0  0  0  0  0  0
    4.5093  144.4237   58.6949 H   0  0  0  0  0  0  0  0  0  0  0  0
    3.2613  143.2272   55.9007 C   0  0  0  0  0  0  0  0  0  0  0  0
    3.1437  141.8443   56.2322 C   0  0  0  0  0  0  0  0  0  0  0  0
    3.0437  140.7098   56.4717 N   0  0  0  0  0  0  0  0  0  0  0  0
  1  2  1  0
  2  3  2  0
  2  4  1  0
  4  5  2  0
  5  6  1  0
  6  7  1  0
  7  8  1  0
  7  9  1  0
  9 10  2  0
  9 11  1  0
 11 12  1  0
 11 13  1  0
 11 14  1  0
 14 15  2  0
 15 16  1  0
 15 17  1  0
 17 18  1  0
 18 19  1  0
 19 20  1  0
 19 21  1  0
 19 22  1  0
 17 23  2  0
 23 24  1  0
 23 25  1  0
 25 26  1  0
 25 27  2  0
 27 28  1  0
 28 29  1  0
 29 30  1  0
 29 31  1  0
 29 32  1  0
  6 33  2  0
 33 34  1  0
 33 35  1  0
 35 36  1  0
 36 37  1  0
 36 38  1  0
 35 39  2  0
 39 40  1  0
 40 41  3  0
 39  4  1  0
 27 14  1  0
M  END
>  <score>  (33) 
6.69921

$$$$

     RDKit          3D

 49 50  0  0  0  0  0  0  0  0999 V2000
    0.3046  149.1997   51.2489 H   0  0  0  0  0  0  0  0  0  0  0  0
    0.6567  149.6043   52.1932 C   0  0  0  0  0  0  0  0  0  0  0  0
   -0.1467  150.4984   52.9339 C   0  0  0  0  0  0  0  0  0  0  0  0
   -1.8720  150.9851   52.2773 Br  0  0  0  0  0  0  0  0  0  0  0  0
    0.3316  151.0579   54.1304 C   0  0  0  0  0  0  0  0  0  0  0  0
   -0.3799  151.9768   54.8590 O   0  0  0  0  0  0  0  0  0  0  0  0
   -1.4261  151.4035   55.6464 C   0  0  0  0  0  0  0  0  0  0  0  0
   -1.0124  150.7015   56.3728 H   0  0  0  0  0  0  0  0  0  0  0  0
   -1.9406  152.2023   56.1899 H   0  0  0  0  0  0  0  0  0  0  0  0
   -2.1526  150.8750   55.0195 H   0  0  0  0  0  0  0  0  0  0  0  0
    1.5939  150.6891   54.5733 C   0  0  0  0  0  0  0  0  0  0  0  0
    1.9890  151.1440   55.4723 H   0  0  0  0  0  0  0  0  0  0  0  0
    2.3788  149.7840   53.8574 C   0  0  0  0  0  0  0  0  0  0  0  0
    3.7254  149.4782   54.4028 C   0  0  0  0  0  0  0  0  0  0  0  0
    4.4117  149.3635   53.5605 H   0  0  0  0  0  0  0  0  0  0  0  0
    3.9936  150.3550   54.9799 H   0  0  0  0  0  0  0  0  0  0  0  0
    3.7509  148.2149   55.2671 C   0  0  0  0  0  0  0  0  0  0  0  0
    3.8516  148.2718   56.4855 O   0  0  0  0  0  0  0  0  0  0  0  0
    3.7213  146.9986   54.6457 N   0  0  0  0  0  0  0  0  0  0  0  0
    3.5165  146.9579   53.6578 H   0  0  0  0  0  0  0  0  0  0  0  0
    3.5424  145.8066   55.2387 C   0  0  0  0  0  0  0  0  0  0  0  0
    3.0415  144.9732   54.3448 N   0  0  0  0  0  0  0  0  0  0  0  0
    2.9107  143.6787   54.6613 C   0  0  0  0  0  0  0  0  0  0  0  0
    2.3367  142.7520   53.6077 C   0  0  0  0  0  0  0  0  0  0  0  0
    1.9193  143.3675   52.8071 H   0  0  0  0  0  0  0  0  0  0  0  0
    1.5162  142.2024   54.0687 H   0  0  0  0  0  0  0  0  0  0  0  0
    3.2879  141.8176   53.0523 O   0  0  0  0  0  0  0  0  0  0  0  0
    4.0547  142.4006   51.9890 C   0  0  0  0  0  0  0  0  0  0  0  0
    3.4279  142.5712   51.1058 H   0  0  0  0  0  0  0  0  0  0  0  0
    4.4149  143.3861   52.3082 H   0  0  0  0  0  0  0  0  0  0  0  0
    5.2127  141.4577   51.6289 C   0  0  0  0  0  0  0  0  0  0  0  0
    5.8626  141.2917   52.4963 H   0  0  0  0  0  0  0  0  0  0  0  0
    5.8180  141.8952   50.8276 H   0  0  0  0  0  0  0  0  0  0  0  0
    4.8372  140.4896   51.2917 H   0  0  0  0  0  0  0  0  0  0  0  0
    3.2611  143.2132   55.9193 C   0  0  0  0  0  0  0  0  0  0  0  0
    3.1421  141.8272   56.2473 C   0  0  0  0  0  0  0  0  0  0  0  0
    3.0403  140.6906   56.4625 N   0  0  0  0  0  0  0  0  0  0  0  0
    3.7497  144.1243   56.8244 C   0  0  0  0  0  0  0  0  0  0  0  0
    4.1548  143.7279   58.0411 N   0  0  0  0  0  0  0  0  0  0  0  0
    4.5066  144.4305   58.6863 H   0  0  0  0  0  0  0  0  0  0  0  0
    4.0664  142.7481   58.3039 H   0  0  0  0  0  0  0  0  0  0  0  0
    3.8970  145.4450   56.5136 C   0  0  0  0  0  0  0  0  0  0  0  0
    4.3224  146.1362   57.2304 H   0  0  0  0  0  0  0  0  0  0  0  0
    1.9323  149.2393   52.6477 C   0  0  0  0  0  0  0  0  0  0  0  0
    2.7752  148.4029   51.9490 O   0  0  0  0  0  0  0  0  0  0  0  0
    2.1636  147.2976   51.2813 C   0  0  0  0  0  0  0  0  0  0  0  0
    1.6224  147.6394   50.3939 H   0  0  0  0  0  0  0  0  0  0  0  0
    2.9493  146.5985   50.9731 H   0  0  0  0  0  0  0  0  0  0  0  0
    1.4723  146.7720   51.9504 H   0  0  0  0  0  0  0  0  0  0  0  0
  1  2  1  0
  2  3  2  0
  3  4  1  0
  3  5  1  0
  5  6  1  0
  6  7  1  0
  7  8  1  0
  7  9  1  0
  7 10  1  0
  5 11  2  0
 11 12  1  0
 11 13  1  0
 13 14  1  0
 14 15  1  0
 14 16  1  0
 14 17  1  0
 17 18  2  0
 17 19  1  0
 19 20  1  0
 19 21  1  0
 21 22  2  0
 22 23  1  0
 23 24  1  0
 24 25  1  0
 24 26  1  0
 24 27  1  0
 27 28  1  0
 28 29  1  0
 28 30  1  0
 28 31  1  0
 31 32  1  0
 31 33  1  0
 31 34  1  0
 23 35  2  0
 35 36  1  0
 36 37  3  0
 35 38  1  0
 38 39  1  0
 39 40  1  0
 39 41  1  0
 38 42  2  0
 42 43  1  0
 13 44  2  0
 44 45  1  0
 45 46  1  0
 46 47  1  0
 46 48  1  0
 46 49  1  0
 44  2  1  0
 42 21  1  0
M  END
>  <score>  (34) 
6.71192

$$$$

     RDKit          3D

 46 47  0  0  0  0  0  0  0  0999 V2000
    0.3058  149.2040   51.2546 H   0  0  0  0  0  0  0  0  0  0  0  0
    0.6596  149.6089   52.1952 C   0  0  0  0  0  0  0  0  0  0  0  0
   -0.1426  150.5018   52.9350 C   0  0  0  0  0  0  0  0  0  0  0  0
   -1.8677  150.9835   52.2752 Br  0  0  0  0  0  0  0  0  0  0  0  0
    0.3347  151.0601   54.1329 C   0  0  0  0  0  0  0  0  0  0  0  0
   -0.3798  151.9768   54.8621 O   0  0  0  0  0  0  0  0  0  0  0  0
   -1.4276  151.4049   55.6505 C   0  0  0  0  0  0  0  0  0  0  0  0
   -1.9451  152.2009   56.1954 H   0  0  0  0  0  0  0  0  0  0  0  0
   -1.0149  150.7041   56.3780 H   0  0  0  0  0  0  0  0  0  0  0  0
   -2.1543  150.8747   55.0258 H   0  0  0  0  0  0  0  0  0  0  0  0
    1.5995  150.6929   54.5727 C   0  0  0  0  0  0  0  0  0  0  0  0
    1.9925  151.1452   55.4747 H   0  0  0  0  0  0  0  0  0  0  0  0
    2.3836  149.7885   53.8551 C   0  0  0  0  0  0  0  0  0  0  0  0
    3.7306  149.4779   54.3972 C   0  0  0  0  0  0  0  0  0  0  0  0
    3.9995  150.3582   54.9686 H   0  0  0  0  0  0  0  0  0  0  0  0
    4.4202  149.3559   53.5595 H   0  0  0  0  0  0  0  0  0  0  0  0
    3.7532  148.2196   55.2738 C   0  0  0  0  0  0  0  0  0  0  0  0
    3.8547  148.2811   56.4884 O   0  0  0  0  0  0  0  0  0  0  0  0
    3.7148  147.0054   54.6537 N   0  0  0  0  0  0  0  0  0  0  0  0
    3.5331  146.9741   53.6643 H   0  0  0  0  0  0  0  0  0  0  0  0
    3.5399  145.8038   55.2412 C   0  0  0  0  0  0  0  0  0  0  0  0
    3.0407  144.9709   54.3474 N   0  0  0  0  0  0  0  0  0  0  0  0
    2.9092  143.6759   54.6611 C   0  0  0  0  0  0  0  0  0  0  0  0
    2.3378  142.7482   53.6060 C   0  0  0  0  0  0  0  0  0  0  0  0
    1.9079  143.3625   52.8098 H   0  0  0  0  0  0  0  0  0  0  0  0
    1.5209  142.1946   54.0677 H   0  0  0  0  0  0  0  0  0  0  0  0
    3.2933  141.8241   53.0400 O   0  0  0  0  0  0  0  0  0  0  0  0
    4.0542  142.4329   51.9888 C   0  0  0  0  0  0  0  0  0  0  0  0
    3.4383  142.5941   51.1002 H   0  0  0  0  0  0  0  0  0  0  0  0
    4.4160  143.4097   52.3158 H   0  0  0  0  0  0  0  0  0  0  0  0
    4.9074  141.8029   51.7161 H   0  0  0  0  0  0  0  0  0  0  0  0
    3.2608  143.2103   55.9216 C   0  0  0  0  0  0  0  0  0  0  0  0
    3.1410  141.8281   56.2483 C   0  0  0  0  0  0  0  0  0  0  0  0
    3.0373  140.6894   56.4629 N   0  0  0  0  0  0  0  0  0  0  0  0
    3.7517  144.1201   56.8242 C   0  0  0  0  0  0  0  0  0  0  0  0
    4.1551  143.7240   58.0427 N   0  0  0  0  0  0  0  0  0  0  0  0
    4.5077  144.4256   58.6871 H   0  0  0  0  0  0  0  0  0  0  0  0
    4.0651  142.7443   58.3047 H   0  0  0  0  0  0  0  0  0  0  0  0
    3.8977  145.4399   56.5131 C   0  0  0  0  0  0  0  0  0  0  0  0
    4.3221  146.1319   57.2257 H   0  0  0  0  0  0  0  0  0  0  0  0
    1.9359  149.2423   52.6463 C   0  0  0  0  0  0  0  0  0  0  0  0
    2.7766  148.4025   51.9503 O   0  0  0  0  0  0  0  0  0  0  0  0
    2.1664  147.2961   51.2815 C   0  0  0  0  0  0  0  0  0  0  0  0
    1.4749  146.7686   51.9485 H   0  0  0  0  0  0  0  0  0  0  0  0
    1.6249  147.6343   50.3930 H   0  0  0  0  0  0  0  0  0  0  0  0
    2.9505  146.5958   50.9730 H   0  0  0  0  0  0  0  0  0  0  0  0
  1  2  1  0
  2  3  2  0
  3  4  1  0
  3  5  1  0
  5  6  1  0
  6  7  1  0
  7  8  1  0
  7  9  1  0
  7 10  1  0
  5 11  2  0
 11 12  1  0
 11 13  1  0
 13 14  1  0
 14 15  1  0
 14 16  1  0
 14 17  1  0
 17 18  2  0
 17 19  1  0
 19 20  1  0
 19 21  1  0
 21 22  2  0
 22 23  1  0
 23 24  1  0
 24 25  1  0
 24 26  1  0
 24 27  1  0
 27 28  1  0
 28 29  1  0
 28 30  1  0
 28 31  1  0
 23 32  2  0
 32 33  1  0
 33 34  3  0
 32 35  1  0
 35 36  1  0
 36 37  1  0
 36 38  1  0
 35 39  2  0
 39 40  1  0
 13 41  2  0
 41 42  1  0
 42 43  1  0
 43 44  1  0
 43 45  1  0
 43 46  1  0
 41  2  1  0
 39 21  1  0
M  END
>  <score>  (35) 
6.71401

$$$$

     RDKit          3D

 43 44  0  0  0  0  0  0  0  0999 V2000
    0.3095  149.2036   51.2547 H   0  0  0  0  0  0  0  0  0  0  0  0
    0.6597  149.6085   52.1969 C   0  0  0  0  0  0  0  0  0  0  0  0
   -0.1434  150.5004   52.9366 C   0  0  0  0  0  0  0  0  0  0  0  0
   -1.8677  150.9849   52.2781 Br  0  0  0  0  0  0  0  0  0  0  0  0
    0.3357  151.0580   54.1327 C   0  0  0  0  0  0  0  0  0  0  0  0
   -0.3777  151.9758   54.8599 O   0  0  0  0  0  0  0  0  0  0  0  0
   -1.4257  151.4040   55.6478 C   0  0  0  0  0  0  0  0  0  0  0  0
   -1.0135  150.7028   56.3758 H   0  0  0  0  0  0  0  0  0  0  0  0
   -2.1534  150.8743   55.0231 H   0  0  0  0  0  0  0  0  0  0  0  0
   -1.9415  152.2016   56.1919 H   0  0  0  0  0  0  0  0  0  0  0  0
    1.5984  150.6866   54.5735 C   0  0  0  0  0  0  0  0  0  0  0  0
    1.9931  151.1413   55.4728 H   0  0  0  0  0  0  0  0  0  0  0  0
    2.3808  149.7798   53.8588 C   0  0  0  0  0  0  0  0  0  0  0  0
    3.7254  149.4675   54.4000 C   0  0  0  0  0  0  0  0  0  0  0  0
    3.9953  150.3448   54.9789 H   0  0  0  0  0  0  0  0  0  0  0  0
    4.4122  149.3528   53.5597 H   0  0  0  0  0  0  0  0  0  0  0  0
    3.7423  148.1989   55.2625 C   0  0  0  0  0  0  0  0  0  0  0  0
    3.8484  148.2545   56.4777 O   0  0  0  0  0  0  0  0  0  0  0  0
    3.7025  146.9857   54.6348 N   0  0  0  0  0  0  0  0  0  0  0  0
    3.5181  146.9453   53.6468 H   0  0  0  0  0  0  0  0  0  0  0  0
    3.5368  145.7845   55.2123 C   0  0  0  0  0  0  0  0  0  0  0  0
    3.0482  144.9585   54.3131 N   0  0  0  0  0  0  0  0  0  0  0  0
    2.9031  143.6778   54.6550 C   0  0  0  0  0  0  0  0  0  0  0  0
    2.3906  142.7667   53.7647 O   0  0  0  0  0  0  0  0  0  0  0  0
    1.9973  143.2082   52.4552 C   0  0  0  0  0  0  0  0  0  0  0  0
    2.8412  143.6319   51.8969 H   0  0  0  0  0  0  0  0  0  0  0  0
    1.1877  143.9468   52.5021 H   0  0  0  0  0  0  0  0  0  0  0  0
    1.6287  142.3389   51.8998 H   0  0  0  0  0  0  0  0  0  0  0  0
    3.2618  143.2137   55.9017 C   0  0  0  0  0  0  0  0  0  0  0  0
    3.1399  141.8342   56.2300 C   0  0  0  0  0  0  0  0  0  0  0  0
    3.0350  140.6973   56.4472 N   0  0  0  0  0  0  0  0  0  0  0  0
    3.7467  144.1165   56.7953 C   0  0  0  0  0  0  0  0  0  0  0  0
    4.1450  143.7260   58.0116 N   0  0  0  0  0  0  0  0  0  0  0  0
    4.4943  144.4345   58.6506 H   0  0  0  0  0  0  0  0  0  0  0  0
    4.0548  142.7468   58.2763 H   0  0  0  0  0  0  0  0  0  0  0  0
    3.8857  145.4285   56.4849 C   0  0  0  0  0  0  0  0  0  0  0  0
    4.3033  146.1200   57.1995 H   0  0  0  0  0  0  0  0  0  0  0  0
    1.9353  149.2383   52.6481 C   0  0  0  0  0  0  0  0  0  0  0  0
    2.7762  148.4023   51.9476 O   0  0  0  0  0  0  0  0  0  0  0  0
    2.1657  147.2957   51.2811 C   0  0  0  0  0  0  0  0  0  0  0  0
    1.4741  146.7699   51.9496 H   0  0  0  0  0  0  0  0  0  0  0  0
    2.9503  146.5958   50.9737 H   0  0  0  0  0  0  0  0  0  0  0  0
    1.6239  147.6348   50.3931 H   0  0  0  0  0  0  0  0  0  0  0  0
  1  2  1  0
  2  3  2  0
  3  4  1  0
  3  5  1  0
  5  6  1  0
  6  7  1  0
  7  8  1  0
  7  9  1  0
  7 10  1  0
  5 11  2  0
 11 12  1  0
 11 13  1  0
 13 14  1  0
 14 15  1  0
 14 16  1  0
 14 17  1  0
 17 18  2  0
 17 19  1  0
 19 20  1  0
 19 21  1  0
 21 22  2  0
 22 23  1  0
 23 24  1  0
 24 25  1  0
 25 26  1  0
 25 27  1  0
 25 28  1  0
 23 29  2  0
 29 30  1  0
 30 31  3  0
 29 32  1  0
 32 33  1  0
 33 34  1  0
 33 35  1  0
 32 36  2  0
 36 37  1  0
 13 38  2  0
 38 39  1  0
 39 40  1  0
 40 41  1  0
 40 42  1  0
 40 43  1  0
 38  2  1  0
 36 21  1  0
M  END
>  <score>  (36) 
6.71503

$$$$

     RDKit          3D

 39 40  0  0  0  0  0  0  0  0999 V2000
    0.3063  149.2033   51.2537 H   0  0  0  0  0  0  0  0  0  0  0  0
    0.6604  149.6088   52.1957 C   0  0  0  0  0  0  0  0  0  0  0  0
   -0.1427  150.5027   52.9355 C   0  0  0  0  0  0  0  0  0  0  0  0
   -1.8682  150.9830   52.2741 Br  0  0  0  0  0  0  0  0  0  0  0  0
    0.3346  151.0617   54.1330 C   0  0  0  0  0  0  0  0  0  0  0  0
   -0.3805  151.9776   54.8635 O   0  0  0  0  0  0  0  0  0  0  0  0
   -1.4283  151.4049   55.6514 C   0  0  0  0  0  0  0  0  0  0  0  0
   -1.0149  150.7039   56.3791 H   0  0  0  0  0  0  0  0  0  0  0  0
   -1.9461  152.2014   56.1960 H   0  0  0  0  0  0  0  0  0  0  0  0
   -2.1547  150.8748   55.0257 H   0  0  0  0  0  0  0  0  0  0  0  0
    1.5996  150.6944   54.5734 C   0  0  0  0  0  0  0  0  0  0  0  0
    1.9923  151.1472   55.4753 H   0  0  0  0  0  0  0  0  0  0  0  0
    2.3858  149.7887   53.8564 C   0  0  0  0  0  0  0  0  0  0  0  0
    3.7332  149.4765   54.3973 C   0  0  0  0  0  0  0  0  0  0  0  0
    4.0057  150.3557   54.9691 H   0  0  0  0  0  0  0  0  0  0  0  0
    4.4219  149.3552   53.5584 H   0  0  0  0  0  0  0  0  0  0  0  0
    3.7528  148.2190   55.2720 C   0  0  0  0  0  0  0  0  0  0  0  0
    3.8541  148.2793   56.4882 O   0  0  0  0  0  0  0  0  0  0  0  0
    3.7099  147.0046   54.6528 N   0  0  0  0  0  0  0  0  0  0  0  0
    3.5333  146.9696   53.6603 H   0  0  0  0  0  0  0  0  0  0  0  0
    3.5520  145.8035   55.2385 C   0  0  0  0  0  0  0  0  0  0  0  0
    3.0637  144.9723   54.3444 N   0  0  0  0  0  0  0  0  0  0  0  0
    2.9187  143.6924   54.6836 C   0  0  0  0  0  0  0  0  0  0  0  0
    2.2035  142.5280   53.3563 Br  0  0  0  0  0  0  0  0  0  0  0  0
    3.2705  143.2077   55.9284 C   0  0  0  0  0  0  0  0  0  0  0  0
    3.1411  141.8226   56.2417 C   0  0  0  0  0  0  0  0  0  0  0  0
    3.0336  140.6832   56.4549 N   0  0  0  0  0  0  0  0  0  0  0  0
    3.7593  144.1166   56.8276 C   0  0  0  0  0  0  0  0  0  0  0  0
    4.1566  143.7222   58.0455 N   0  0  0  0  0  0  0  0  0  0  0  0
    4.0663  142.7430   58.3111 H   0  0  0  0  0  0  0  0  0  0  0  0
    4.5076  144.4267   58.6888 H   0  0  0  0  0  0  0  0  0  0  0  0
    3.9009  145.4380   56.5135 C   0  0  0  0  0  0  0  0  0  0  0  0
    4.3177  146.1335   57.2262 H   0  0  0  0  0  0  0  0  0  0  0  0
    1.9368  149.2420   52.6480 C   0  0  0  0  0  0  0  0  0  0  0  0
    2.7766  148.4013   51.9505 O   0  0  0  0  0  0  0  0  0  0  0  0
    2.1664  147.2951   51.2812 C   0  0  0  0  0  0  0  0  0  0  0  0
    2.9512  146.5954   50.9718 H   0  0  0  0  0  0  0  0  0  0  0  0
    1.4756  146.7674   51.9490 H   0  0  0  0  0  0  0  0  0  0  0  0
    1.6247  147.6344   50.3930 H   0  0  0  0  0  0  0  0  0  0  0  0
  1  2  1  0
  2  3  2  0
  3  4  1  0
  3  5  1  0
  5  6  1  0
  6  7  1  0
  7  8  1  0
  7  9  1  0
  7 10  1  0
  5 11  2  0
 11 12  1  0
 11 13  1  0
 13 14  1  0
 14 15  1  0
 14 16  1  0
 14 17  1  0
 17 18  2  0
 17 19  1  0
 19 20  1  0
 19 21  1  0
 21 22  2  0
 22 23  1  0
 23 24  1  0
 23 25  2  0
 25 26  1  0
 26 27  3  0
 25 28  1  0
 28 29  1  0
 29 30  1  0
 29 31  1  0
 28 32  2  0
 32 33  1  0
 13 34  2  0
 34 35  1  0
 35 36  1  0
 36 37  1  0
 36 38  1  0
 36 39  1  0
 34  2  1  0
 32 21  1  0
M  END
>  <score>  (37) 
6.72549

$$$$

     RDKit          3D

 42 43  0  0  0  0  0  0  0  0999 V2000
    0.3072  149.2020   51.2537 H   0  0  0  0  0  0  0  0  0  0  0  0
    0.6595  149.6073   52.1959 C   0  0  0  0  0  0  0  0  0  0  0  0
   -0.1439  150.5009   52.9350 C   0  0  0  0  0  0  0  0  0  0  0  0
   -1.8690  150.9837   52.2756 Br  0  0  0  0  0  0  0  0  0  0  0  0
    0.3335  151.0596   54.1320 C   0  0  0  0  0  0  0  0  0  0  0  0
   -0.3796  151.9768   54.8614 O   0  0  0  0  0  0  0  0  0  0  0  0
   -1.4272  151.4045   55.6492 C   0  0  0  0  0  0  0  0  0  0  0  0
   -1.0146  150.7032   56.3764 H   0  0  0  0  0  0  0  0  0  0  0  0
   -2.1538  150.8750   55.0238 H   0  0  0  0  0  0  0  0  0  0  0  0
   -1.9440  152.2012   56.1938 H   0  0  0  0  0  0  0  0  0  0  0  0
    1.5976  150.6930   54.5729 C   0  0  0  0  0  0  0  0  0  0  0  0
    1.9905  151.1466   55.4737 H   0  0  0  0  0  0  0  0  0  0  0  0
    2.3830  149.7877   53.8566 C   0  0  0  0  0  0  0  0  0  0  0  0
    3.7301  149.4787   54.3991 C   0  0  0  0  0  0  0  0  0  0  0  0
    4.4175  149.3591   53.5585 H   0  0  0  0  0  0  0  0  0  0  0  0
    3.9997  150.3586   54.9704 H   0  0  0  0  0  0  0  0  0  0  0  0
    3.7537  148.2200   55.2727 C   0  0  0  0  0  0  0  0  0  0  0  0
    3.8538  148.2803   56.4890 O   0  0  0  0  0  0  0  0  0  0  0  0
    3.7206  147.0029   54.6586 N   0  0  0  0  0  0  0  0  0  0  0  0
    3.5269  146.9621   53.6700 H   0  0  0  0  0  0  0  0  0  0  0  0
    3.5582  145.8053   55.2469 C   0  0  0  0  0  0  0  0  0  0  0  0
    3.0689  144.9784   54.3440 N   0  0  0  0  0  0  0  0  0  0  0  0
    2.9065  143.6856   54.6421 C   0  0  0  0  0  0  0  0  0  0  0  0
    2.3385  142.7508   53.5828 C   0  0  0  0  0  0  0  0  0  0  0  0
    3.0707  141.9631   53.3836 H   0  0  0  0  0  0  0  0  0  0  0  0
    1.4374  142.2919   53.9897 H   0  0  0  0  0  0  0  0  0  0  0  0
    2.0099  143.3561   52.4003 F   0  0  0  0  0  0  0  0  0  0  0  0
    3.2627  143.2090   55.9045 C   0  0  0  0  0  0  0  0  0  0  0  0
    3.1414  141.8254   56.2387 C   0  0  0  0  0  0  0  0  0  0  0  0
    3.0380  140.6885   56.4605 N   0  0  0  0  0  0  0  0  0  0  0  0
    3.7546  144.1157   56.8185 C   0  0  0  0  0  0  0  0  0  0  0  0
    4.1540  143.7222   58.0394 N   0  0  0  0  0  0  0  0  0  0  0  0
    4.0647  142.7438   58.3054 H   0  0  0  0  0  0  0  0  0  0  0  0
    4.5047  144.4276   58.6826 H   0  0  0  0  0  0  0  0  0  0  0  0
    3.9027  145.4382   56.5197 C   0  0  0  0  0  0  0  0  0  0  0  0
    4.3204  146.1307   57.2383 H   0  0  0  0  0  0  0  0  0  0  0  0
    1.9352  149.2413   52.6486 C   0  0  0  0  0  0  0  0  0  0  0  0
    2.7761  148.4024   51.9508 O   0  0  0  0  0  0  0  0  0  0  0  0
    2.1657  147.2960   51.2818 C   0  0  0  0  0  0  0  0  0  0  0  0
    2.9501  146.5963   50.9725 H   0  0  0  0  0  0  0  0  0  0  0  0
    1.6236  147.6353   50.3941 H   0  0  0  0  0  0  0  0  0  0  0  0
    1.4749  146.7683   51.9493 H   0  0  0  0  0  0  0  0  0  0  0  0
  1  2  1  0
  2  3  2  0
  3  4  1  0
  3  5  1  0
  5  6  1  0
  6  7  1  0
  7  8  1  0
  7  9  1  0
  7 10  1  0
  5 11  2  0
 11 12  1  0
 11 13  1  0
 13 14  1  0
 14 15  1  0
 14 16  1  0
 14 17  1  0
 17 18  2  0
 17 19  1  0
 19 20  1  0
 19 21  1  0
 21 22  2  0
 22 23  1  0
 23 24  1  0
 24 25  1  0
 24 26  1  0
 24 27  1  0
 23 28  2  0
 28 29  1  0
 29 30  3  0
 28 31  1  0
 31 32  1  0
 32 33  1  0
 32 34  1  0
 31 35  2  0
 35 36  1  0
 13 37  2  0
 37 38  1  0
 38 39  1  0
 39 40  1  0
 39 41  1  0
 39 42  1  0
 37  2  1  0
 35 21  1  0
M  END
>  <score>  (38) 
6.74421

$$$$

     RDKit          3D

 40 41  0  0  0  0  0  0  0  0999 V2000
    0.3064  149.2041   51.2544 H   0  0  0  0  0  0  0  0  0  0  0  0
    0.6625  149.6103   52.1969 C   0  0  0  0  0  0  0  0  0  0  0  0
   -0.1420  150.5045   52.9369 C   0  0  0  0  0  0  0  0  0  0  0  0
   -1.8663  150.9827   52.2737 Br  0  0  0  0  0  0  0  0  0  0  0  0
    0.3360  151.0627   54.1337 C   0  0  0  0  0  0  0  0  0  0  0  0
   -0.3809  151.9772   54.8649 O   0  0  0  0  0  0  0  0  0  0  0  0
   -1.4286  151.4052   55.6526 C   0  0  0  0  0  0  0  0  0  0  0  0
   -1.0157  150.7049   56.3809 H   0  0  0  0  0  0  0  0  0  0  0  0
   -2.1552  150.8747   55.0279 H   0  0  0  0  0  0  0  0  0  0  0  0
   -1.9474  152.2012   56.1978 H   0  0  0  0  0  0  0  0  0  0  0  0
    1.6009  150.6954   54.5729 C   0  0  0  0  0  0  0  0  0  0  0  0
    1.9935  151.1478   55.4755 H   0  0  0  0  0  0  0  0  0  0  0  0
    2.3884  149.7904   53.8555 C   0  0  0  0  0  0  0  0  0  0  0  0
    3.7339  149.4760   54.3955 C   0  0  0  0  0  0  0  0  0  0  0  0
    4.0066  150.3585   54.9641 H   0  0  0  0  0  0  0  0  0  0  0  0
    4.4242  149.3534   53.5574 H   0  0  0  0  0  0  0  0  0  0  0  0
    3.7536  148.2206   55.2737 C   0  0  0  0  0  0  0  0  0  0  0  0
    3.8556  148.2829   56.4902 O   0  0  0  0  0  0  0  0  0  0  0  0
    3.7088  147.0071   54.6576 N   0  0  0  0  0  0  0  0  0  0  0  0
    3.5393  146.9754   53.6627 H   0  0  0  0  0  0  0  0  0  0  0  0
    3.5498  145.8027   55.2372 C   0  0  0  0  0  0  0  0  0  0  0  0
    3.0620  144.9713   54.3426 N   0  0  0  0  0  0  0  0  0  0  0  0
    2.9096  143.6794   54.6648 C   0  0  0  0  0  0  0  0  0  0  0  0
    2.3728  142.8147   53.6551 C   0  0  0  0  0  0  0  0  0  0  0  0
    1.9300  142.1091   52.8342 N   0  0  0  0  0  0  0  0  0  0  0  0
    3.2666  143.1972   55.9223 C   0  0  0  0  0  0  0  0  0  0  0  0
    3.1450  141.8129   56.2586 C   0  0  0  0  0  0  0  0  0  0  0  0
    3.0395  140.6761   56.4791 N   0  0  0  0  0  0  0  0  0  0  0  0
    3.7565  144.1089   56.8225 C   0  0  0  0  0  0  0  0  0  0  0  0
    4.1547  143.7205   58.0414 N   0  0  0  0  0  0  0  0  0  0  0  0
    4.0665  142.7418   58.3126 H   0  0  0  0  0  0  0  0  0  0  0  0
    4.5061  144.4273   58.6823 H   0  0  0  0  0  0  0  0  0  0  0  0
    3.8983  145.4304   56.5094 C   0  0  0  0  0  0  0  0  0  0  0  0
    4.3149  146.1241   57.2212 H   0  0  0  0  0  0  0  0  0  0  0  0
    1.9388  149.2434   52.6483 C   0  0  0  0  0  0  0  0  0  0  0  0
    2.7767  148.4003   51.9509 O   0  0  0  0  0  0  0  0  0  0  0  0
    2.1670  147.2943   51.2812 C   0  0  0  0  0  0  0  0  0  0  0  0
    1.4764  146.7663   51.9481 H   0  0  0  0  0  0  0  0  0  0  0  0
    1.6258  147.6332   50.3929 H   0  0  0  0  0  0  0  0  0  0  0  0
    2.9518  146.5946   50.9718 H   0  0  0  0  0  0  0  0  0  0  0  0
  1  2  1  0
  2  3  2  0
  3  4  1  0
  3  5  1  0
  5  6  1  0
  6  7  1  0
  7  8  1  0
  7  9  1  0
  7 10  1  0
  5 11  2  0
 11 12  1  0
 11 13  1  0
 13 14  1  0
 14 15  1  0
 14 16  1  0
 14 17  1  0
 17 18  2  0
 17 19  1  0
 19 20  1  0
 19 21  1  0
 21 22  2  0
 22 23  1  0
 23 24  1  0
 24 25  3  0
 23 26  2  0
 26 27  1  0
 27 28  3  0
 26 29  1  0
 29 30  1  0
 30 31  1  0
 30 32  1  0
 29 33  2  0
 33 34  1  0
 13 35  2  0
 35 36  1  0
 36 37  1  0
 37 38  1  0
 37 39  1  0
 37 40  1  0
 35  2  1  0
 33 21  1  0
M  END
>  <score>  (39) 
6.75204

$$$$

     RDKit          3D

 41 42  0  0  0  0  0  0  0  0999 V2000
    1.5252  141.4338   52.0593 H   0  0  0  0  0  0  0  0  0  0  0  0
    1.9256  142.0950   52.8020 C   0  0  0  0  0  0  0  0  0  0  0  0
    2.3791  142.8266   53.6614 C   0  0  0  0  0  0  0  0  0  0  0  0
    2.9121  143.6832   54.6723 C   0  0  0  0  0  0  0  0  0  0  0  0
    3.0570  144.9631   54.3353 N   0  0  0  0  0  0  0  0  0  0  0  0
    3.5444  145.7927   55.2290 C   0  0  0  0  0  0  0  0  0  0  0  0
    3.7055  147.0002   54.6523 N   0  0  0  0  0  0  0  0  0  0  0  0
    3.5344  146.9680   53.6586 H   0  0  0  0  0  0  0  0  0  0  0  0
    3.7517  148.2137   55.2699 C   0  0  0  0  0  0  0  0  0  0  0  0
    3.8540  148.2755   56.4874 O   0  0  0  0  0  0  0  0  0  0  0  0
    3.7320  149.4734   54.3959 C   0  0  0  0  0  0  0  0  0  0  0  0
    4.4219  149.3532   53.5577 H   0  0  0  0  0  0  0  0  0  0  0  0
    4.0034  150.3540   54.9668 H   0  0  0  0  0  0  0  0  0  0  0  0
    2.3867  149.7883   53.8561 C   0  0  0  0  0  0  0  0  0  0  0  0
    1.6003  150.6940   54.5729 C   0  0  0  0  0  0  0  0  0  0  0  0
    1.9928  151.1472   55.4748 H   0  0  0  0  0  0  0  0  0  0  0  0
    0.3354  151.0620   54.1333 C   0  0  0  0  0  0  0  0  0  0  0  0
   -0.3800  151.9769   54.8640 O   0  0  0  0  0  0  0  0  0  0  0  0
   -1.4281  151.4049   55.6517 C   0  0  0  0  0  0  0  0  0  0  0  0
   -1.9464  152.2012   56.1967 H   0  0  0  0  0  0  0  0  0  0  0  0
   -2.1547  150.8747   55.0268 H   0  0  0  0  0  0  0  0  0  0  0  0
   -1.0154  150.7044   56.3798 H   0  0  0  0  0  0  0  0  0  0  0  0
   -0.1424  150.5035   52.9366 C   0  0  0  0  0  0  0  0  0  0  0  0
   -1.8670  150.9827   52.2742 Br  0  0  0  0  0  0  0  0  0  0  0  0
    0.6616  149.6098   52.1967 C   0  0  0  0  0  0  0  0  0  0  0  0
    0.3064  149.2038   51.2542 H   0  0  0  0  0  0  0  0  0  0  0  0
    1.9381  149.2425   52.6484 C   0  0  0  0  0  0  0  0  0  0  0  0
    2.7764  148.4014   51.9501 O   0  0  0  0  0  0  0  0  0  0  0  0
    2.1667  147.2948   51.2814 C   0  0  0  0  0  0  0  0  0  0  0  0
    2.9516  146.5952   50.9723 H   0  0  0  0  0  0  0  0  0  0  0  0
    1.4763  146.7671   51.9489 H   0  0  0  0  0  0  0  0  0  0  0  0
    1.6251  147.6336   50.3934 H   0  0  0  0  0  0  0  0  0  0  0  0
    3.8948  145.4277   56.5035 C   0  0  0  0  0  0  0  0  0  0  0  0
    4.3123  146.1246   57.2156 H   0  0  0  0  0  0  0  0  0  0  0  0
    3.7530  144.1064   56.8160 C   0  0  0  0  0  0  0  0  0  0  0  0
    4.1532  143.7196   58.0369 N   0  0  0  0  0  0  0  0  0  0  0  0
    4.0645  142.7412   58.3075 H   0  0  0  0  0  0  0  0  0  0  0  0
    4.5047  144.4264   58.6794 H   0  0  0  0  0  0  0  0  0  0  0  0
    3.2645  143.1967   55.9193 C   0  0  0  0  0  0  0  0  0  0  0  0
    3.1430  141.8147   56.2515 C   0  0  0  0  0  0  0  0  0  0  0  0
    3.0369  140.6768   56.4674 N   0  0  0  0  0  0  0  0  0  0  0  0
  1  2  1  0
  2  3  3  0
  3  4  1  0
  4  5  2  0
  5  6  1  0
  6  7  1  0
  7  8  1  0
  7  9  1  0
  9 10  2  0
  9 11  1  0
 11 12  1  0
 11 13  1  0
 11 14  1  0
 14 15  2  0
 15 16  1  0
 15 17  1  0
 17 18  1  0
 18 19  1  0
 19 20  1  0
 19 21  1  0
 19 22  1  0
 17 23  2  0
 23 24  1  0
 23 25  1  0
 25 26  1  0
 25 27  2  0
 27 28  1  0
 28 29  1  0
 29 30  1  0
 29 31  1  0
 29 32  1  0
  6 33  2  0
 33 34  1  0
 33 35  1  0
 35 36  1  0
 36 37  1  0
 36 38  1  0
 35 39  2  0
 39 40  1  0
 40 41  3  0
 39  4  1  0
 27 14  1  0
M  END
>  <score>  (40) 
6.75352

$$$$

     RDKit          3D

 44 45  0  0  0  0  0  0  0  0999 V2000
    0.2579  149.0451   51.2769 H   0  0  0  0  0  0  0  0  0  0  0  0
    0.5916  149.5311   52.1894 C   0  0  0  0  0  0  0  0  0  0  0  0
   -0.2439  150.4592   52.8315 C   0  0  0  0  0  0  0  0  0  0  0  0
   -1.9786  150.8340   52.1083 Br  0  0  0  0  0  0  0  0  0  0  0  0
    0.1907  151.0860   54.0127 C   0  0  0  0  0  0  0  0  0  0  0  0
   -0.5785  152.0144   54.6629 O   0  0  0  0  0  0  0  0  0  0  0  0
   -1.5360  151.3948   55.5264 C   0  0  0  0  0  0  0  0  0  0  0  0
   -2.0103  152.1516   56.1549 H   0  0  0  0  0  0  0  0  0  0  0  0
   -2.3096  150.8943   54.9346 H   0  0  0  0  0  0  0  0  0  0  0  0
   -1.0600  150.6599   56.1845 H   0  0  0  0  0  0  0  0  0  0  0  0
    1.4365  150.7527   54.5457 C   0  0  0  0  0  0  0  0  0  0  0  0
    1.7500  151.2302   55.4701 H   0  0  0  0  0  0  0  0  0  0  0  0
    2.2881  149.8463   53.9037 C   0  0  0  0  0  0  0  0  0  0  0  0
    3.6435  149.6373   54.5416 C   0  0  0  0  0  0  0  0  0  0  0  0
    4.4233  149.6617   53.7671 H   0  0  0  0  0  0  0  0  0  0  0  0
    3.7895  150.4558   55.2541 H   0  0  0  0  0  0  0  0  0  0  0  0
    3.7550  148.3247   55.3079 C   0  0  0  0  0  0  0  0  0  0  0  0
    3.8210  148.3088   56.5266 O   0  0  0  0  0  0  0  0  0  0  0  0
    3.9050  147.1774   54.6035 N   0  0  0  0  0  0  0  0  0  0  0  0
    3.7341  147.2079   53.6102 H   0  0  0  0  0  0  0  0  0  0  0  0
    3.8461  145.9308   55.1143 C   0  0  0  0  0  0  0  0  0  0  0  0
    3.5644  145.0716   54.1515 N   0  0  0  0  0  0  0  0  0  0  0  0
    3.3504  143.7484   54.4109 C   0  0  0  0  0  0  0  0  0  0  0  0
    2.7895  142.5456   53.0398 S   0  0  0  0  0  0  0  0  0  0  0  0
    3.1203  141.1287   53.2811 O   0  0  0  0  0  0  0  0  0  0  0  0
    3.1419  142.9382   51.6699 O   0  0  0  0  0  0  0  0  0  0  0  0
    1.0823  142.5181   52.9588 N   0  0  0  0  0  0  0  0  0  0  0  0
    0.7334  141.9998   53.7537 H   0  0  0  0  0  0  0  0  0  0  0  0
    0.8603  142.0424   52.0955 H   0  0  0  0  0  0  0  0  0  0  0  0
    3.4994  143.3274   55.7555 C   0  0  0  0  0  0  0  0  0  0  0  0
    3.3086  141.9601   56.1255 C   0  0  0  0  0  0  0  0  0  0  0  0
    3.1490  140.8389   56.3847 N   0  0  0  0  0  0  0  0  0  0  0  0
    3.8174  144.2615   56.7352 C   0  0  0  0  0  0  0  0  0  0  0  0
    3.9933  143.9147   58.0344 N   0  0  0  0  0  0  0  0  0  0  0  0
    4.3524  144.6413   58.6507 H   0  0  0  0  0  0  0  0  0  0  0  0
    4.1569  142.9340   58.2562 H   0  0  0  0  0  0  0  0  0  0  0  0
    3.9707  145.5795   56.4251 C   0  0  0  0  0  0  0  0  0  0  0  0
    4.2032  146.3080   57.1811 H   0  0  0  0  0  0  0  0  0  0  0  0
    1.8661  149.2207   52.7052 C   0  0  0  0  0  0  0  0  0  0  0  0
    2.7045  148.3273   52.0734 O   0  0  0  0  0  0  0  0  0  0  0  0
    2.0707  147.3227   51.2590 C   0  0  0  0  0  0  0  0  0  0  0  0
    1.5430  147.7674   50.4065 H   0  0  0  0  0  0  0  0  0  0  0  0
    2.8152  146.6182   50.8673 H   0  0  0  0  0  0  0  0  0  0  0  0
    1.3535  146.7604   51.8661 H   0  0  0  0  0  0  0  0  0  0  0  0
  1  2  1  0
  2  3  2  0
  3  4  1  0
  3  5  1  0
  5  6  1  0
  6  7  1  0
  7  8  1  0
  7  9  1  0
  7 10  1  0
  5 11  2  0
 11 12  1  0
 11 13  1  0
 13 14  1  0
 14 15  1  0
 14 16  1  0
 14 17  1  0
 17 18  2  0
 17 19  1  0
 19 20  1  0
 19 21  1  0
 21 22  2  0
 22 23  1  0
 23 24  1  0
 24 25  2  0
 24 26  2  0
 24 27  1  0
 27 28  1  0
 27 29  1  0
 23 30  2  0
 30 31  1  0
 31 32  3  0
 30 33  1  0
 33 34  1  0
 34 35  1  0
 34 36  1  0
 33 37  2  0
 37 38  1  0
 13 39  2  0
 39 40  1  0
 40 41  1  0
 41 42  1  0
 41 43  1  0
 41 44  1  0
 39  2  1  0
 37 21  1  0
M  END
>  <score>  (41) 
6.76263

$$$$

     RDKit          3D

 42 43  0  0  0  0  0  0  0  0999 V2000
    0.2891  149.1851   51.2459 H   0  0  0  0  0  0  0  0  0  0  0  0
    0.6369  149.5900   52.1906 C   0  0  0  0  0  0  0  0  0  0  0  0
   -0.1647  150.4896   52.9169 C   0  0  0  0  0  0  0  0  0  0  0  0
   -1.8970  150.9725   52.2602 Br  0  0  0  0  0  0  0  0  0  0  0  0
    0.3185  151.0506   54.1133 C   0  0  0  0  0  0  0  0  0  0  0  0
   -0.3879  151.9798   54.8279 O   0  0  0  0  0  0  0  0  0  0  0  0
   -1.4278  151.4066   55.6238 C   0  0  0  0  0  0  0  0  0  0  0  0
   -1.9450  152.1931   56.1808 H   0  0  0  0  0  0  0  0  0  0  0  0
   -2.1549  150.8832   54.9976 H   0  0  0  0  0  0  0  0  0  0  0  0
   -1.0124  150.6964   56.3394 H   0  0  0  0  0  0  0  0  0  0  0  0
    1.5784  150.6840   54.5756 C   0  0  0  0  0  0  0  0  0  0  0  0
    1.9562  151.1349   55.4876 H   0  0  0  0  0  0  0  0  0  0  0  0
    2.3656  149.7785   53.8642 C   0  0  0  0  0  0  0  0  0  0  0  0
    3.7167  149.4498   54.4099 C   0  0  0  0  0  0  0  0  0  0  0  0
    4.4355  149.3877   53.5913 H   0  0  0  0  0  0  0  0  0  0  0  0
    3.9806  150.2715   55.0559 H   0  0  0  0  0  0  0  0  0  0  0  0
    3.7407  148.1635   55.2243 C   0  0  0  0  0  0  0  0  0  0  0  0
    3.8253  148.1998   56.4371 O   0  0  0  0  0  0  0  0  0  0  0  0
    3.6671  146.9709   54.5814 N   0  0  0  0  0  0  0  0  0  0  0  0
    3.4592  146.9828   53.5978 H   0  0  0  0  0  0  0  0  0  0  0  0
    3.4473  145.7816   55.1784 C   0  0  0  0  0  0  0  0  0  0  0  0
    2.9342  144.9520   54.2986 N   0  0  0  0  0  0  0  0  0  0  0  0
    2.8118  143.6676   54.6288 C   0  0  0  0  0  0  0  0  0  0  0  0
    2.6257  142.7364   53.4642 C   0  0  0  0  0  0  0  0  0  0  0  0
    3.1971  143.1383   52.6093 H   0  0  0  0  0  0  0  0  0  0  0  0
    3.0214  141.7554   53.7309 H   0  0  0  0  0  0  0  0  0  0  0  0
    0.9346  142.5071   52.9475 Cl  0  0  0  0  0  0  0  0  0  0  0  0
    3.1299  143.1976   55.9004 C   0  0  0  0  0  0  0  0  0  0  0  0
    3.0792  141.8007   56.2192 C   0  0  0  0  0  0  0  0  0  0  0  0
    3.0758  140.6634   56.4630 N   0  0  0  0  0  0  0  0  0  0  0  0
    3.6604  144.1147   56.7838 C   0  0  0  0  0  0  0  0  0  0  0  0
    4.1517  143.7329   57.9834 N   0  0  0  0  0  0  0  0  0  0  0  0
    4.4725  144.4397   58.6340 H   0  0  0  0  0  0  0  0  0  0  0  0
    4.0503  142.7719   58.2860 H   0  0  0  0  0  0  0  0  0  0  0  0
    3.8270  145.4255   56.4445 C   0  0  0  0  0  0  0  0  0  0  0  0
    4.3038  146.1146   57.1240 H   0  0  0  0  0  0  0  0  0  0  0  0
    1.9121  149.2303   52.6574 C   0  0  0  0  0  0  0  0  0  0  0  0
    2.7610  148.4008   51.9641 O   0  0  0  0  0  0  0  0  0  0  0  0
    2.1521  147.3039   51.2778 C   0  0  0  0  0  0  0  0  0  0  0  0
    1.4610  146.7762   51.9419 H   0  0  0  0  0  0  0  0  0  0  0  0
    1.6087  147.6520   50.3953 H   0  0  0  0  0  0  0  0  0  0  0  0
    2.9254  146.5984   50.9559 H   0  0  0  0  0  0  0  0  0  0  0  0
  1  2  1  0
  2  3  2  0
  3  4  1  0
  3  5  1  0
  5  6  1  0
  6  7  1  0
  7  8  1  0
  7  9  1  0
  7 10  1  0
  5 11  2  0
 11 12  1  0
 11 13  1  0
 13 14  1  0
 14 15  1  0
 14 16  1  0
 14 17  1  0
 17 18  2  0
 17 19  1  0
 19 20  1  0
 19 21  1  0
 21 22  2  0
 22 23  1  0
 23 24  1  0
 24 25  1  0
 24 26  1  0
 24 27  1  0
 23 28  2  0
 28 29  1  0
 29 30  3  0
 28 31  1  0
 31 32  1  0
 32 33  1  0
 32 34  1  0
 31 35  2  0
 35 36  1  0
 13 37  2  0
 37 38  1  0
 38 39  1  0
 39 40  1  0
 39 41  1  0
 39 42  1  0
 37  2  1  0
 35 21  1  0
M  END
>  <score>  (42) 
6.76288

$$$$

     RDKit          3D

 48 49  0  0  0  0  0  0  0  0999 V2000
    0.1337  141.9835   50.2343 H   0  0  0  0  0  0  0  0  0  0  0  0
    0.5109  142.6805   50.7817 O   0  0  0  0  0  0  0  0  0  0  0  0
    1.0042  142.0103   51.8349 C   0  0  0  0  0  0  0  0  0  0  0  0
    0.9529  140.8022   51.9438 O   0  0  0  0  0  0  0  0  0  0  0  0
    1.5594  142.8244   52.9933 C   0  0  0  0  0  0  0  0  0  0  0  0
    1.1492  142.4009   53.9054 H   0  0  0  0  0  0  0  0  0  0  0  0
    1.1839  143.8531   52.8916 H   0  0  0  0  0  0  0  0  0  0  0  0
    3.1028  142.8502   53.1108 C   0  0  0  0  0  0  0  0  0  0  0  0
    3.5380  141.8476   53.2039 H   0  0  0  0  0  0  0  0  0  0  0  0
    3.5327  143.3300   52.2171 H   0  0  0  0  0  0  0  0  0  0  0  0
    3.4443  143.6964   54.3127 C   0  0  0  0  0  0  0  0  0  0  0  0
    3.5335  144.9853   54.0260 N   0  0  0  0  0  0  0  0  0  0  0  0
    3.7180  145.8367   54.9935 C   0  0  0  0  0  0  0  0  0  0  0  0
    3.6689  147.0698   54.4822 N   0  0  0  0  0  0  0  0  0  0  0  0
    3.4312  147.1169   53.5012 H   0  0  0  0  0  0  0  0  0  0  0  0
    3.6430  148.1959   55.2355 C   0  0  0  0  0  0  0  0  0  0  0  0
    3.7676  148.1214   56.4447 O   0  0  0  0  0  0  0  0  0  0  0  0
    3.6190  149.5361   54.5442 C   0  0  0  0  0  0  0  0  0  0  0  0
    3.8063  150.3112   55.2878 H   0  0  0  0  0  0  0  0  0  0  0  0
    4.4232  149.5623   53.8106 H   0  0  0  0  0  0  0  0  0  0  0  0
    2.2940  149.8108   53.8850 C   0  0  0  0  0  0  0  0  0  0  0  0
    1.4558  150.7040   54.5477 C   0  0  0  0  0  0  0  0  0  0  0  0
    1.7680  151.1318   55.4936 H   0  0  0  0  0  0  0  0  0  0  0  0
    0.2258  151.0700   54.0135 C   0  0  0  0  0  0  0  0  0  0  0  0
   -0.5187  152.0034   54.6782 O   0  0  0  0  0  0  0  0  0  0  0  0
   -1.5042  151.3989   55.5129 C   0  0  0  0  0  0  0  0  0  0  0  0
   -1.9865  152.1593   56.1328 H   0  0  0  0  0  0  0  0  0  0  0  0
   -2.2666  150.9086   54.9029 H   0  0  0  0  0  0  0  0  0  0  0  0
   -1.0449  150.6538   56.1669 H   0  0  0  0  0  0  0  0  0  0  0  0
   -0.2288  150.4609   52.8343 C   0  0  0  0  0  0  0  0  0  0  0  0
   -1.9706  150.8628   52.1421 Br  0  0  0  0  0  0  0  0  0  0  0  0
    0.5886  149.5334   52.1730 C   0  0  0  0  0  0  0  0  0  0  0  0
    0.2190  149.0617   51.2656 H   0  0  0  0  0  0  0  0  0  0  0  0
    1.8665  149.2131   52.6762 C   0  0  0  0  0  0  0  0  0  0  0  0
    2.6962  148.3284   52.0241 O   0  0  0  0  0  0  0  0  0  0  0  0
    2.0527  147.3104   51.2399 C   0  0  0  0  0  0  0  0  0  0  0  0
    2.7986  146.6063   50.8563 H   0  0  0  0  0  0  0  0  0  0  0  0
    1.5141  147.7402   50.3901 H   0  0  0  0  0  0  0  0  0  0  0  0
    1.3419  146.7506   51.8541 H   0  0  0  0  0  0  0  0  0  0  0  0
    3.8557  145.4890   56.3079 C   0  0  0  0  0  0  0  0  0  0  0  0
    4.0192  146.2305   57.0702 H   0  0  0  0  0  0  0  0  0  0  0  0
    3.7181  144.1728   56.6140 C   0  0  0  0  0  0  0  0  0  0  0  0
    3.8364  143.8379   57.9162 N   0  0  0  0  0  0  0  0  0  0  0  0
    4.3074  144.5446   58.4846 H   0  0  0  0  0  0  0  0  0  0  0  0
    4.0670  142.8667   58.0788 H   0  0  0  0  0  0  0  0  0  0  0  0
    3.4999  143.2314   55.6265 C   0  0  0  0  0  0  0  0  0  0  0  0
    3.3050  141.8505   55.9325 C   0  0  0  0  0  0  0  0  0  0  0  0
    3.1255  140.7268   56.1648 N   0  0  0  0  0  0  0  0  0  0  0  0
  1  2  1  0
  2  3  1  0
  3  4  2  0
  3  5  1  0
  5  6  1  0
  5  7  1  0
  5  8  1  0
  8  9  1  0
  8 10  1  0
  8 11  1  0
 11 12  2  0
 12 13  1  0
 13 14  1  0
 14 15  1  0
 14 16  1  0
 16 17  2  0
 16 18  1  0
 18 19  1  0
 18 20  1  0
 18 21  1  0
 21 22  2  0
 22 23  1  0
 22 24  1  0
 24 25  1  0
 25 26  1  0
 26 27  1  0
 26 28  1  0
 26 29  1  0
 24 30  2  0
 30 31  1  0
 30 32  1  0
 32 33  1  0
 32 34  2  0
 34 35  1  0
 35 36  1  0
 36 37  1  0
 36 38  1  0
 36 39  1  0
 13 40  2  0
 40 41  1  0
 40 42  1  0
 42 43  1  0
 43 44  1  0
 43 45  1  0
 42 46  2  0
 46 47  1  0
 47 48  3  0
 46 11  1  0
 34 21  1  0
M  END
>  <score>  (43) 
6.76627

$$$$

     RDKit          3D

 46 47  0  0  0  0  0  0  0  0999 V2000
    0.2754  149.1651   51.2259 H   0  0  0  0  0  0  0  0  0  0  0  0
    0.6131  149.5732   52.1796 C   0  0  0  0  0  0  0  0  0  0  0  0
   -0.1893  150.4776   52.9049 C   0  0  0  0  0  0  0  0  0  0  0  0
   -1.9243  150.9718   52.2546 Br  0  0  0  0  0  0  0  0  0  0  0  0
    0.3036  151.0423   54.0977 C   0  0  0  0  0  0  0  0  0  0  0  0
   -0.3950  151.9804   54.8022 O   0  0  0  0  0  0  0  0  0  0  0  0
   -1.4248  151.4052   55.6029 C   0  0  0  0  0  0  0  0  0  0  0  0
   -1.0050  150.6868   56.3099 H   0  0  0  0  0  0  0  0  0  0  0  0
   -1.9376  152.1917   56.1641 H   0  0  0  0  0  0  0  0  0  0  0  0
   -2.1509  150.8880   54.9716 H   0  0  0  0  0  0  0  0  0  0  0  0
    1.5533  150.6714   54.5814 C   0  0  0  0  0  0  0  0  0  0  0  0
    1.9298  151.1245   55.4964 H   0  0  0  0  0  0  0  0  0  0  0  0
    2.3435  149.7629   53.8784 C   0  0  0  0  0  0  0  0  0  0  0  0
    3.7036  149.4634   54.4324 C   0  0  0  0  0  0  0  0  0  0  0  0
    4.4291  149.4256   53.6227 H   0  0  0  0  0  0  0  0  0  0  0  0
    3.9708  150.2666   55.0997 H   0  0  0  0  0  0  0  0  0  0  0  0
    3.7452  148.1794   55.2325 C   0  0  0  0  0  0  0  0  0  0  0  0
    3.8184  148.2336   56.4500 O   0  0  0  0  0  0  0  0  0  0  0  0
    3.6967  146.9869   54.5827 N   0  0  0  0  0  0  0  0  0  0  0  0
    3.4367  146.9873   53.6060 H   0  0  0  0  0  0  0  0  0  0  0  0
    3.5772  145.7755   55.1631 C   0  0  0  0  0  0  0  0  0  0  0  0
    3.0822  144.9278   54.2800 N   0  0  0  0  0  0  0  0  0  0  0  0
    2.8806  143.6222   54.5926 C   0  0  0  0  0  0  0  0  0  0  0  0
    2.2274  142.6628   53.5757 C   0  0  0  0  0  0  0  0  0  0  0  0
    1.0915  142.8256   53.1227 O   0  0  0  0  0  0  0  0  0  0  0  0
    2.8074  141.5019   53.0671 N   0  0  0  0  0  0  0  0  0  0  0  0
    2.2675  141.1011   52.3061 H   0  0  0  0  0  0  0  0  0  0  0  0
    4.2457  141.3530   52.9334 C   0  0  0  0  0  0  0  0  0  0  0  0
    4.6471  142.2409   52.4452 H   0  0  0  0  0  0  0  0  0  0  0  0
    4.7522  141.2131   53.8942 H   0  0  0  0  0  0  0  0  0  0  0  0
    4.4607  140.4914   52.2934 H   0  0  0  0  0  0  0  0  0  0  0  0
    3.2903  143.1857   55.8690 C   0  0  0  0  0  0  0  0  0  0  0  0
    3.1852  141.8119   56.2349 C   0  0  0  0  0  0  0  0  0  0  0  0
    3.0994  140.6812   56.5035 N   0  0  0  0  0  0  0  0  0  0  0  0
    3.7785  144.1166   56.7792 C   0  0  0  0  0  0  0  0  0  0  0  0
    4.1520  143.7658   58.0348 N   0  0  0  0  0  0  0  0  0  0  0  0
    4.4775  144.4750   58.6920 H   0  0  0  0  0  0  0  0  0  0  0  0
    4.0826  142.7953   58.3179 H   0  0  0  0  0  0  0  0  0  0  0  0
    3.9041  145.4301   56.4481 C   0  0  0  0  0  0  0  0  0  0  0  0
    4.2734  146.1361   57.1757 H   0  0  0  0  0  0  0  0  0  0  0  0
    1.8891  149.2171   52.6618 C   0  0  0  0  0  0  0  0  0  0  0  0
    2.7501  148.4021   51.9633 O   0  0  0  0  0  0  0  0  0  0  0  0
    2.1418  147.3105   51.2750 C   0  0  0  0  0  0  0  0  0  0  0  0
    1.4525  146.7894   51.9441 H   0  0  0  0  0  0  0  0  0  0  0  0
    1.5974  147.6659   50.3974 H   0  0  0  0  0  0  0  0  0  0  0  0
    2.9095  146.6028   50.9478 H   0  0  0  0  0  0  0  0  0  0  0  0
  1  2  1  0
  2  3  2  0
  3  4  1  0
  3  5  1  0
  5  6  1  0
  6  7  1  0
  7  8  1  0
  7  9  1  0
  7 10  1  0
  5 11  2  0
 11 12  1  0
 11 13  1  0
 13 14  1  0
 14 15  1  0
 14 16  1  0
 14 17  1  0
 17 18  2  0
 17 19  1  0
 19 20  1  0
 19 21  1  0
 21 22  2  0
 22 23  1  0
 23 24  1  0
 24 25  2  0
 24 26  1  0
 26 27  1  0
 26 28  1  0
 28 29  1  0
 28 30  1  0
 28 31  1  0
 23 32  2  0
 32 33  1  0
 33 34  3  0
 32 35  1  0
 35 36  1  0
 36 37  1  0
 36 38  1  0
 35 39  2  0
 39 40  1  0
 13 41  2  0
 41 42  1  0
 42 43  1  0
 43 44  1  0
 43 45  1  0
 43 46  1  0
 41  2  1  0
 39 21  1  0
M  END
>  <score>  (44) 
6.76648

$$$$

     RDKit          3D

 50 51  0  0  0  0  0  0  0  0999 V2000
    0.7181  140.9242   49.4278 H   0  0  0  0  0  0  0  0  0  0  0  0
    0.6025  141.8970   49.3968 O   0  0  0  0  0  0  0  0  0  0  0  0
    0.9421  142.5472   50.6318 N   0  0  0  0  0  0  0  0  0  0  0  0
    1.0076  143.5639   50.6304 H   0  0  0  0  0  0  0  0  0  0  0  0
    1.1898  141.9156   51.8429 C   0  0  0  0  0  0  0  0  0  0  0  0
    1.1499  140.6985   51.9330 O   0  0  0  0  0  0  0  0  0  0  0  0
    1.5692  142.7237   53.0805 C   0  0  0  0  0  0  0  0  0  0  0  0
    1.2118  142.1971   53.9673 H   0  0  0  0  0  0  0  0  0  0  0  0
    1.0602  143.7006   53.0393 H   0  0  0  0  0  0  0  0  0  0  0  0
    3.1120  142.8755   53.1802 C   0  0  0  0  0  0  0  0  0  0  0  0
    3.4850  143.3824   52.2844 H   0  0  0  0  0  0  0  0  0  0  0  0
    3.6157  141.8995   53.2142 H   0  0  0  0  0  0  0  0  0  0  0  0
    3.4842  143.7296   54.3701 C   0  0  0  0  0  0  0  0  0  0  0  0
    3.6030  145.0196   54.0824 N   0  0  0  0  0  0  0  0  0  0  0  0
    3.7747  145.8696   55.0591 C   0  0  0  0  0  0  0  0  0  0  0  0
    3.7143  147.1077   54.5540 N   0  0  0  0  0  0  0  0  0  0  0  0
    3.5309  147.1419   53.5622 H   0  0  0  0  0  0  0  0  0  0  0  0
    3.6554  148.2496   55.2814 C   0  0  0  0  0  0  0  0  0  0  0  0
    3.7820  148.2207   56.4943 O   0  0  0  0  0  0  0  0  0  0  0  0
    3.6331  149.5666   54.5306 C   0  0  0  0  0  0  0  0  0  0  0  0
    4.4373  149.5601   53.7892 H   0  0  0  0  0  0  0  0  0  0  0  0
    3.8109  150.3739   55.2415 H   0  0  0  0  0  0  0  0  0  0  0  0
    2.3042  149.8300   53.8757 C   0  0  0  0  0  0  0  0  0  0  0  0
    1.4639  150.7246   54.5452 C   0  0  0  0  0  0  0  0  0  0  0  0
    1.7776  151.1551   55.4923 H   0  0  0  0  0  0  0  0  0  0  0  0
    0.2240  151.0816   54.0225 C   0  0  0  0  0  0  0  0  0  0  0  0
   -0.5328  152.0052   54.6909 O   0  0  0  0  0  0  0  0  0  0  0  0
   -1.5177  151.3983   55.5301 C   0  0  0  0  0  0  0  0  0  0  0  0
   -2.2846  150.9062   54.9239 H   0  0  0  0  0  0  0  0  0  0  0  0
   -1.9989  152.1604   56.1501 H   0  0  0  0  0  0  0  0  0  0  0  0
   -1.0578  150.6574   56.1906 H   0  0  0  0  0  0  0  0  0  0  0  0
   -0.2207  150.4719   52.8391 C   0  0  0  0  0  0  0  0  0  0  0  0
   -1.9576  150.8583   52.1302 Br  0  0  0  0  0  0  0  0  0  0  0  0
    0.6019  149.5472   52.1790 C   0  0  0  0  0  0  0  0  0  0  0  0
    0.2370  149.0714   51.2751 H   0  0  0  0  0  0  0  0  0  0  0  0
    1.8801  149.2211   52.6716 C   0  0  0  0  0  0  0  0  0  0  0  0
    2.7049  148.3204   52.0294 O   0  0  0  0  0  0  0  0  0  0  0  0
    2.0613  147.3046   51.2382 C   0  0  0  0  0  0  0  0  0  0  0  0
    1.5261  147.7345   50.3845 H   0  0  0  0  0  0  0  0  0  0  0  0
    1.3498  146.7399   51.8492 H   0  0  0  0  0  0  0  0  0  0  0  0
    2.8104  146.6039   50.8539 H   0  0  0  0  0  0  0  0  0  0  0  0
    3.8915  145.5299   56.3748 C   0  0  0  0  0  0  0  0  0  0  0  0
    4.0406  146.2753   57.1401 H   0  0  0  0  0  0  0  0  0  0  0  0
    3.7865  144.2041   56.6678 C   0  0  0  0  0  0  0  0  0  0  0  0
    3.9057  143.8659   57.9688 N   0  0  0  0  0  0  0  0  0  0  0  0
    4.3226  144.5744   58.5701 H   0  0  0  0  0  0  0  0  0  0  0  0
    4.1008  142.8871   58.1638 H   0  0  0  0  0  0  0  0  0  0  0  0
    3.5589  143.2670   55.6803 C   0  0  0  0  0  0  0  0  0  0  0  0
    3.3482  141.8916   55.9873 C   0  0  0  0  0  0  0  0  0  0  0  0
    3.1581  140.7640   56.2066 N   0  0  0  0  0  0  0  0  0  0  0  0
  1  2  1  0
  2  3  1  0
  3  4  1  0
  3  5  1  0
  5  6  2  0
  5  7  1  0
  7  8  1  0
  7  9  1  0
  7 10  1  0
 10 11  1  0
 10 12  1  0
 10 13  1  0
 13 14  2  0
 14 15  1  0
 15 16  1  0
 16 17  1  0
 16 18  1  0
 18 19  2  0
 18 20  1  0
 20 21  1  0
 20 22  1  0
 20 23  1  0
 23 24  2  0
 24 25  1  0
 24 26  1  0
 26 27  1  0
 27 28  1  0
 28 29  1  0
 28 30  1  0
 28 31  1  0
 26 32  2  0
 32 33  1  0
 32 34  1  0
 34 35  1  0
 34 36  2  0
 36 37  1  0
 37 38  1  0
 38 39  1  0
 38 40  1  0
 38 41  1  0
 15 42  2  0
 42 43  1  0
 42 44  1  0
 44 45  1  0
 45 46  1  0
 45 47  1  0
 44 48  2  0
 48 49  1  0
 49 50  3  0
 48 13  1  0
 36 23  1  0
M  END
>  <score>  (45) 
6.76689

$$$$

     RDKit          3D

 47 48  0  0  0  0  0  0  0  0999 V2000
    0.3082  149.1989   51.2503 H   0  0  0  0  0  0  0  0  0  0  0  0
    0.6574  149.6039   52.1949 C   0  0  0  0  0  0  0  0  0  0  0  0
   -0.1463  150.4976   52.9350 C   0  0  0  0  0  0  0  0  0  0  0  0
   -1.8707  150.9849   52.2782 Br  0  0  0  0  0  0  0  0  0  0  0  0
    0.3324  151.0575   54.1305 C   0  0  0  0  0  0  0  0  0  0  0  0
   -0.3783  151.9766   54.8591 O   0  0  0  0  0  0  0  0  0  0  0  0
   -1.4256  151.4033   55.6459 C   0  0  0  0  0  0  0  0  0  0  0  0
   -1.0126  150.7010   56.3731 H   0  0  0  0  0  0  0  0  0  0  0  0
   -1.9397  152.2029   56.1890 H   0  0  0  0  0  0  0  0  0  0  0  0
   -2.1526  150.8749   55.0186 H   0  0  0  0  0  0  0  0  0  0  0  0
    1.5938  150.6874   54.5735 C   0  0  0  0  0  0  0  0  0  0  0  0
    1.9884  151.1454   55.4710 H   0  0  0  0  0  0  0  0  0  0  0  0
    2.3777  149.7789   53.8607 C   0  0  0  0  0  0  0  0  0  0  0  0
    3.7246  149.4740   54.4031 C   0  0  0  0  0  0  0  0  0  0  0  0
    3.9926  150.3523   54.9793 H   0  0  0  0  0  0  0  0  0  0  0  0
    4.4077  149.3604   53.5580 H   0  0  0  0  0  0  0  0  0  0  0  0
    3.7477  148.2083   55.2658 C   0  0  0  0  0  0  0  0  0  0  0  0
    3.8480  148.2616   56.4840 O   0  0  0  0  0  0  0  0  0  0  0  0
    3.7089  146.9955   54.6363 N   0  0  0  0  0  0  0  0  0  0  0  0
    3.5178  146.9567   53.6461 H   0  0  0  0  0  0  0  0  0  0  0  0
    3.5581  145.7922   55.2120 C   0  0  0  0  0  0  0  0  0  0  0  0
    3.1091  144.9583   54.2926 N   0  0  0  0  0  0  0  0  0  0  0  0
    2.9839  143.6722   54.6072 C   0  0  0  0  0  0  0  0  0  0  0  0
    2.3874  142.7707   53.5767 C   0  0  0  0  0  0  0  0  0  0  0  0
    1.8242  143.3780   52.8623 H   0  0  0  0  0  0  0  0  0  0  0  0
    1.7088  142.0934   54.0845 H   0  0  0  0  0  0  0  0  0  0  0  0
    3.4332  141.9743   52.8313 C   0  0  0  0  0  0  0  0  0  0  0  0
    2.9620  141.2502   52.1582 H   0  0  0  0  0  0  0  0  0  0  0  0
    4.0873  141.4287   53.5227 H   0  0  0  0  0  0  0  0  0  0  0  0
    4.1633  142.9436   52.0351 N   0  0  0  0  0  0  0  0  0  0  0  0
    4.6967  143.5748   52.6309 H   0  0  0  0  0  0  0  0  0  0  0  0
    4.7847  142.4770   51.3749 H   0  0  0  0  0  0  0  0  0  0  0  0
    3.2959  143.1994   55.8750 C   0  0  0  0  0  0  0  0  0  0  0  0
    3.1495  141.8201   56.2135 C   0  0  0  0  0  0  0  0  0  0  0  0
    3.0348  140.6874   56.4492 N   0  0  0  0  0  0  0  0  0  0  0  0
    3.7549  144.1092   56.7965 C   0  0  0  0  0  0  0  0  0  0  0  0
    4.1386  143.7226   58.0242 N   0  0  0  0  0  0  0  0  0  0  0  0
    4.4955  144.4332   58.6591 H   0  0  0  0  0  0  0  0  0  0  0  0
    4.0616  142.7433   58.2928 H   0  0  0  0  0  0  0  0  0  0  0  0
    3.8912  145.4315   56.4930 C   0  0  0  0  0  0  0  0  0  0  0  0
    4.3020  146.1267   57.2158 H   0  0  0  0  0  0  0  0  0  0  0  0
    1.9326  149.2369   52.6495 C   0  0  0  0  0  0  0  0  0  0  0  0
    2.7757  148.4025   51.9493 O   0  0  0  0  0  0  0  0  0  0  0  0
    2.1641  147.2973   51.2816 C   0  0  0  0  0  0  0  0  0  0  0  0
    1.6224  147.6396   50.3943 H   0  0  0  0  0  0  0  0  0  0  0  0
    2.9499  146.5983   50.9736 H   0  0  0  0  0  0  0  0  0  0  0  0
    1.4725  146.7720   51.9509 H   0  0  0  0  0  0  0  0  0  0  0  0
  1  2  1  0
  2  3  2  0
  3  4  1  0
  3  5  1  0
  5  6  1  0
  6  7  1  0
  7  8  1  0
  7  9  1  0
  7 10  1  0
  5 11  2  0
 11 12  1  0
 11 13  1  0
 13 14  1  0
 14 15  1  0
 14 16  1  0
 14 17  1  0
 17 18  2  0
 17 19  1  0
 19 20  1  0
 19 21  1  0
 21 22  2  0
 22 23  1  0
 23 24  1  0
 24 25  1  0
 24 26  1  0
 24 27  1  0
 27 28  1  0
 27 29  1  0
 27 30  1  0
 30 31  1  0
 30 32  1  0
 23 33  2  0
 33 34  1  0
 34 35  3  0
 33 36  1  0
 36 37  1  0
 37 38  1  0
 37 39  1  0
 36 40  2  0
 40 41  1  0
 13 42  2  0
 42 43  1  0
 43 44  1  0
 44 45  1  0
 44 46  1  0
 44 47  1  0
 42  2  1  0
 40 21  1  0
M  END
>  <score>  (46) 
6.76756

$$$$

     RDKit          3D

 45 46  0  0  0  0  0  0  0  0999 V2000
    0.3071  149.2011   51.2526 H   0  0  0  0  0  0  0  0  0  0  0  0
    0.6596  149.6052   52.1965 C   0  0  0  0  0  0  0  0  0  0  0  0
   -0.1437  150.5001   52.9343 C   0  0  0  0  0  0  0  0  0  0  0  0
   -1.8707  150.9838   52.2755 Br  0  0  0  0  0  0  0  0  0  0  0  0
    0.3332  151.0583   54.1318 C   0  0  0  0  0  0  0  0  0  0  0  0
   -0.3789  151.9751   54.8603 O   0  0  0  0  0  0  0  0  0  0  0  0
   -1.4268  151.4047   55.6484 C   0  0  0  0  0  0  0  0  0  0  0  0
   -2.1523  150.8760   55.0237 H   0  0  0  0  0  0  0  0  0  0  0  0
   -1.9433  152.2004   56.1925 H   0  0  0  0  0  0  0  0  0  0  0  0
   -1.0153  150.7038   56.3743 H   0  0  0  0  0  0  0  0  0  0  0  0
    1.5958  150.6923   54.5736 C   0  0  0  0  0  0  0  0  0  0  0  0
    1.9895  151.1469   55.4736 H   0  0  0  0  0  0  0  0  0  0  0  0
    2.3804  149.7894   53.8579 C   0  0  0  0  0  0  0  0  0  0  0  0
    3.7281  149.4865   54.3983 C   0  0  0  0  0  0  0  0  0  0  0  0
    3.9964  150.3661   54.9650 H   0  0  0  0  0  0  0  0  0  0  0  0
    4.4163  149.3615   53.5601 H   0  0  0  0  0  0  0  0  0  0  0  0
    3.7596  148.2387   55.2827 C   0  0  0  0  0  0  0  0  0  0  0  0
    3.8529  148.3010   56.4961 O   0  0  0  0  0  0  0  0  0  0  0  0
    3.7396  147.0241   54.6684 N   0  0  0  0  0  0  0  0  0  0  0  0
    3.5307  146.9799   53.6840 H   0  0  0  0  0  0  0  0  0  0  0  0
    3.5633  145.8408   55.2736 C   0  0  0  0  0  0  0  0  0  0  0  0
    3.0710  145.0332   54.3626 N   0  0  0  0  0  0  0  0  0  0  0  0
    2.9188  143.7174   54.6007 C   0  0  0  0  0  0  0  0  0  0  0  0
    2.4456  142.8437   53.4463 C   0  0  0  0  0  0  0  0  0  0  0  0
    2.5742  141.6220   53.5529 O   0  0  0  0  0  0  0  0  0  0  0  0
    1.9381  143.4715   52.3299 O   0  0  0  0  0  0  0  0  0  0  0  0
    1.4387  142.6497   51.2621 C   0  0  0  0  0  0  0  0  0  0  0  0
    0.5027  142.1721   51.5577 H   0  0  0  0  0  0  0  0  0  0  0  0
    2.1531  141.8727   50.9813 H   0  0  0  0  0  0  0  0  0  0  0  0
    1.2425  143.2638   50.3759 H   0  0  0  0  0  0  0  0  0  0  0  0
    3.2544  143.2288   55.8788 C   0  0  0  0  0  0  0  0  0  0  0  0
    3.1354  141.8444   56.2109 C   0  0  0  0  0  0  0  0  0  0  0  0
    3.0459  140.7136   56.4707 N   0  0  0  0  0  0  0  0  0  0  0  0
    3.7451  144.1240   56.8147 C   0  0  0  0  0  0  0  0  0  0  0  0
    4.1495  143.7195   58.0352 N   0  0  0  0  0  0  0  0  0  0  0  0
    4.0660  142.7427   58.3081 H   0  0  0  0  0  0  0  0  0  0  0  0
    4.5025  144.4235   58.6766 H   0  0  0  0  0  0  0  0  0  0  0  0
    3.9104  145.4511   56.5341 C   0  0  0  0  0  0  0  0  0  0  0  0
    4.3336  146.1319   57.2609 H   0  0  0  0  0  0  0  0  0  0  0  0
    1.9347  149.2385   52.6512 C   0  0  0  0  0  0  0  0  0  0  0  0
    2.7754  148.4021   51.9514 O   0  0  0  0  0  0  0  0  0  0  0  0
    2.1652  147.2960   51.2817 C   0  0  0  0  0  0  0  0  0  0  0  0
    1.6236  147.6357   50.3952 H   0  0  0  0  0  0  0  0  0  0  0  0
    2.9484  146.5963   50.9722 H   0  0  0  0  0  0  0  0  0  0  0  0
    1.4748  146.7693   51.9487 H   0  0  0  0  0  0  0  0  0  0  0  0
  1  2  1  0
  2  3  2  0
  3  4  1  0
  3  5  1  0
  5  6  1  0
  6  7  1  0
  7  8  1  0
  7  9  1  0
  7 10  1  0
  5 11  2  0
 11 12  1  0
 11 13  1  0
 13 14  1  0
 14 15  1  0
 14 16  1  0
 14 17  1  0
 17 18  2  0
 17 19  1  0
 19 20  1  0
 19 21  1  0
 21 22  2  0
 22 23  1  0
 23 24  1  0
 24 25  2  0
 24 26  1  0
 26 27  1  0
 27 28  1  0
 27 29  1  0
 27 30  1  0
 23 31  2  0
 31 32  1  0
 32 33  3  0
 31 34  1  0
 34 35  1  0
 35 36  1  0
 35 37  1  0
 34 38  2  0
 38 39  1  0
 13 40  2  0
 40 41  1  0
 41 42  1  0
 42 43  1  0
 42 44  1  0
 42 45  1  0
 40  2  1  0
 38 21  1  0
M  END
>  <score>  (47) 
6.7899

$$$$

     RDKit          3D

 49 50  0  0  0  0  0  0  0  0999 V2000
    0.3106  149.2014   51.2565 H   0  0  0  0  0  0  0  0  0  0  0  0
    0.6594  149.6068   52.1973 C   0  0  0  0  0  0  0  0  0  0  0  0
   -0.1446  150.4981   52.9355 C   0  0  0  0  0  0  0  0  0  0  0  0
   -1.8678  150.9843   52.2788 Br  0  0  0  0  0  0  0  0  0  0  0  0
    0.3338  151.0565   54.1310 C   0  0  0  0  0  0  0  0  0  0  0  0
   -0.3773  151.9759   54.8583 O   0  0  0  0  0  0  0  0  0  0  0  0
   -1.4255  151.4039   55.6460 C   0  0  0  0  0  0  0  0  0  0  0  0
   -1.9407  152.2017   56.1907 H   0  0  0  0  0  0  0  0  0  0  0  0
   -2.1532  150.8744   55.0210 H   0  0  0  0  0  0  0  0  0  0  0  0
   -1.0139  150.7021   56.3739 H   0  0  0  0  0  0  0  0  0  0  0  0
    1.5966  150.6900   54.5711 C   0  0  0  0  0  0  0  0  0  0  0  0
    1.9886  151.1469   55.4718 H   0  0  0  0  0  0  0  0  0  0  0  0
    2.3765  149.7806   53.8557 C   0  0  0  0  0  0  0  0  0  0  0  0
    3.7201  149.4684   54.3960 C   0  0  0  0  0  0  0  0  0  0  0  0
    4.4122  149.3592   53.5562 H   0  0  0  0  0  0  0  0  0  0  0  0
    3.9773  150.3510   54.9729 H   0  0  0  0  0  0  0  0  0  0  0  0
    3.7478  148.2028   55.2655 C   0  0  0  0  0  0  0  0  0  0  0  0
    3.8496  148.2558   56.4791 O   0  0  0  0  0  0  0  0  0  0  0  0
    3.7127  146.9877   54.6444 N   0  0  0  0  0  0  0  0  0  0  0  0
    3.5187  146.9483   53.6579 H   0  0  0  0  0  0  0  0  0  0  0  0
    3.5528  145.7915   55.2296 C   0  0  0  0  0  0  0  0  0  0  0  0
    3.0854  144.9673   54.3167 N   0  0  0  0  0  0  0  0  0  0  0  0
    2.9533  143.6823   54.6319 C   0  0  0  0  0  0  0  0  0  0  0  0
    2.3885  142.7996   53.5678 C   0  0  0  0  0  0  0  0  0  0  0  0
    1.8866  141.9733   54.0651 H   0  0  0  0  0  0  0  0  0  0  0  0
    1.6369  143.3736   53.0110 H   0  0  0  0  0  0  0  0  0  0  0  0
    3.4629  142.2669   52.6068 C   0  0  0  0  0  0  0  0  0  0  0  0
    2.9689  141.7240   51.7945 H   0  0  0  0  0  0  0  0  0  0  0  0
    4.0091  143.1087   52.1654 H   0  0  0  0  0  0  0  0  0  0  0  0
    4.3481  141.3779   53.3021 O   0  0  0  0  0  0  0  0  0  0  0  0
    5.3753  140.7769   52.5002 C   0  0  0  0  0  0  0  0  0  0  0  0
    6.0177  141.5107   52.0063 H   0  0  0  0  0  0  0  0  0  0  0  0
    4.9322  140.1416   51.7418 H   0  0  0  0  0  0  0  0  0  0  0  0
    6.0015  140.1507   53.1311 H   0  0  0  0  0  0  0  0  0  0  0  0
    3.2786  143.2017   55.8906 C   0  0  0  0  0  0  0  0  0  0  0  0
    3.1461  141.8203   56.2209 C   0  0  0  0  0  0  0  0  0  0  0  0
    3.0342  140.6866   56.4541 N   0  0  0  0  0  0  0  0  0  0  0  0
    3.7501  144.1083   56.8040 C   0  0  0  0  0  0  0  0  0  0  0  0
    4.1414  143.7229   58.0258 N   0  0  0  0  0  0  0  0  0  0  0  0
    4.4978  144.4331   58.6606 H   0  0  0  0  0  0  0  0  0  0  0  0
    4.0622  142.7423   58.2886 H   0  0  0  0  0  0  0  0  0  0  0  0
    3.8909  145.4278   56.5033 C   0  0  0  0  0  0  0  0  0  0  0  0
    4.3055  146.1218   57.2185 H   0  0  0  0  0  0  0  0  0  0  0  0
    1.9334  149.2404   52.6471 C   0  0  0  0  0  0  0  0  0  0  0  0
    2.7769  148.4038   51.9524 O   0  0  0  0  0  0  0  0  0  0  0  0
    2.1649  147.2991   51.2829 C   0  0  0  0  0  0  0  0  0  0  0  0
    1.6222  147.6385   50.3954 H   0  0  0  0  0  0  0  0  0  0  0  0
    1.4731  146.7713   51.9494 H   0  0  0  0  0  0  0  0  0  0  0  0
    2.9490  146.5993   50.9737 H   0  0  0  0  0  0  0  0  0  0  0  0
  1  2  1  0
  2  3  2  0
  3  4  1  0
  3  5  1  0
  5  6  1  0
  6  7  1  0
  7  8  1  0
  7  9  1  0
  7 10  1  0
  5 11  2  0
 11 12  1  0
 11 13  1  0
 13 14  1  0
 14 15  1  0
 14 16  1  0
 14 17  1  0
 17 18  2  0
 17 19  1  0
 19 20  1  0
 19 21  1  0
 21 22  2  0
 22 23  1  0
 23 24  1  0
 24 25  1  0
 24 26  1  0
 24 27  1  0
 27 28  1  0
 27 29  1  0
 27 30  1  0
 30 31  1  0
 31 32  1  0
 31 33  1  0
 31 34  1  0
 23 35  2  0
 35 36  1  0
 36 37  3  0
 35 38  1  0
 38 39  1  0
 39 40  1  0
 39 41  1  0
 38 42  2  0
 42 43  1  0
 13 44  2  0
 44 45  1  0
 45 46  1  0
 46 47  1  0
 46 48  1  0
 46 49  1  0
 44  2  1  0
 42 21  1  0
M  END
>  <score>  (48) 
6.79373

$$$$

     RDKit          3D

 45 46  0  0  0  0  0  0  0  0999 V2000
    0.7111  140.6577   50.2409 H   0  0  0  0  0  0  0  0  0  0  0  0
    1.0761  141.3626   50.9549 C   0  0  0  0  0  0  0  0  0  0  0  0
    1.5029  142.2265   51.6981 C   0  0  0  0  0  0  0  0  0  0  0  0
    2.0367  143.3035   52.5343 C   0  0  0  0  0  0  0  0  0  0  0  0
    2.9114  143.7482   52.0501 H   0  0  0  0  0  0  0  0  0  0  0  0
    1.2819  144.0855   52.6562 H   0  0  0  0  0  0  0  0  0  0  0  0
    2.3988  142.7674   53.8031 O   0  0  0  0  0  0  0  0  0  0  0  0
    2.9104  143.6795   54.6780 C   0  0  0  0  0  0  0  0  0  0  0  0
    3.0662  144.9502   54.3101 N   0  0  0  0  0  0  0  0  0  0  0  0
    3.5580  145.7868   55.1846 C   0  0  0  0  0  0  0  0  0  0  0  0
    3.6975  146.9637   54.5731 N   0  0  0  0  0  0  0  0  0  0  0  0
    3.4352  146.9486   53.5992 H   0  0  0  0  0  0  0  0  0  0  0  0
    3.7353  148.1575   55.2168 C   0  0  0  0  0  0  0  0  0  0  0  0
    3.8143  148.1974   56.4293 O   0  0  0  0  0  0  0  0  0  0  0  0
    3.6965  149.4420   54.4137 C   0  0  0  0  0  0  0  0  0  0  0  0
    3.9669  150.2496   55.0754 H   0  0  0  0  0  0  0  0  0  0  0  0
    4.4211  149.3958   53.6017 H   0  0  0  0  0  0  0  0  0  0  0  0
    2.3455  149.7649   53.8688 C   0  0  0  0  0  0  0  0  0  0  0  0
    1.5706  150.6767   54.5801 C   0  0  0  0  0  0  0  0  0  0  0  0
    1.9538  151.1267   55.4973 H   0  0  0  0  0  0  0  0  0  0  0  0
    0.3143  151.0355   54.1070 C   0  0  0  0  0  0  0  0  0  0  0  0
   -0.3813  151.9730   54.8152 O   0  0  0  0  0  0  0  0  0  0  0  0
   -1.4203  151.4059   55.6142 C   0  0  0  0  0  0  0  0  0  0  0  0
   -2.1469  150.8848   54.9860 H   0  0  0  0  0  0  0  0  0  0  0  0
   -1.0080  150.6910   56.3284 H   0  0  0  0  0  0  0  0  0  0  0  0
   -1.9360  152.1952   56.1703 H   0  0  0  0  0  0  0  0  0  0  0  0
   -0.1757  150.4793   52.9096 C   0  0  0  0  0  0  0  0  0  0  0  0
   -1.9092  150.9804   52.2656 Br  0  0  0  0  0  0  0  0  0  0  0  0
    0.6258  149.5803   52.1858 C   0  0  0  0  0  0  0  0  0  0  0  0
    0.2893  149.1823   51.2366 H   0  0  0  0  0  0  0  0  0  0  0  0
    1.8977  149.2220   52.6567 C   0  0  0  0  0  0  0  0  0  0  0  0
    2.7597  148.4063   51.9635 O   0  0  0  0  0  0  0  0  0  0  0  0
    2.1501  147.3095   51.2773 C   0  0  0  0  0  0  0  0  0  0  0  0
    2.9182  146.5999   50.9555 H   0  0  0  0  0  0  0  0  0  0  0  0
    1.4585  146.7844   51.9425 H   0  0  0  0  0  0  0  0  0  0  0  0
    1.6037  147.6516   50.3937 H   0  0  0  0  0  0  0  0  0  0  0  0
    3.8942  145.4614   56.4700 C   0  0  0  0  0  0  0  0  0  0  0  0
    4.2926  146.1677   57.1860 H   0  0  0  0  0  0  0  0  0  0  0  0
    3.7500  144.1514   56.7983 C   0  0  0  0  0  0  0  0  0  0  0  0
    4.1411  143.7691   58.0196 N   0  0  0  0  0  0  0  0  0  0  0  0
    4.0673  142.7899   58.2748 H   0  0  0  0  0  0  0  0  0  0  0  0
    4.4880  144.4637   58.6743 H   0  0  0  0  0  0  0  0  0  0  0  0
    3.2605  143.2302   55.9186 C   0  0  0  0  0  0  0  0  0  0  0  0
    3.1462  141.8423   56.2322 C   0  0  0  0  0  0  0  0  0  0  0  0
    3.0625  140.7042   56.4495 N   0  0  0  0  0  0  0  0  0  0  0  0
  1  2  1  0
  2  3  3  0
  3  4  1  0
  4  5  1  0
  4  6  1  0
  4  7  1  0
  7  8  1  0
  8  9  2  0
  9 10  1  0
 10 11  1  0
 11 12  1  0
 11 13  1  0
 13 14  2  0
 13 15  1  0
 15 16  1  0
 15 17  1  0
 15 18  1  0
 18 19  2  0
 19 20  1  0
 19 21  1  0
 21 22  1  0
 22 23  1  0
 23 24  1  0
 23 25  1  0
 23 26  1  0
 21 27  2  0
 27 28  1  0
 27 29  1  0
 29 30  1  0
 29 31  2  0
 31 32  1  0
 32 33  1  0
 33 34  1  0
 33 35  1  0
 33 36  1  0
 10 37  2  0
 37 38  1  0
 37 39  1  0
 39 40  1  0
 40 41  1  0
 40 42  1  0
 39 43  2  0
 43 44  1  0
 44 45  3  0
 43  8  1  0
 31 18  1  0
M  END
>  <score>  (49) 
6.79758

$$$$

     RDKit          3D

 42 43  0  0  0  0  0  0  0  0999 V2000
    0.9364  144.2155   51.3073 H   0  0  0  0  0  0  0  0  0  0  0  0
    1.7005  143.5529   51.4229 N   0  0  0  0  0  0  0  0  0  0  0  0
    2.0457  143.2055   52.5926 N   0  0  0  0  0  4  0  0  0  0  0  0
    2.3903  142.7742   53.7357 N   0  0  0  0  0  0  0  0  0  0  0  0
    2.9057  143.6727   54.6597 C   0  0  0  0  0  0  0  0  0  0  0  0
    3.0533  144.9617   54.3276 N   0  0  0  0  0  0  0  0  0  0  0  0
    3.5460  145.7970   55.2224 C   0  0  0  0  0  0  0  0  0  0  0  0
    3.7065  146.9967   54.6370 N   0  0  0  0  0  0  0  0  0  0  0  0
    3.5259  146.9645   53.6443 H   0  0  0  0  0  0  0  0  0  0  0  0
    3.7503  148.2100   55.2636 C   0  0  0  0  0  0  0  0  0  0  0  0
    3.8485  148.2582   56.4820 O   0  0  0  0  0  0  0  0  0  0  0  0
    3.7292  149.4751   54.4012 C   0  0  0  0  0  0  0  0  0  0  0  0
    3.9984  150.3516   54.9771 H   0  0  0  0  0  0  0  0  0  0  0  0
    4.4156  149.3601   53.5590 H   0  0  0  0  0  0  0  0  0  0  0  0
    2.3822  149.7835   53.8590 C   0  0  0  0  0  0  0  0  0  0  0  0
    1.5974  150.6909   54.5738 C   0  0  0  0  0  0  0  0  0  0  0  0
    1.9902  151.1477   55.4731 H   0  0  0  0  0  0  0  0  0  0  0  0
    0.3340  151.0589   54.1315 C   0  0  0  0  0  0  0  0  0  0  0  0
   -0.3803  151.9765   54.8596 O   0  0  0  0  0  0  0  0  0  0  0  0
   -1.4274  151.4045   55.6486 C   0  0  0  0  0  0  0  0  0  0  0  0
   -2.1549  150.8754   55.0231 H   0  0  0  0  0  0  0  0  0  0  0  0
   -1.9424  152.2034   56.1922 H   0  0  0  0  0  0  0  0  0  0  0  0
   -1.0139  150.7034   56.3763 H   0  0  0  0  0  0  0  0  0  0  0  0
   -0.1432  150.4994   52.9349 C   0  0  0  0  0  0  0  0  0  0  0  0
   -1.8678  150.9865   52.2781 Br  0  0  0  0  0  0  0  0  0  0  0  0
    0.6605  149.6053   52.1952 C   0  0  0  0  0  0  0  0  0  0  0  0
    0.3100  149.2025   51.2503 H   0  0  0  0  0  0  0  0  0  0  0  0
    1.9354  149.2377   52.6506 C   0  0  0  0  0  0  0  0  0  0  0  0
    2.7768  148.3969   51.9553 O   0  0  0  0  0  0  0  0  0  0  0  0
    2.1648  147.2971   51.2802 C   0  0  0  0  0  0  0  0  0  0  0  0
    2.9498  146.5969   50.9727 H   0  0  0  0  0  0  0  0  0  0  0  0
    1.4699  146.7727   51.9464 H   0  0  0  0  0  0  0  0  0  0  0  0
    1.6272  147.6421   50.3915 H   0  0  0  0  0  0  0  0  0  0  0  0
    3.8931  145.4318   56.4971 C   0  0  0  0  0  0  0  0  0  0  0  0
    4.3101  146.1302   57.2107 H   0  0  0  0  0  0  0  0  0  0  0  0
    3.7534  144.1110   56.8145 C   0  0  0  0  0  0  0  0  0  0  0  0
    4.1541  143.7312   58.0415 N   0  0  0  0  0  0  0  0  0  0  0  0
    4.5069  144.4441   58.6797 H   0  0  0  0  0  0  0  0  0  0  0  0
    4.0745  142.7534   58.3212 H   0  0  0  0  0  0  0  0  0  0  0  0
    3.2638  143.1953   55.9125 C   0  0  0  0  0  0  0  0  0  0  0  0
    3.1451  141.8112   56.2552 C   0  0  0  0  0  0  0  0  0  0  0  0
    3.0389  140.6749   56.4773 N   0  0  0  0  0  0  0  0  0  0  0  0
  1  2  1  0
  2  3  2  0
  3  4  2  0
  4  5  1  0
  5  6  2  0
  6  7  1  0
  7  8  1  0
  8  9  1  0
  8 10  1  0
 10 11  2  0
 10 12  1  0
 12 13  1  0
 12 14  1  0
 12 15  1  0
 15 16  2  0
 16 17  1  0
 16 18  1  0
 18 19  1  0
 19 20  1  0
 20 21  1  0
 20 22  1  0
 20 23  1  0
 18 24  2  0
 24 25  1  0
 24 26  1  0
 26 27  1  0
 26 28  2  0
 28 29  1  0
 29 30  1  0
 30 31  1  0
 30 32  1  0
 30 33  1  0
  7 34  2  0
 34 35  1  0
 34 36  1  0
 36 37  1  0
 37 38  1  0
 37 39  1  0
 36 40  2  0
 40 41  1  0
 41 42  3  0
 40  5  1  0
 28 15  1  0
M  CHG  1   3   1
M  END
>  <score>  (50) 
6.7984

$$$$

     RDKit          3D

 45 46  0  0  0  0  0  0  0  0999 V2000
    0.3083  149.2031   51.2549 H   0  0  0  0  0  0  0  0  0  0  0  0
    0.6605  149.6080   52.1969 C   0  0  0  0  0  0  0  0  0  0  0  0
   -0.1427  150.5011   52.9360 C   0  0  0  0  0  0  0  0  0  0  0  0
   -1.8674  150.9833   52.2757 Br  0  0  0  0  0  0  0  0  0  0  0  0
    0.3349  151.0596   54.1326 C   0  0  0  0  0  0  0  0  0  0  0  0
   -0.3784  151.9765   54.8621 O   0  0  0  0  0  0  0  0  0  0  0  0
   -1.4271  151.4046   55.6499 C   0  0  0  0  0  0  0  0  0  0  0  0
   -1.9443  152.2013   56.1944 H   0  0  0  0  0  0  0  0  0  0  0  0
   -2.1540  150.8748   55.0247 H   0  0  0  0  0  0  0  0  0  0  0  0
   -1.0149  150.7036   56.3778 H   0  0  0  0  0  0  0  0  0  0  0  0
    1.5989  150.6919   54.5733 C   0  0  0  0  0  0  0  0  0  0  0  0
    1.9917  151.1467   55.4739 H   0  0  0  0  0  0  0  0  0  0  0  0
    2.3835  149.7849   53.8580 C   0  0  0  0  0  0  0  0  0  0  0  0
    3.7307  149.4758   54.3985 C   0  0  0  0  0  0  0  0  0  0  0  0
    4.0003  150.3567   54.9682 H   0  0  0  0  0  0  0  0  0  0  0  0
    4.4175  149.3547   53.5579 H   0  0  0  0  0  0  0  0  0  0  0  0
    3.7524  148.2174   55.2724 C   0  0  0  0  0  0  0  0  0  0  0  0
    3.8510  148.2773   56.4889 O   0  0  0  0  0  0  0  0  0  0  0  0
    3.7089  147.0042   54.6502 N   0  0  0  0  0  0  0  0  0  0  0  0
    3.5327  146.9732   53.6578 H   0  0  0  0  0  0  0  0  0  0  0  0
    3.5435  145.8015   55.2328 C   0  0  0  0  0  0  0  0  0  0  0  0
    3.0596  144.9747   54.3297 N   0  0  0  0  0  0  0  0  0  0  0  0
    2.9268  143.6894   54.6478 C   0  0  0  0  0  0  0  0  0  0  0  0
    2.3851  142.7855   53.5764 C   0  0  0  0  0  0  0  0  0  0  0  0
    1.7438  142.0527   54.0630 H   0  0  0  0  0  0  0  0  0  0  0  0
    1.7687  143.3789   52.8930 H   0  0  0  0  0  0  0  0  0  0  0  0
    3.4929  142.0791   52.7777 C   0  0  0  0  0  0  0  0  0  0  0  0
    4.1366  142.8182   52.2836 H   0  0  0  0  0  0  0  0  0  0  0  0
    4.1042  141.4551   53.4403 H   0  0  0  0  0  0  0  0  0  0  0  0
    3.0576  141.4350   52.0050 H   0  0  0  0  0  0  0  0  0  0  0  0
    3.2649  143.2077   55.9052 C   0  0  0  0  0  0  0  0  0  0  0  0
    3.1393  141.8241   56.2291 C   0  0  0  0  0  0  0  0  0  0  0  0
    3.0366  140.6863   56.4497 N   0  0  0  0  0  0  0  0  0  0  0  0
    3.7490  144.1129   56.8157 C   0  0  0  0  0  0  0  0  0  0  0  0
    4.1502  143.7189   58.0356 N   0  0  0  0  0  0  0  0  0  0  0  0
    4.5030  144.4261   58.6752 H   0  0  0  0  0  0  0  0  0  0  0  0
    4.0628  142.7406   58.3034 H   0  0  0  0  0  0  0  0  0  0  0  0
    3.8942  145.4344   56.5067 C   0  0  0  0  0  0  0  0  0  0  0  0
    4.3162  146.1304   57.2197 H   0  0  0  0  0  0  0  0  0  0  0  0
    1.9361  149.2403   52.6490 C   0  0  0  0  0  0  0  0  0  0  0  0
    2.7769  148.4022   51.9504 O   0  0  0  0  0  0  0  0  0  0  0  0
    2.1661  147.2963   51.2815 C   0  0  0  0  0  0  0  0  0  0  0  0
    2.9504  146.5965   50.9723 H   0  0  0  0  0  0  0  0  0  0  0  0
    1.4752  146.7689   51.9491 H   0  0  0  0  0  0  0  0  0  0  0  0
    1.6239  147.6353   50.3937 H   0  0  0  0  0  0  0  0  0  0  0  0
  1  2  1  0
  2  3  2  0
  3  4  1  0
  3  5  1  0
  5  6  1  0
  6  7  1  0
  7  8  1  0
  7  9  1  0
  7 10  1  0
  5 11  2  0
 11 12  1  0
 11 13  1  0
 13 14  1  0
 14 15  1  0
 14 16  1  0
 14 17  1  0
 17 18  2  0
 17 19  1  0
 19 20  1  0
 19 21  1  0
 21 22  2  0
 22 23  1  0
 23 24  1  0
 24 25  1  0
 24 26  1  0
 24 27  1  0
 27 28  1  0
 27 29  1  0
 27 30  1  0
 23 31  2  0
 31 32  1  0
 32 33  3  0
 31 34  1  0
 34 35  1  0
 35 36  1  0
 35 37  1  0
 34 38  2  0
 38 39  1  0
 13 40  2  0
 40 41  1  0
 41 42  1  0
 42 43  1  0
 42 44  1  0
 42 45  1  0
 40  2  1  0
 38 21  1  0
M  END
>  <score>  (51) 
6.80563

$$$$

     RDKit          3D

 43 44  0  0  0  0  0  0  0  0999 V2000
    0.3075  149.2025   51.2525 H   0  0  0  0  0  0  0  0  0  0  0  0
    0.6596  149.6070   52.1962 C   0  0  0  0  0  0  0  0  0  0  0  0
   -0.1441  150.5007   52.9356 C   0  0  0  0  0  0  0  0  0  0  0  0
   -1.8698  150.9848   52.2768 Br  0  0  0  0  0  0  0  0  0  0  0  0
    0.3351  151.0585   54.1328 C   0  0  0  0  0  0  0  0  0  0  0  0
   -0.3791  151.9760   54.8605 O   0  0  0  0  0  0  0  0  0  0  0  0
   -1.4261  151.4040   55.6480 C   0  0  0  0  0  0  0  0  0  0  0  0
   -2.1528  150.8750   55.0229 H   0  0  0  0  0  0  0  0  0  0  0  0
   -1.9419  152.2014   56.1918 H   0  0  0  0  0  0  0  0  0  0  0  0
   -1.0134  150.7028   56.3751 H   0  0  0  0  0  0  0  0  0  0  0  0
    1.5976  150.6881   54.5748 C   0  0  0  0  0  0  0  0  0  0  0  0
    1.9928  151.1415   55.4740 H   0  0  0  0  0  0  0  0  0  0  0  0
    2.3821  149.7847   53.8591 C   0  0  0  0  0  0  0  0  0  0  0  0
    3.7269  149.4752   54.4001 C   0  0  0  0  0  0  0  0  0  0  0  0
    4.4146  149.3566   53.5610 H   0  0  0  0  0  0  0  0  0  0  0  0
    3.9998  150.3504   54.9778 H   0  0  0  0  0  0  0  0  0  0  0  0
    3.7470  148.2143   55.2671 C   0  0  0  0  0  0  0  0  0  0  0  0
    3.8505  148.2719   56.4829 O   0  0  0  0  0  0  0  0  0  0  0  0
    3.7150  147.0007   54.6452 N   0  0  0  0  0  0  0  0  0  0  0  0
    3.5202  146.9569   53.6566 H   0  0  0  0  0  0  0  0  0  0  0  0
    3.5479  145.8065   55.2423 C   0  0  0  0  0  0  0  0  0  0  0  0
    3.0460  144.9770   54.3560 N   0  0  0  0  0  0  0  0  0  0  0  0
    2.8922  143.6962   54.6904 C   0  0  0  0  0  0  0  0  0  0  0  0
    2.2347  142.6268   53.4489 S   0  0  0  0  0  0  0  0  0  0  0  0
    3.8024  142.1540   52.6101 C   0  0  0  0  0  0  0  0  0  0  0  0
    3.6128  141.5028   51.7527 H   0  0  0  0  0  0  0  0  0  0  0  0
    4.4471  141.6076   53.3054 H   0  0  0  0  0  0  0  0  0  0  0  0
    4.3180  143.0507   52.2488 H   0  0  0  0  0  0  0  0  0  0  0  0
    3.2554  143.2112   55.9339 C   0  0  0  0  0  0  0  0  0  0  0  0
    3.1388  141.8265   56.2527 C   0  0  0  0  0  0  0  0  0  0  0  0
    3.0408  140.6839   56.4537 N   0  0  0  0  0  0  0  0  0  0  0  0
    3.7523  144.1214   56.8270 C   0  0  0  0  0  0  0  0  0  0  0  0
    4.1625  143.7244   58.0380 N   0  0  0  0  0  0  0  0  0  0  0  0
    4.5042  144.4306   58.6838 H   0  0  0  0  0  0  0  0  0  0  0  0
    4.0619  142.7466   58.3036 H   0  0  0  0  0  0  0  0  0  0  0  0
    3.9001  145.4417   56.5150 C   0  0  0  0  0  0  0  0  0  0  0  0
    4.3206  146.1358   57.2257 H   0  0  0  0  0  0  0  0  0  0  0  0
    1.9357  149.2386   52.6498 C   0  0  0  0  0  0  0  0  0  0  0  0
    2.7759  148.4024   51.9470 O   0  0  0  0  0  0  0  0  0  0  0  0
    2.1654  147.2955   51.2807 C   0  0  0  0  0  0  0  0  0  0  0  0
    1.4748  146.7700   51.9499 H   0  0  0  0  0  0  0  0  0  0  0  0
    1.6234  147.6352   50.3933 H   0  0  0  0  0  0  0  0  0  0  0  0
    2.9500  146.5959   50.9725 H   0  0  0  0  0  0  0  0  0  0  0  0
  1  2  1  0
  2  3  2  0
  3  4  1  0
  3  5  1  0
  5  6  1  0
  6  7  1  0
  7  8  1  0
  7  9  1  0
  7 10  1  0
  5 11  2  0
 11 12  1  0
 11 13  1  0
 13 14  1  0
 14 15  1  0
 14 16  1  0
 14 17  1  0
 17 18  2  0
 17 19  1  0
 19 20  1  0
 19 21  1  0
 21 22  2  0
 22 23  1  0
 23 24  1  0
 24 25  1  0
 25 26  1  0
 25 27  1  0
 25 28  1  0
 23 29  2  0
 29 30  1  0
 30 31  3  0
 29 32  1  0
 32 33  1  0
 33 34  1  0
 33 35  1  0
 32 36  2  0
 36 37  1  0
 13 38  2  0
 38 39  1  0
 39 40  1  0
 40 41  1  0
 40 42  1  0
 40 43  1  0
 38  2  1  0
 36 21  1  0
M  END
>  <score>  (52) 
6.80834

$$$$

     RDKit          3D

 44 45  0  0  0  0  0  0  0  0999 V2000
    0.3057  149.2029   51.2520 H   0  0  0  0  0  0  0  0  0  0  0  0
    0.6597  149.6073   52.1948 C   0  0  0  0  0  0  0  0  0  0  0  0
   -0.1435  150.5015   52.9345 C   0  0  0  0  0  0  0  0  0  0  0  0
   -1.8698  150.9833   52.2748 Br  0  0  0  0  0  0  0  0  0  0  0  0
    0.3355  151.0598   54.1322 C   0  0  0  0  0  0  0  0  0  0  0  0
   -0.3795  151.9765   54.8620 O   0  0  0  0  0  0  0  0  0  0  0  0
   -1.4273  151.4047   55.6497 C   0  0  0  0  0  0  0  0  0  0  0  0
   -2.1533  150.8754   55.0246 H   0  0  0  0  0  0  0  0  0  0  0  0
   -1.9444  152.2008   56.1940 H   0  0  0  0  0  0  0  0  0  0  0  0
   -1.0148  150.7038   56.3765 H   0  0  0  0  0  0  0  0  0  0  0  0
    1.5991  150.6900   54.5733 C   0  0  0  0  0  0  0  0  0  0  0  0
    1.9913  151.1448   55.4737 H   0  0  0  0  0  0  0  0  0  0  0  0
    2.3820  149.7815   53.8593 C   0  0  0  0  0  0  0  0  0  0  0  0
    3.7269  149.4591   54.3995 C   0  0  0  0  0  0  0  0  0  0  0  0
    4.0019  150.3305   54.9789 H   0  0  0  0  0  0  0  0  0  0  0  0
    4.4172  149.3486   53.5613 H   0  0  0  0  0  0  0  0  0  0  0  0
    3.7449  148.1885   55.2603 C   0  0  0  0  0  0  0  0  0  0  0  0
    3.8483  148.2428   56.4761 O   0  0  0  0  0  0  0  0  0  0  0  0
    3.6916  146.9762   54.6354 N   0  0  0  0  0  0  0  0  0  0  0  0
    3.5191  146.9318   53.6453 H   0  0  0  0  0  0  0  0  0  0  0  0
    3.5313  145.7756   55.2102 C   0  0  0  0  0  0  0  0  0  0  0  0
    3.0470  144.9635   54.3103 N   0  0  0  0  0  0  0  0  0  0  0  0
    2.9101  143.7040   54.6656 C   0  0  0  0  0  0  0  0  0  0  0  0
    2.3887  142.8667   53.7261 N   0  0  0  0  0  0  0  0  0  0  0  0
    2.3385  141.9003   54.0204 H   0  0  0  0  0  0  0  0  0  0  0  0
    1.9700  143.2788   52.3654 C   0  0  0  0  0  0  0  0  0  0  0  0
    1.1582  144.0185   52.4043 H   0  0  0  0  0  0  0  0  0  0  0  0
    1.6009  142.4149   51.8014 H   0  0  0  0  0  0  0  0  0  0  0  0
    2.8068  143.7099   51.7981 H   0  0  0  0  0  0  0  0  0  0  0  0
    3.2546  143.1923   55.8928 C   0  0  0  0  0  0  0  0  0  0  0  0
    3.1277  141.8089   56.2103 C   0  0  0  0  0  0  0  0  0  0  0  0
    3.0263  140.6712   56.4329 N   0  0  0  0  0  0  0  0  0  0  0  0
    3.7403  144.0933   56.7867 C   0  0  0  0  0  0  0  0  0  0  0  0
    4.1407  143.7148   58.0048 N   0  0  0  0  0  0  0  0  0  0  0  0
    4.4896  144.4283   58.6395 H   0  0  0  0  0  0  0  0  0  0  0  0
    4.0545  142.7397   58.2804 H   0  0  0  0  0  0  0  0  0  0  0  0
    3.8806  145.4091   56.4781 C   0  0  0  0  0  0  0  0  0  0  0  0
    4.2954  146.1052   57.1866 H   0  0  0  0  0  0  0  0  0  0  0  0
    1.9350  149.2388   52.6492 C   0  0  0  0  0  0  0  0  0  0  0  0
    2.7752  148.4017   51.9488 O   0  0  0  0  0  0  0  0  0  0  0  0
    2.1654  147.2952   51.2814 C   0  0  0  0  0  0  0  0  0  0  0  0
    2.9498  146.5951   50.9744 H   0  0  0  0  0  0  0  0  0  0  0  0
    1.6254  147.6345   50.3929 H   0  0  0  0  0  0  0  0  0  0  0  0
    1.4737  146.7698   51.9491 H   0  0  0  0  0  0  0  0  0  0  0  0
  1  2  1  0
  2  3  2  0
  3  4  1  0
  3  5  1  0
  5  6  1  0
  6  7  1  0
  7  8  1  0
  7  9  1  0
  7 10  1  0
  5 11  2  0
 11 12  1  0
 11 13  1  0
 13 14  1  0
 14 15  1  0
 14 16  1  0
 14 17  1  0
 17 18  2  0
 17 19  1  0
 19 20  1  0
 19 21  1  0
 21 22  2  0
 22 23  1  0
 23 24  1  0
 24 25  1  0
 24 26  1  0
 26 27  1  0
 26 28  1  0
 26 29  1  0
 23 30  2  0
 30 31  1  0
 31 32  3  0
 30 33  1  0
 33 34  1  0
 34 35  1  0
 34 36  1  0
 33 37  2  0
 37 38  1  0
 13 39  2  0
 39 40  1  0
 40 41  1  0
 41 42  1  0
 41 43  1  0
 41 44  1  0
 39  2  1  0
 37 21  1  0
M  END
>  <score>  (53) 
6.81057

$$$$

     RDKit          3D

 54 56  0  0  0  0  0  0  0  0999 V2000
    8.4834  143.8216   52.4704 H   0  0  0  0  0  0  0  0  0  0  0  0
    7.6863  143.6490   51.9917 C   0  0  0  0  0  0  0  0  0  0  0  0
    6.7803  144.7193   51.6055 C   0  0  0  0  0  0  0  0  0  0  0  0
    7.0644  145.7526   51.7782 H   0  0  0  0  0  0  0  0  0  0  0  0
    5.4049  144.3746   51.2320 C   0  0  0  0  0  0  0  0  0  0  0  0
    4.7193  145.2204   51.1972 H   0  0  0  0  0  0  0  0  0  0  0  0
    4.9820  142.9812   50.9929 C   0  0  0  0  0  0  0  0  0  0  0  0
    3.2671  142.8259   51.6363 S   0  0  0  0  0  0  0  0  0  0  0  0
    2.5013  141.7118   51.0708 O   0  0  0  0  0  0  0  0  0  0  0  0
    2.5042  144.0836   51.6323 O   0  0  0  0  0  0  0  0  0  0  0  0
    3.4583  142.3836   53.2397 N   0  0  0  0  0  0  0  0  0  0  0  0
    2.7706  141.7209   53.5145 H   0  0  0  0  0  0  0  0  0  0  0  0
    3.5809  143.3697   54.1297 C   0  0  0  0  0  0  0  0  0  0  0  0
    3.6174  144.6158   53.7006 N   0  0  0  0  0  0  0  0  0  0  0  0
    3.7159  145.5483   54.6364 C   0  0  0  0  0  0  0  0  0  0  0  0
    3.6706  146.8299   54.1799 N   0  0  0  0  0  0  0  0  0  0  0  0
    3.5386  146.9367   53.1879 H   0  0  0  0  0  0  0  0  0  0  0  0
    3.6612  147.9459   54.9856 C   0  0  0  0  0  0  0  0  0  0  0  0
    3.7516  147.8245   56.1909 O   0  0  0  0  0  0  0  0  0  0  0  0
    3.6308  149.3780   54.4565 C   0  0  0  0  0  0  0  0  0  0  0  0
    3.8308  150.0474   55.2945 H   0  0  0  0  0  0  0  0  0  0  0  0
    4.4260  149.5117   53.7251 H   0  0  0  0  0  0  0  0  0  0  0  0
    2.3073  149.7600   53.8573 C   0  0  0  0  0  0  0  0  0  0  0  0
    1.5064  150.6946   54.5250 C   0  0  0  0  0  0  0  0  0  0  0  0
    1.8462  151.1542   55.4482 H   0  0  0  0  0  0  0  0  0  0  0  0
    0.2541  151.0470   54.0257 C   0  0  0  0  0  0  0  0  0  0  0  0
   -0.4884  151.9726   54.7096 O   0  0  0  0  0  0  0  0  0  0  0  0
   -1.5056  151.3869   55.5289 C   0  0  0  0  0  0  0  0  0  0  0  0
   -2.2702  150.9039   54.9137 H   0  0  0  0  0  0  0  0  0  0  0  0
   -1.9870  152.1563   56.1428 H   0  0  0  0  0  0  0  0  0  0  0  0
   -1.0724  150.6376   56.1948 H   0  0  0  0  0  0  0  0  0  0  0  0
   -0.2036  150.4531   52.8379 C   0  0  0  0  0  0  0  0  0  0  0  0
   -1.9312  150.8872   52.1354 Br  0  0  0  0  0  0  0  0  0  0  0  0
    0.6090  149.5297   52.1641 C   0  0  0  0  0  0  0  0  0  0  0  0
    0.2699  149.0788   51.2411 H   0  0  0  0  0  0  0  0  0  0  0  0
    1.8682  149.1736   52.6623 C   0  0  0  0  0  0  0  0  0  0  0  0
    2.6958  148.2750   52.0284 O   0  0  0  0  0  0  0  0  0  0  0  0
    2.0443  147.2714   51.2386 C   0  0  0  0  0  0  0  0  0  0  0  0
    2.7853  146.5933   50.8040 H   0  0  0  0  0  0  0  0  0  0  0  0
    1.3636  146.6802   51.8592 H   0  0  0  0  0  0  0  0  0  0  0  0
    1.4754  147.7274   50.4239 H   0  0  0  0  0  0  0  0  0  0  0  0
    3.7946  145.2719   55.9723 C   0  0  0  0  0  0  0  0  0  0  0  0
    3.8098  146.0165   56.7460 H   0  0  0  0  0  0  0  0  0  0  0  0
    3.7522  143.9948   56.3584 C   0  0  0  0  0  0  0  0  0  0  0  0
    3.7717  143.8337   57.6957 N   0  0  0  0  0  0  0  0  0  0  0  0
    4.0988  144.6465   58.2132 H   0  0  0  0  0  0  0  0  0  0  0  0
    3.9982  142.9141   58.0556 H   0  0  0  0  0  0  0  0  0  0  0  0
    3.6144  143.0023   55.4498 C   0  0  0  0  0  0  0  0  0  0  0  0
    3.4350  141.6637   55.8978 C   0  0  0  0  0  0  0  0  0  0  0  0
    3.2351  140.5915   56.2973 N   0  0  0  0  0  0  0  0  0  0  0  0
    5.9800  141.8273   51.0902 C   0  0  0  0  0  0  0  0  0  0  0  0
    5.6792  140.7902   50.9697 H   0  0  0  0  0  0  0  0  0  0  0  0
    7.3037  142.0445   51.7966 C   0  0  0  0  0  0  0  0  0  0  0  0
    7.8994  141.2157   52.1730 H   0  0  0  0  0  0  0  0  0  0  0  0
  1  2  1  0
  2  3  2  0
  3  4  1  0
  3  5  1  0
  5  6  1  0
  5  7  2  0
  7  8  1  0
  8  9  2  0
  8 10  2  0
  8 11  1  0
 11 12  1  0
 11 13  1  0
 13 14  2  0
 14 15  1  0
 15 16  1  0
 16 17  1  0
 16 18  1  0
 18 19  2  0
 18 20  1  0
 20 21  1  0
 20 22  1  0
 20 23  1  0
 23 24  2  0
 24 25  1  0
 24 26  1  0
 26 27  1  0
 27 28  1  0
 28 29  1  0
 28 30  1  0
 28 31  1  0
 26 32  2  0
 32 33  1  0
 32 34  1  0
 34 35  1  0
 34 36  2  0
 36 37  1  0
 37 38  1  0
 38 39  1  0
 38 40  1  0
 38 41  1  0
 15 42  2  0
 42 43  1  0
 42 44  1  0
 44 45  1  0
 45 46  1  0
 45 47  1  0
 44 48  2  0
 48 49  1  0
 49 50  3  0
  7 51  1  0
 51 52  1  0
 51 53  2  0
 53 54  1  0
 53  2  1  0
 48 13  1  0
 36 23  1  0
M  END
>  <score>  (54) 
6.81284

$$$$

     RDKit          3D

 49 50  0  0  0  0  0  0  0  0999 V2000
    0.3078  149.1996   51.2516 H   0  0  0  0  0  0  0  0  0  0  0  0
    0.6595  149.6052   52.1954 C   0  0  0  0  0  0  0  0  0  0  0  0
   -0.1443  150.4996   52.9352 C   0  0  0  0  0  0  0  0  0  0  0  0
   -1.8697  150.9847   52.2770 Br  0  0  0  0  0  0  0  0  0  0  0  0
    0.3346  151.0590   54.1316 C   0  0  0  0  0  0  0  0  0  0  0  0
   -0.3790  151.9762   54.8608 O   0  0  0  0  0  0  0  0  0  0  0  0
   -1.4264  151.4040   55.6477 C   0  0  0  0  0  0  0  0  0  0  0  0
   -1.0138  150.7025   56.3748 H   0  0  0  0  0  0  0  0  0  0  0  0
   -1.9420  152.2017   56.1914 H   0  0  0  0  0  0  0  0  0  0  0  0
   -2.1528  150.8751   55.0217 H   0  0  0  0  0  0  0  0  0  0  0  0
    1.5968  150.6891   54.5735 C   0  0  0  0  0  0  0  0  0  0  0  0
    1.9901  151.1455   55.4722 H   0  0  0  0  0  0  0  0  0  0  0  0
    2.3812  149.7820   53.8604 C   0  0  0  0  0  0  0  0  0  0  0  0
    3.7264  149.4693   54.4011 C   0  0  0  0  0  0  0  0  0  0  0  0
    3.9984  150.3462   54.9779 H   0  0  0  0  0  0  0  0  0  0  0  0
    4.4124  149.3559   53.5596 H   0  0  0  0  0  0  0  0  0  0  0  0
    3.7473  148.2002   55.2624 C   0  0  0  0  0  0  0  0  0  0  0  0
    3.8487  148.2556   56.4790 O   0  0  0  0  0  0  0  0  0  0  0  0
    3.7024  146.9906   54.6267 N   0  0  0  0  0  0  0  0  0  0  0  0
    3.5190  146.9615   53.6365 H   0  0  0  0  0  0  0  0  0  0  0  0
    3.5453  145.7795   55.1968 C   0  0  0  0  0  0  0  0  0  0  0  0
    3.0658  144.9419   54.2951 N   0  0  0  0  0  0  0  0  0  0  0  0
    2.9170  143.6631   54.6284 C   0  0  0  0  0  0  0  0  0  0  0  0
    2.3221  142.7539   53.6187 C   0  0  0  0  0  0  0  0  0  0  0  0
    2.6835  141.7319   53.7623 H   0  0  0  0  0  0  0  0  0  0  0  0
    1.2379  142.7693   53.7041 H   0  0  0  0  0  0  0  0  0  0  0  0
    2.6650  143.2579   52.2494 C   0  0  0  0  0  0  0  0  0  0  0  0
    1.7778  143.7432   51.5670 O   0  0  0  0  0  0  0  0  0  0  0  0
    3.9033  142.9843   51.7207 N   0  0  0  0  0  0  0  0  0  0  0  0
    4.5702  142.5100   52.3258 H   0  0  0  0  0  0  0  0  0  0  0  0
    4.2873  143.3373   50.3539 C   0  0  0  0  0  0  0  0  0  0  0  0
    5.3188  143.0186   50.1867 H   0  0  0  0  0  0  0  0  0  0  0  0
    3.6574  142.8455   49.5992 H   0  0  0  0  0  0  0  0  0  0  0  0
    4.2204  144.4226   50.2036 H   0  0  0  0  0  0  0  0  0  0  0  0
    3.2669  143.1916   55.8853 C   0  0  0  0  0  0  0  0  0  0  0  0
    3.1371  141.8136   56.2236 C   0  0  0  0  0  0  0  0  0  0  0  0
    3.0334  140.6779   56.4559 N   0  0  0  0  0  0  0  0  0  0  0  0
    3.7514  144.1022   56.7899 C   0  0  0  0  0  0  0  0  0  0  0  0
    4.1476  143.7201   58.0156 N   0  0  0  0  0  0  0  0  0  0  0  0
    4.4930  144.4331   58.6524 H   0  0  0  0  0  0  0  0  0  0  0  0
    4.0593  142.7451   58.2936 H   0  0  0  0  0  0  0  0  0  0  0  0
    3.8890  145.4205   56.4751 C   0  0  0  0  0  0  0  0  0  0  0  0
    4.2971  146.1177   57.1920 H   0  0  0  0  0  0  0  0  0  0  0  0
    1.9353  149.2373   52.6501 C   0  0  0  0  0  0  0  0  0  0  0  0
    2.7757  148.4002   51.9495 O   0  0  0  0  0  0  0  0  0  0  0  0
    2.1648  147.2941   51.2819 C   0  0  0  0  0  0  0  0  0  0  0  0
    1.6222  147.6353   50.3954 H   0  0  0  0  0  0  0  0  0  0  0  0
    1.4748  146.7672   51.9506 H   0  0  0  0  0  0  0  0  0  0  0  0
    2.9493  146.5949   50.9722 H   0  0  0  0  0  0  0  0  0  0  0  0
  1  2  1  0
  2  3  2  0
  3  4  1  0
  3  5  1  0
  5  6  1  0
  6  7  1  0
  7  8  1  0
  7  9  1  0
  7 10  1  0
  5 11  2  0
 11 12  1  0
 11 13  1  0
 13 14  1  0
 14 15  1  0
 14 16  1  0
 14 17  1  0
 17 18  2  0
 17 19  1  0
 19 20  1  0
 19 21  1  0
 21 22  2  0
 22 23  1  0
 23 24  1  0
 24 25  1  0
 24 26  1  0
 24 27  1  0
 27 28  2  0
 27 29  1  0
 29 30  1  0
 29 31  1  0
 31 32  1  0
 31 33  1  0
 31 34  1  0
 23 35  2  0
 35 36  1  0
 36 37  3  0
 35 38  1  0
 38 39  1  0
 39 40  1  0
 39 41  1  0
 38 42  2  0
 42 43  1  0
 13 44  2  0
 44 45  1  0
 45 46  1  0
 46 47  1  0
 46 48  1  0
 46 49  1  0
 44  2  1  0
 42 21  1  0
M  END
>  <score>  (55) 
6.81456

$$$$

     RDKit          3D

 46 47  0  0  0  0  0  0  0  0999 V2000
    1.5571  141.2064   49.9090 H   0  0  0  0  0  0  0  0  0  0  0  0
    2.0424  141.6630   50.6116 O   0  0  0  0  0  0  0  0  0  0  0  0
    1.2781  141.5610   51.7238 C   0  0  0  0  0  0  0  0  0  0  0  0
    0.2355  140.9336   51.7680 O   0  0  0  0  0  0  0  0  0  0  0  0
    1.7202  142.2424   52.9475 C   0  0  0  0  0  0  0  0  0  0  0  0
    1.0428  142.1679   53.7811 H   0  0  0  0  0  0  0  0  0  0  0  0
    2.8308  143.0712   53.0718 C   0  0  0  0  0  0  0  0  0  0  0  0
    3.4144  143.2864   52.1808 H   0  0  0  0  0  0  0  0  0  0  0  0
    3.2007  143.8444   54.2709 C   0  0  0  0  0  0  0  0  0  0  0  0
    3.4494  145.1190   54.0101 N   0  0  0  0  0  0  0  0  0  0  0  0
    3.7511  145.9116   55.0088 C   0  0  0  0  0  0  0  0  0  0  0  0
    3.8491  147.1595   54.5360 N   0  0  0  0  0  0  0  0  0  0  0  0
    3.6638  147.2399   53.5490 H   0  0  0  0  0  0  0  0  0  0  0  0
    3.7090  148.2844   55.2875 C   0  0  0  0  0  0  0  0  0  0  0  0
    3.7679  148.2442   56.5029 O   0  0  0  0  0  0  0  0  0  0  0  0
    3.6499  149.6052   54.5384 C   0  0  0  0  0  0  0  0  0  0  0  0
    3.8098  150.4361   55.2332 H   0  0  0  0  0  0  0  0  0  0  0  0
    4.4457  149.6093   53.7884 H   0  0  0  0  0  0  0  0  0  0  0  0
    2.3126  149.8352   53.8858 C   0  0  0  0  0  0  0  0  0  0  0  0
    1.4664  150.7226   54.5549 C   0  0  0  0  0  0  0  0  0  0  0  0
    1.7819  151.1576   55.4988 H   0  0  0  0  0  0  0  0  0  0  0  0
    0.2282  151.0797   54.0291 C   0  0  0  0  0  0  0  0  0  0  0  0
   -0.5317  152.0021   54.6957 O   0  0  0  0  0  0  0  0  0  0  0  0
   -1.5156  151.3961   55.5372 C   0  0  0  0  0  0  0  0  0  0  0  0
   -1.0542  150.6572   56.1991 H   0  0  0  0  0  0  0  0  0  0  0  0
   -1.9977  152.1606   56.1538 H   0  0  0  0  0  0  0  0  0  0  0  0
   -2.2821  150.9017   54.9327 H   0  0  0  0  0  0  0  0  0  0  0  0
   -0.2148  150.4696   52.8460 C   0  0  0  0  0  0  0  0  0  0  0  0
   -1.9474  150.8644   52.1343 Br  0  0  0  0  0  0  0  0  0  0  0  0
    0.6093  149.5476   52.1850 C   0  0  0  0  0  0  0  0  0  0  0  0
    0.2453  149.0733   51.2787 H   0  0  0  0  0  0  0  0  0  0  0  0
    1.8890  149.2262   52.6788 C   0  0  0  0  0  0  0  0  0  0  0  0
    2.7121  148.3278   52.0311 O   0  0  0  0  0  0  0  0  0  0  0  0
    2.0683  147.3065   51.2451 C   0  0  0  0  0  0  0  0  0  0  0  0
    1.3577  146.7445   51.8583 H   0  0  0  0  0  0  0  0  0  0  0  0
    1.5303  147.7296   50.3902 H   0  0  0  0  0  0  0  0  0  0  0  0
    2.8171  146.6033   50.8644 H   0  0  0  0  0  0  0  0  0  0  0  0
    3.8693  145.5253   56.3122 C   0  0  0  0  0  0  0  0  0  0  0  0
    4.1576  146.2245   57.0845 H   0  0  0  0  0  0  0  0  0  0  0  0
    3.6551  144.2065   56.5689 C   0  0  0  0  0  0  0  0  0  0  0  0
    3.8174  143.8060   57.8445 N   0  0  0  0  0  0  0  0  0  0  0  0
    3.9994  142.8159   57.9763 H   0  0  0  0  0  0  0  0  0  0  0  0
    4.2954  144.4738   58.4444 H   0  0  0  0  0  0  0  0  0  0  0  0
    3.3045  143.3290   55.5615 C   0  0  0  0  0  0  0  0  0  0  0  0
    3.0979  141.9463   55.8220 C   0  0  0  0  0  0  0  0  0  0  0  0
    3.0012  140.8031   56.0203 N   0  0  0  0  0  0  0  0  0  0  0  0
  1  2  1  0
  2  3  1  0
  3  4  2  0
  3  5  1  0
  5  6  1  0
  5  7  2  3
  7  8  1  0
  7  9  1  0
  9 10  2  0
 10 11  1  0
 11 12  1  0
 12 13  1  0
 12 14  1  0
 14 15  2  0
 14 16  1  0
 16 17  1  0
 16 18  1  0
 16 19  1  0
 19 20  2  0
 20 21  1  0
 20 22  1  0
 22 23  1  0
 23 24  1  0
 24 25  1  0
 24 26  1  0
 24 27  1  0
 22 28  2  0
 28 29  1  0
 28 30  1  0
 30 31  1  0
 30 32  2  0
 32 33  1  0
 33 34  1  0
 34 35  1  0
 34 36  1  0
 34 37  1  0
 11 38  2  0
 38 39  1  0
 38 40  1  0
 40 41  1  0
 41 42  1  0
 41 43  1  0
 40 44  2  0
 44 45  1  0
 45 46  3  0
 44  9  1  0
 32 19  1  0
M  END
>  <score>  (56) 
6.8156

$$$$

     RDKit          3D

 48 49  0  0  0  0  0  0  0  0999 V2000
    0.2873  149.1781   51.2338 H   0  0  0  0  0  0  0  0  0  0  0  0
    0.6255  149.5766   52.1831 C   0  0  0  0  0  0  0  0  0  0  0  0
   -0.1753  150.4798   52.9059 C   0  0  0  0  0  0  0  0  0  0  0  0
   -1.9114  150.9792   52.2644 Br  0  0  0  0  0  0  0  0  0  0  0  0
    0.3120  151.0381   54.1062 C   0  0  0  0  0  0  0  0  0  0  0  0
   -0.3839  151.9754   54.8177 O   0  0  0  0  0  0  0  0  0  0  0  0
   -1.4217  151.4061   55.6152 C   0  0  0  0  0  0  0  0  0  0  0  0
   -2.1469  150.8850   54.9859 H   0  0  0  0  0  0  0  0  0  0  0  0
   -1.0082  150.6910   56.3285 H   0  0  0  0  0  0  0  0  0  0  0  0
   -1.9376  152.1953   56.1705 H   0  0  0  0  0  0  0  0  0  0  0  0
    1.5691  150.6819   54.5795 C   0  0  0  0  0  0  0  0  0  0  0  0
    1.9532  151.1347   55.4941 H   0  0  0  0  0  0  0  0  0  0  0  0
    2.3454  149.7689   53.8699 C   0  0  0  0  0  0  0  0  0  0  0  0
    3.6992  149.4468   54.4163 C   0  0  0  0  0  0  0  0  0  0  0  0
    3.9776  150.2538   55.0744 H   0  0  0  0  0  0  0  0  0  0  0  0
    4.4205  149.4003   53.6015 H   0  0  0  0  0  0  0  0  0  0  0  0
    3.7427  148.1575   55.2142 C   0  0  0  0  0  0  0  0  0  0  0  0
    3.8200  148.1934   56.4298 O   0  0  0  0  0  0  0  0  0  0  0  0
    3.7005  146.9689   54.5606 N   0  0  0  0  0  0  0  0  0  0  0  0
    3.4387  146.9604   53.5860 H   0  0  0  0  0  0  0  0  0  0  0  0
    3.5631  145.7779   55.1529 C   0  0  0  0  0  0  0  0  0  0  0  0
    3.0785  144.9459   54.2599 N   0  0  0  0  0  0  0  0  0  0  0  0
    2.9213  143.6752   54.6038 C   0  0  0  0  0  0  0  0  0  0  0  0
    2.3264  142.7632   53.6109 C   0  0  0  0  0  0  0  0  0  0  0  0
    1.2480  142.7614   53.7202 H   0  0  0  0  0  0  0  0  0  0  0  0
    2.7109  141.7563   53.7583 H   0  0  0  0  0  0  0  0  0  0  0  0
    2.6896  143.2451   52.2379 C   0  0  0  0  0  0  0  0  0  0  0  0
    1.8382  143.8630   51.6114 O   0  0  0  0  0  0  0  0  0  0  0  0
    3.9310  142.9399   51.8038 O   0  0  0  0  0  0  0  0  0  0  0  0
    4.2116  143.3202   50.4494 C   0  0  0  0  0  0  0  0  0  0  0  0
    3.5017  142.8511   49.7605 H   0  0  0  0  0  0  0  0  0  0  0  0
    5.2195  142.9950   50.1762 H   0  0  0  0  0  0  0  0  0  0  0  0
    4.1500  144.4066   50.3306 H   0  0  0  0  0  0  0  0  0  0  0  0
    3.2574  143.2047   55.8574 C   0  0  0  0  0  0  0  0  0  0  0  0
    3.1365  141.8196   56.1925 C   0  0  0  0  0  0  0  0  0  0  0  0
    3.0530  140.6884   56.4490 N   0  0  0  0  0  0  0  0  0  0  0  0
    3.7441  144.1222   56.7586 C   0  0  0  0  0  0  0  0  0  0  0  0
    4.1245  143.7526   57.9979 N   0  0  0  0  0  0  0  0  0  0  0  0
    4.0672  142.7770   58.2716 H   0  0  0  0  0  0  0  0  0  0  0  0
    4.4763  144.4549   58.6429 H   0  0  0  0  0  0  0  0  0  0  0  0
    3.8916  145.4377   56.4399 C   0  0  0  0  0  0  0  0  0  0  0  0
    4.2766  146.1367   57.1694 H   0  0  0  0  0  0  0  0  0  0  0  0
    1.8968  149.2198   52.6587 C   0  0  0  0  0  0  0  0  0  0  0  0
    2.7594  148.4037   51.9659 O   0  0  0  0  0  0  0  0  0  0  0  0
    2.1496  147.3065   51.2796 C   0  0  0  0  0  0  0  0  0  0  0  0
    2.9183  146.5978   50.9561 H   0  0  0  0  0  0  0  0  0  0  0  0
    1.4586  146.7803   51.9458 H   0  0  0  0  0  0  0  0  0  0  0  0
    1.6028  147.6515   50.3969 H   0  0  0  0  0  0  0  0  0  0  0  0
  1  2  1  0
  2  3  2  0
  3  4  1  0
  3  5  1  0
  5  6  1  0
  6  7  1  0
  7  8  1  0
  7  9  1  0
  7 10  1  0
  5 11  2  0
 11 12  1  0
 11 13  1  0
 13 14  1  0
 14 15  1  0
 14 16  1  0
 14 17  1  0
 17 18  2  0
 17 19  1  0
 19 20  1  0
 19 21  1  0
 21 22  2  0
 22 23  1  0
 23 24  1  0
 24 25  1  0
 24 26  1  0
 24 27  1  0
 27 28  2  0
 27 29  1  0
 29 30  1  0
 30 31  1  0
 30 32  1  0
 30 33  1  0
 23 34  2  0
 34 35  1  0
 35 36  3  0
 34 37  1  0
 37 38  1  0
 38 39  1  0
 38 40  1  0
 37 41  2  0
 41 42  1  0
 13 43  2  0
 43 44  1  0
 44 45  1  0
 45 46  1  0
 45 47  1  0
 45 48  1  0
 43  2  1  0
 41 21  1  0
M  END
>  <score>  (57) 
6.8159

$$$$

     RDKit          3D

 51 52  0  0  0  0  0  0  0  0999 V2000
    5.5255  138.7166   52.6231 H   0  0  0  0  0  0  0  0  0  0  0  0
    4.6150  139.0725   52.7242 O   0  0  0  0  0  0  0  0  0  0  0  0
    4.3182  140.0255   51.6879 C   0  0  0  0  0  0  0  0  0  0  0  0
    5.1501  140.7393   51.5423 H   0  0  0  0  0  0  0  0  0  0  0  0
    4.1783  139.4584   50.7599 H   0  0  0  0  0  0  0  0  0  0  0  0
    3.0326  140.8276   52.0125 C   0  0  0  0  0  0  0  0  0  0  0  0
    2.2802  140.1756   52.4668 H   0  0  0  0  0  0  0  0  0  0  0  0
    2.6048  141.2079   51.0823 H   0  0  0  0  0  0  0  0  0  0  0  0
    3.3514  141.9580   52.9042 N   0  0  0  0  0  0  0  0  0  0  0  0
    4.1367  142.5014   52.5424 H   0  0  0  0  0  0  0  0  0  0  0  0
    2.3352  142.8274   53.5680 C   0  0  0  0  0  0  0  0  0  0  0  0
    1.5673  142.2116   54.0328 H   0  0  0  0  0  0  0  0  0  0  0  0
    1.8486  143.4634   52.8220 H   0  0  0  0  0  0  0  0  0  0  0  0
    2.8963  143.7428   54.6614 C   0  0  0  0  0  0  0  0  0  0  0  0
    3.0437  145.0338   54.3540 N   0  0  0  0  0  0  0  0  0  0  0  0
    3.5549  145.8441   55.2442 C   0  0  0  0  0  0  0  0  0  0  0  0
    3.7218  147.0093   54.6189 N   0  0  0  0  0  0  0  0  0  0  0  0
    3.4346  146.9814   53.6521 H   0  0  0  0  0  0  0  0  0  0  0  0
    3.7446  148.2080   55.2477 C   0  0  0  0  0  0  0  0  0  0  0  0
    3.8107  148.2654   56.4585 O   0  0  0  0  0  0  0  0  0  0  0  0
    3.7005  149.4720   54.4227 C   0  0  0  0  0  0  0  0  0  0  0  0
    3.9662  150.2814   55.0822 H   0  0  0  0  0  0  0  0  0  0  0  0
    4.4302  149.4213   53.6145 H   0  0  0  0  0  0  0  0  0  0  0  0
    2.3446  149.7722   53.8708 C   0  0  0  0  0  0  0  0  0  0  0  0
    1.5586  150.6755   54.5790 C   0  0  0  0  0  0  0  0  0  0  0  0
    1.9352  151.1249   55.4947 H   0  0  0  0  0  0  0  0  0  0  0  0
    0.3064  151.0404   54.0999 C   0  0  0  0  0  0  0  0  0  0  0  0
   -0.3906  151.9782   54.8056 O   0  0  0  0  0  0  0  0  0  0  0  0
   -1.4238  151.4061   55.6058 C   0  0  0  0  0  0  0  0  0  0  0  0
   -1.0070  150.6889   56.3146 H   0  0  0  0  0  0  0  0  0  0  0  0
   -2.1502  150.8880   54.9764 H   0  0  0  0  0  0  0  0  0  0  0  0
   -1.9383  152.1913   56.1675 H   0  0  0  0  0  0  0  0  0  0  0  0
   -0.1843  150.4778   52.9057 C   0  0  0  0  0  0  0  0  0  0  0  0
   -1.9200  150.9719   52.2570 Br  0  0  0  0  0  0  0  0  0  0  0  0
    0.6189  149.5756   52.1840 C   0  0  0  0  0  0  0  0  0  0  0  0
    0.2791  149.1714   51.2335 H   0  0  0  0  0  0  0  0  0  0  0  0
    1.8939  149.2224   52.6609 C   0  0  0  0  0  0  0  0  0  0  0  0
    2.7536  148.4055   51.9653 O   0  0  0  0  0  0  0  0  0  0  0  0
    2.1445  147.3117   51.2757 C   0  0  0  0  0  0  0  0  0  0  0  0
    1.5988  147.6625   50.3964 H   0  0  0  0  0  0  0  0  0  0  0  0
    2.9113  146.6026   50.9488 H   0  0  0  0  0  0  0  0  0  0  0  0
    1.4545  146.7878   51.9421 H   0  0  0  0  0  0  0  0  0  0  0  0
    3.9021  145.4858   56.5182 C   0  0  0  0  0  0  0  0  0  0  0  0
    4.3289  146.1751   57.2269 H   0  0  0  0  0  0  0  0  0  0  0  0
    3.7469  144.1718   56.8389 C   0  0  0  0  0  0  0  0  0  0  0  0
    4.1487  143.7770   58.0665 N   0  0  0  0  0  0  0  0  0  0  0  0
    4.0863  142.7948   58.3155 H   0  0  0  0  0  0  0  0  0  0  0  0
    4.5046  144.4640   58.7262 H   0  0  0  0  0  0  0  0  0  0  0  0
    3.2467  143.2701   55.9228 C   0  0  0  0  0  0  0  0  0  0  0  0
    3.1394  141.8803   56.2313 C   0  0  0  0  0  0  0  0  0  0  0  0
    3.0701  140.7440   56.4678 N   0  0  0  0  0  0  0  0  0  0  0  0
  1  2  1  0
  2  3  1  0
  3  4  1  0
  3  5  1  0
  3  6  1  0
  6  7  1  0
  6  8  1  0
  6  9  1  0
  9 10  1  0
  9 11  1  0
 11 12  1  0
 11 13  1  0
 11 14  1  0
 14 15  2  0
 15 16  1  0
 16 17  1  0
 17 18  1  0
 17 19  1  0
 19 20  2  0
 19 21  1  0
 21 22  1  0
 21 23  1  0
 21 24  1  0
 24 25  2  0
 25 26  1  0
 25 27  1  0
 27 28  1  0
 28 29  1  0
 29 30  1  0
 29 31  1  0
 29 32  1  0
 27 33  2  0
 33 34  1  0
 33 35  1  0
 35 36  1  0
 35 37  2  0
 37 38  1  0
 38 39  1  0
 39 40  1  0
 39 41  1  0
 39 42  1  0
 16 43  2  0
 43 44  1  0
 43 45  1  0
 45 46  1  0
 46 47  1  0
 46 48  1  0
 45 49  2  0
 49 50  1  0
 50 51  3  0
 49 14  1  0
 37 24  1  0
M  END
>  <score>  (58) 
6.81602

$$$$

     RDKit          3D

 42 43  0  0  0  0  0  0  0  0999 V2000
    0.2832  149.1720   51.2316 H   0  0  0  0  0  0  0  0  0  0  0  0
    0.6175  149.5737   52.1818 C   0  0  0  0  0  0  0  0  0  0  0  0
   -0.1852  150.4757   52.9038 C   0  0  0  0  0  0  0  0  0  0  0  0
   -1.9206  150.9769   52.2599 Br  0  0  0  0  0  0  0  0  0  0  0  0
    0.3052  151.0379   54.1001 C   0  0  0  0  0  0  0  0  0  0  0  0
   -0.3897  151.9769   54.8073 O   0  0  0  0  0  0  0  0  0  0  0  0
   -1.4229  151.4059   55.6082 C   0  0  0  0  0  0  0  0  0  0  0  0
   -1.9370  152.1949   56.1665 H   0  0  0  0  0  0  0  0  0  0  0  0
   -1.0066  150.6884   56.3187 H   0  0  0  0  0  0  0  0  0  0  0  0
   -2.1485  150.8867   54.9774 H   0  0  0  0  0  0  0  0  0  0  0  0
    1.5595  150.6833   54.5794 C   0  0  0  0  0  0  0  0  0  0  0  0
    1.9398  151.1373   55.4971 H   0  0  0  0  0  0  0  0  0  0  0  0
    2.3382  149.7704   53.8713 C   0  0  0  0  0  0  0  0  0  0  0  0
    3.6964  149.4664   54.4186 C   0  0  0  0  0  0  0  0  0  0  0  0
    3.9593  150.2806   55.0737 H   0  0  0  0  0  0  0  0  0  0  0  0
    4.4249  149.4253   53.6091 H   0  0  0  0  0  0  0  0  0  0  0  0
    3.7540  148.1949   55.2413 C   0  0  0  0  0  0  0  0  0  0  0  0
    3.8238  148.2526   56.4528 O   0  0  0  0  0  0  0  0  0  0  0  0
    3.7369  146.9989   54.6053 N   0  0  0  0  0  0  0  0  0  0  0  0
    3.4416  146.9753   53.6389 H   0  0  0  0  0  0  0  0  0  0  0  0
    3.6197  145.8183   55.2117 C   0  0  0  0  0  0  0  0  0  0  0  0
    3.1589  144.9998   54.3013 N   0  0  0  0  0  0  0  0  0  0  0  0
    2.9754  143.7136   54.6026 C   0  0  0  0  0  0  0  0  0  0  0  0
    2.4995  142.8506   53.4391 C   0  0  0  0  0  0  0  0  0  0  0  0
    2.5336  143.4886   52.5539 H   0  0  0  0  0  0  0  0  0  0  0  0
    1.2195  142.4160   53.5862 F   0  0  0  0  0  0  0  0  0  0  0  0
    3.3152  141.7820   53.2150 F   0  0  0  0  0  0  0  0  0  0  0  0
    3.2846  143.2386   55.8787 C   0  0  0  0  0  0  0  0  0  0  0  0
    3.1649  141.8502   56.1976 C   0  0  0  0  0  0  0  0  0  0  0  0
    3.0751  140.7250   56.4759 N   0  0  0  0  0  0  0  0  0  0  0  0
    3.7621  144.1507   56.8076 C   0  0  0  0  0  0  0  0  0  0  0  0
    4.1195  143.7751   58.0548 N   0  0  0  0  0  0  0  0  0  0  0  0
    4.0864  142.7925   58.3060 H   0  0  0  0  0  0  0  0  0  0  0  0
    4.4939  144.4642   58.7034 H   0  0  0  0  0  0  0  0  0  0  0  0
    3.9181  145.4707   56.5012 C   0  0  0  0  0  0  0  0  0  0  0  0
    4.2880  146.1655   57.2431 H   0  0  0  0  0  0  0  0  0  0  0  0
    1.8906  149.2220   52.6589 C   0  0  0  0  0  0  0  0  0  0  0  0
    2.7568  148.4063   51.9704 O   0  0  0  0  0  0  0  0  0  0  0  0
    2.1462  147.3150   51.2776 C   0  0  0  0  0  0  0  0  0  0  0  0
    2.9125  146.6057   50.9508 H   0  0  0  0  0  0  0  0  0  0  0  0
    1.6001  147.6644   50.3966 H   0  0  0  0  0  0  0  0  0  0  0  0
    1.4543  146.7891   51.9420 H   0  0  0  0  0  0  0  0  0  0  0  0
  1  2  1  0
  2  3  2  0
  3  4  1  0
  3  5  1  0
  5  6  1  0
  6  7  1  0
  7  8  1  0
  7  9  1  0
  7 10  1  0
  5 11  2  0
 11 12  1  0
 11 13  1  0
 13 14  1  0
 14 15  1  0
 14 16  1  0
 14 17  1  0
 17 18  2  0
 17 19  1  0
 19 20  1  0
 19 21  1  0
 21 22  2  0
 22 23  1  0
 23 24  1  0
 24 25  1  0
 24 26  1  0
 24 27  1  0
 23 28  2  0
 28 29  1  0
 29 30  3  0
 28 31  1  0
 31 32  1  0
 32 33  1  0
 32 34  1  0
 31 35  2  0
 35 36  1  0
 13 37  2  0
 37 38  1  0
 38 39  1  0
 39 40  1  0
 39 41  1  0
 39 42  1  0
 37  2  1  0
 35 21  1  0
M  END
>  <score>  (59) 
6.82777

$$$$

     RDKit          3D

 49 51  0  0  0  0  0  0  0  0999 V2000
    0.1097  141.3478   52.1496 H   0  0  0  0  0  0  0  0  0  0  0  0
    1.0979  141.7880   52.0588 C   0  0  0  0  0  0  0  0  0  0  0  0
    1.6639  141.8145   50.8706 N   0  0  0  0  0  0  0  0  0  0  0  0
    2.8353  142.3919   50.8369 C   0  0  0  0  0  0  0  0  0  0  0  0
    3.3309  142.3222   49.6273 N   0  0  0  0  0  0  0  0  0  0  0  0
    3.9172  143.1162   49.4311 H   0  0  0  0  0  0  0  0  0  0  0  0
    2.5849  142.0754   48.9944 H   0  0  0  0  0  0  0  0  0  0  0  0
    3.4801  143.0439   51.7839 N   0  0  0  0  0  0  0  0  0  0  0  0
    2.9304  143.0280   53.0181 C   0  0  0  0  0  0  0  0  0  0  0  0
    3.4363  143.8443   54.2138 C   0  0  0  0  0  0  0  0  0  0  0  0
    3.6665  145.1522   54.0109 N   0  0  0  0  0  0  0  0  0  0  0  0
    3.8813  145.9503   55.0239 C   0  0  0  0  0  0  0  0  0  0  0  0
    3.8893  147.2023   54.5498 N   0  0  0  0  0  0  0  0  0  0  0  0
    3.6660  147.2702   53.5690 H   0  0  0  0  0  0  0  0  0  0  0  0
    3.7261  148.3193   55.2966 C   0  0  0  0  0  0  0  0  0  0  0  0
    3.7902  148.2729   56.5108 O   0  0  0  0  0  0  0  0  0  0  0  0
    3.6362  149.6361   54.5444 C   0  0  0  0  0  0  0  0  0  0  0  0
    3.7967  150.4640   55.2416 H   0  0  0  0  0  0  0  0  0  0  0  0
    4.4310  149.6517   53.7946 H   0  0  0  0  0  0  0  0  0  0  0  0
    2.2931  149.8460   53.8882 C   0  0  0  0  0  0  0  0  0  0  0  0
    1.4424  150.7322   54.5460 C   0  0  0  0  0  0  0  0  0  0  0  0
    1.7503  151.1718   55.4896 H   0  0  0  0  0  0  0  0  0  0  0  0
    0.2077  151.0804   54.0127 C   0  0  0  0  0  0  0  0  0  0  0  0
   -0.5438  152.0094   54.6742 O   0  0  0  0  0  0  0  0  0  0  0  0
   -1.5157  151.4000   55.5232 C   0  0  0  0  0  0  0  0  0  0  0  0
   -1.9994  152.1576   56.1474 H   0  0  0  0  0  0  0  0  0  0  0  0
   -2.2795  150.9022   54.9195 H   0  0  0  0  0  0  0  0  0  0  0  0
   -1.0432  150.6611   56.1765 H   0  0  0  0  0  0  0  0  0  0  0  0
   -0.2392  150.4611   52.8376 C   0  0  0  0  0  0  0  0  0  0  0  0
   -1.9762  150.8527   52.1320 Br  0  0  0  0  0  0  0  0  0  0  0  0
    0.5888  149.5380   52.1850 C   0  0  0  0  0  0  0  0  0  0  0  0
    0.2277  149.0603   51.2804 H   0  0  0  0  0  0  0  0  0  0  0  0
    1.8721  149.2301   52.6838 C   0  0  0  0  0  0  0  0  0  0  0  0
    2.7077  148.3435   52.0399 O   0  0  0  0  0  0  0  0  0  0  0  0
    2.0685  147.3193   51.2569 C   0  0  0  0  0  0  0  0  0  0  0  0
    2.8163  146.6152   50.8788 H   0  0  0  0  0  0  0  0  0  0  0  0
    1.5313  147.7404   50.4012 H   0  0  0  0  0  0  0  0  0  0  0  0
    1.3572  146.7589   51.8700 H   0  0  0  0  0  0  0  0  0  0  0  0
    3.9424  145.5507   56.3252 C   0  0  0  0  0  0  0  0  0  0  0  0
    4.1283  146.2617   57.1130 H   0  0  0  0  0  0  0  0  0  0  0  0
    3.7432  144.2238   56.5650 C   0  0  0  0  0  0  0  0  0  0  0  0
    3.8471  143.8066   57.8450 N   0  0  0  0  0  0  0  0  0  0  0  0
    4.0421  142.8156   57.9716 H   0  0  0  0  0  0  0  0  0  0  0  0
    4.2893  144.4758   58.4732 H   0  0  0  0  0  0  0  0  0  0  0  0
    3.4611  143.3447   55.5318 C   0  0  0  0  0  0  0  0  0  0  0  0
    3.2124  141.9699   55.8088 C   0  0  0  0  0  0  0  0  0  0  0  0
    3.0341  140.8397   56.0339 N   0  0  0  0  0  0  0  0  0  0  0  0
    1.7191  142.3463   53.1657 C   0  0  0  0  0  0  0  0  0  0  0  0
    1.2426  142.2903   54.1303 H   0  0  0  0  0  0  0  0  0  0  0  0
  1  2  1  0
  2  3  2  0
  3  4  1  0
  4  5  1  0
  5  6  1  0
  5  7  1  0
  4  8  2  0
  8  9  1  0
  9 10  1  0
 10 11  2  0
 11 12  1  0
 12 13  1  0
 13 14  1  0
 13 15  1  0
 15 16  2  0
 15 17  1  0
 17 18  1  0
 17 19  1  0
 17 20  1  0
 20 21  2  0
 21 22  1  0
 21 23  1  0
 23 24  1  0
 24 25  1  0
 25 26  1  0
 25 27  1  0
 25 28  1  0
 23 29  2  0
 29 30  1  0
 29 31  1  0
 31 32  1  0
 31 33  2  0
 33 34  1  0
 34 35  1  0
 35 36  1  0
 35 37  1  0
 35 38  1  0
 12 39  2  0
 39 40  1  0
 39 41  1  0
 41 42  1  0
 42 43  1  0
 42 44  1  0
 41 45  2  0
 45 46  1  0
 46 47  3  0
  9 48  2  0
 48 49  1  0
 48  2  1  0
 45 10  1  0
 33 20  1  0
M  END
>  <score>  (60) 
6.82785

$$$$

     RDKit          3D

 49 50  0  0  0  0  0  0  0  0999 V2000
    0.2861  149.1788   51.2321 H   0  0  0  0  0  0  0  0  0  0  0  0
    0.6232  149.5775   52.1822 C   0  0  0  0  0  0  0  0  0  0  0  0
   -0.1770  150.4795   52.9069 C   0  0  0  0  0  0  0  0  0  0  0  0
   -1.9120  150.9792   52.2640 Br  0  0  0  0  0  0  0  0  0  0  0  0
    0.3121  151.0384   54.1058 C   0  0  0  0  0  0  0  0  0  0  0  0
   -0.3838  151.9753   54.8171 O   0  0  0  0  0  0  0  0  0  0  0  0
   -1.4220  151.4060   55.6153 C   0  0  0  0  0  0  0  0  0  0  0  0
   -1.9376  152.1956   56.1706 H   0  0  0  0  0  0  0  0  0  0  0  0
   -2.1471  150.8854   54.9848 H   0  0  0  0  0  0  0  0  0  0  0  0
   -1.0078  150.6908   56.3284 H   0  0  0  0  0  0  0  0  0  0  0  0
    1.5692  150.6800   54.5798 C   0  0  0  0  0  0  0  0  0  0  0  0
    1.9529  151.1318   55.4950 H   0  0  0  0  0  0  0  0  0  0  0  0
    2.3447  149.7655   53.8689 C   0  0  0  0  0  0  0  0  0  0  0  0
    3.6986  149.4358   54.4155 C   0  0  0  0  0  0  0  0  0  0  0  0
    4.4200  149.3932   53.5985 H   0  0  0  0  0  0  0  0  0  0  0  0
    3.9776  150.2347   55.0829 H   0  0  0  0  0  0  0  0  0  0  0  0
    3.7336  148.1388   55.2009 C   0  0  0  0  0  0  0  0  0  0  0  0
    3.8161  148.1723   56.4187 O   0  0  0  0  0  0  0  0  0  0  0  0
    3.6967  146.9521   54.5433 N   0  0  0  0  0  0  0  0  0  0  0  0
    3.4335  146.9441   53.5703 H   0  0  0  0  0  0  0  0  0  0  0  0
    3.5710  145.7647   55.1414 C   0  0  0  0  0  0  0  0  0  0  0  0
    3.0884  144.9329   54.2608 N   0  0  0  0  0  0  0  0  0  0  0  0
    2.9190  143.6806   54.6327 C   0  0  0  0  0  0  0  0  0  0  0  0
    2.3623  142.8460   53.7193 N   0  0  0  0  0  0  0  0  0  0  0  0
    1.9727  141.9749   54.0470 H   0  0  0  0  0  0  0  0  0  0  0  0
    2.3533  143.1413   52.3837 C   0  0  0  0  0  0  0  0  0  0  0  0
    2.8889  144.1566   51.9755 O   0  0  0  0  0  0  0  0  0  0  0  0
    1.5577  142.2811   51.4208 C   0  0  0  0  0  0  0  0  0  0  0  0
    0.6601  141.9500   51.9398 H   0  0  0  0  0  0  0  0  0  0  0  0
    1.2590  142.9071   50.5751 H   0  0  0  0  0  0  0  0  0  0  0  0
    2.3239  141.0596   50.9157 C   0  0  0  0  0  0  0  0  0  0  0  0
    3.2513  141.3576   50.4195 H   0  0  0  0  0  0  0  0  0  0  0  0
    1.7091  140.5171   50.1922 H   0  0  0  0  0  0  0  0  0  0  0  0
    2.5671  140.3820   51.7400 H   0  0  0  0  0  0  0  0  0  0  0  0
    3.2436  143.2021   55.8741 C   0  0  0  0  0  0  0  0  0  0  0  0
    3.1197  141.8120   56.1855 C   0  0  0  0  0  0  0  0  0  0  0  0
    3.0353  140.6775   56.4227 N   0  0  0  0  0  0  0  0  0  0  0  0
    3.7341  144.1191   56.7624 C   0  0  0  0  0  0  0  0  0  0  0  0
    4.1018  143.7499   57.9991 N   0  0  0  0  0  0  0  0  0  0  0  0
    4.4763  144.4527   58.6277 H   0  0  0  0  0  0  0  0  0  0  0  0
    4.0672  142.7723   58.2676 H   0  0  0  0  0  0  0  0  0  0  0  0
    3.8880  145.4327   56.4343 C   0  0  0  0  0  0  0  0  0  0  0  0
    4.2660  146.1371   57.1626 H   0  0  0  0  0  0  0  0  0  0  0  0
    1.8953  149.2208   52.6562 C   0  0  0  0  0  0  0  0  0  0  0  0
    2.7597  148.4071   51.9623 O   0  0  0  0  0  0  0  0  0  0  0  0
    2.1530  147.3067   51.2794 C   0  0  0  0  0  0  0  0  0  0  0  0
    1.5840  147.6510   50.4112 H   0  0  0  0  0  0  0  0  0  0  0  0
    2.9256  146.6129   50.9341 H   0  0  0  0  0  0  0  0  0  0  0  0
    1.4843  146.7666   51.9565 H   0  0  0  0  0  0  0  0  0  0  0  0
  1  2  1  0
  2  3  2  0
  3  4  1  0
  3  5  1  0
  5  6  1  0
  6  7  1  0
  7  8  1  0
  7  9  1  0
  7 10  1  0
  5 11  2  0
 11 12  1  0
 11 13  1  0
 13 14  1  0
 14 15  1  0
 14 16  1  0
 14 17  1  0
 17 18  2  0
 17 19  1  0
 19 20  1  0
 19 21  1  0
 21 22  2  0
 22 23  1  0
 23 24  1  0
 24 25  1  0
 24 26  1  0
 26 27  2  0
 26 28  1  0
 28 29  1  0
 28 30  1  0
 28 31  1  0
 31 32  1  0
 31 33  1  0
 31 34  1  0
 23 35  2  0
 35 36  1  0
 36 37  3  0
 35 38  1  0
 38 39  1  0
 39 40  1  0
 39 41  1  0
 38 42  2  0
 42 43  1  0
 13 44  2  0
 44 45  1  0
 45 46  1  0
 46 47  1  0
 46 48  1  0
 46 49  1  0
 44  2  1  0
 42 21  1  0
M  END
>  <score>  (61) 
6.82983

$$$$

     RDKit          3D

 49 50  0  0  0  0  0  0  0  0999 V2000
    3.2822  141.0386   52.3114 H   0  0  0  0  0  0  0  0  0  0  0  0
    3.6799  141.6345   52.9694 O   0  0  0  0  0  0  0  0  0  0  0  0
    2.9794  142.8906   53.0610 C   0  0  0  0  0  0  0  0  0  0  0  0
    3.4460  143.7759   54.2358 C   0  0  0  0  0  0  0  0  0  0  0  0
    3.5698  145.0875   53.9867 N   0  0  0  0  0  0  0  0  0  0  0  0
    3.7607  145.9170   54.9766 C   0  0  0  0  0  0  0  0  0  0  0  0
    3.7051  147.1698   54.5125 N   0  0  0  0  0  0  0  0  0  0  0  0
    3.5268  147.2489   53.5256 H   0  0  0  0  0  0  0  0  0  0  0  0
    3.6542  148.2880   55.2792 C   0  0  0  0  0  0  0  0  0  0  0  0
    3.7807  148.2253   56.4873 O   0  0  0  0  0  0  0  0  0  0  0  0
    3.6162  149.6162   54.5545 C   0  0  0  0  0  0  0  0  0  0  0  0
    3.7791  150.4128   55.2832 H   0  0  0  0  0  0  0  0  0  0  0  0
    4.4338  149.6246   53.8292 H   0  0  0  0  0  0  0  0  0  0  0  0
    2.2866  149.8590   53.8821 C   0  0  0  0  0  0  0  0  0  0  0  0
    1.4344  150.7547   54.5354 C   0  0  0  0  0  0  0  0  0  0  0  0
    1.7398  151.1951   55.4822 H   0  0  0  0  0  0  0  0  0  0  0  0
    0.1945  151.0918   53.9991 C   0  0  0  0  0  0  0  0  0  0  0  0
   -0.5760  152.0114   54.6571 O   0  0  0  0  0  0  0  0  0  0  0  0
   -1.5422  151.3972   55.5137 C   0  0  0  0  0  0  0  0  0  0  0  0
   -2.0173  152.1516   56.1479 H   0  0  0  0  0  0  0  0  0  0  0  0
   -2.3171  150.9055   54.9186 H   0  0  0  0  0  0  0  0  0  0  0  0
   -1.0687  150.6532   56.1611 H   0  0  0  0  0  0  0  0  0  0  0  0
   -0.2360  150.4673   52.8168 C   0  0  0  0  0  0  0  0  0  0  0  0
   -1.9736  150.8295   52.0959 Br  0  0  0  0  0  0  0  0  0  0  0  0
    0.5932  149.5331   52.1792 C   0  0  0  0  0  0  0  0  0  0  0  0
    0.2353  149.0391   51.2822 H   0  0  0  0  0  0  0  0  0  0  0  0
    1.8688  149.2199   52.6867 C   0  0  0  0  0  0  0  0  0  0  0  0
    2.6920  148.3028   52.0631 O   0  0  0  0  0  0  0  0  0  0  0  0
    2.0470  147.3068   51.2428 C   0  0  0  0  0  0  0  0  0  0  0  0
    1.3112  146.7491   51.8310 H   0  0  0  0  0  0  0  0  0  0  0  0
    2.7856  146.5923   50.8629 H   0  0  0  0  0  0  0  0  0  0  0  0
    1.5376  147.7553   50.3822 H   0  0  0  0  0  0  0  0  0  0  0  0
    3.8757  145.5446   56.2792 C   0  0  0  0  0  0  0  0  0  0  0  0
    4.0239  146.2597   57.0710 H   0  0  0  0  0  0  0  0  0  0  0  0
    3.7692  144.2160   56.5418 C   0  0  0  0  0  0  0  0  0  0  0  0
    3.8726  143.8528   57.8345 N   0  0  0  0  0  0  0  0  0  0  0  0
    4.2646  144.5500   58.4595 H   0  0  0  0  0  0  0  0  0  0  0  0
    4.0721  142.8737   58.0136 H   0  0  0  0  0  0  0  0  0  0  0  0
    3.5348  143.2953   55.5474 C   0  0  0  0  0  0  0  0  0  0  0  0
    3.3097  141.9187   55.8552 C   0  0  0  0  0  0  0  0  0  0  0  0
    3.1147  140.7934   56.0843 N   0  0  0  0  0  0  0  0  0  0  0  0
    3.1177  143.6103   51.7095 C   0  0  0  0  0  0  0  0  0  0  0  0
    2.7660  142.9904   50.8859 H   0  0  0  0  0  0  0  0  0  0  0  0
    2.5229  144.5237   51.7177 H   0  0  0  0  0  0  0  0  0  0  0  0
    4.1563  143.8916   51.5231 H   0  0  0  0  0  0  0  0  0  0  0  0
    1.5075  142.5771   53.3211 C   0  0  0  0  0  0  0  0  0  0  0  0
    0.8770  143.4768   53.2633 H   0  0  0  0  0  0  0  0  0  0  0  0
    1.4131  142.1663   54.3252 H   0  0  0  0  0  0  0  0  0  0  0  0
    1.1462  141.8235   52.6188 H   0  0  0  0  0  0  0  0  0  0  0  0
  1  2  1  0
  2  3  1  0
  3  4  1  0
  4  5  2  0
  5  6  1  0
  6  7  1  0
  7  8  1  0
  7  9  1  0
  9 10  2  0
  9 11  1  0
 11 12  1  0
 11 13  1  0
 11 14  1  0
 14 15  2  0
 15 16  1  0
 15 17  1  0
 17 18  1  0
 18 19  1  0
 19 20  1  0
 19 21  1  0
 19 22  1  0
 17 23  2  0
 23 24  1  0
 23 25  1  0
 25 26  1  0
 25 27  2  0
 27 28  1  0
 28 29  1  0
 29 30  1  0
 29 31  1  0
 29 32  1  0
  6 33  2  0
 33 34  1  0
 33 35  1  0
 35 36  1  0
 36 37  1  0
 36 38  1  0
 35 39  2  0
 39 40  1  0
 40 41  3  0
  3 42  1  0
 42 43  1  0
 42 44  1  0
 42 45  1  0
  3 46  1  0
 46 47  1  0
 46 48  1  0
 46 49  1  0
 39  4  1  0
 27 14  1  0
M  END
>  <score>  (62) 
6.8349

$$$$

     RDKit          3D

 47 48  0  0  0  0  0  0  0  0999 V2000
    0.3080  149.2020   51.2536 H   0  0  0  0  0  0  0  0  0  0  0  0
    0.6589  149.6071   52.1957 C   0  0  0  0  0  0  0  0  0  0  0  0
   -0.1441  150.4998   52.9353 C   0  0  0  0  0  0  0  0  0  0  0  0
   -1.8687  150.9841   52.2771 Br  0  0  0  0  0  0  0  0  0  0  0  0
    0.3344  151.0584   54.1314 C   0  0  0  0  0  0  0  0  0  0  0  0
   -0.3782  151.9760   54.8602 O   0  0  0  0  0  0  0  0  0  0  0  0
   -1.4263  151.4043   55.6478 C   0  0  0  0  0  0  0  0  0  0  0  0
   -1.9423  152.2013   56.1922 H   0  0  0  0  0  0  0  0  0  0  0  0
   -1.0143  150.7029   56.3754 H   0  0  0  0  0  0  0  0  0  0  0  0
   -2.1532  150.8748   55.0227 H   0  0  0  0  0  0  0  0  0  0  0  0
    1.5974  150.6893   54.5720 C   0  0  0  0  0  0  0  0  0  0  0  0
    1.9901  151.1452   55.4716 H   0  0  0  0  0  0  0  0  0  0  0  0
    2.3802  149.7811   53.8584 C   0  0  0  0  0  0  0  0  0  0  0  0
    3.7254  149.4652   54.3991 C   0  0  0  0  0  0  0  0  0  0  0  0
    3.9949  150.3417   54.9783 H   0  0  0  0  0  0  0  0  0  0  0  0
    4.4128  149.3542   53.5586 H   0  0  0  0  0  0  0  0  0  0  0  0
    3.7453  148.1929   55.2598 C   0  0  0  0  0  0  0  0  0  0  0  0
    3.8482  148.2465   56.4753 O   0  0  0  0  0  0  0  0  0  0  0  0
    3.6954  146.9776   54.6353 N   0  0  0  0  0  0  0  0  0  0  0  0
    3.5137  146.9383   53.6472 H   0  0  0  0  0  0  0  0  0  0  0  0
    3.5218  145.7744   55.2128 C   0  0  0  0  0  0  0  0  0  0  0  0
    3.0223  144.9496   54.3198 N   0  0  0  0  0  0  0  0  0  0  0  0
    2.9013  143.6711   54.6551 C   0  0  0  0  0  0  0  0  0  0  0  0
    2.3678  142.8138   53.6945 N   0  0  0  0  0  0  0  0  0  0  0  0
    1.1734  143.2112   52.9212 C   0  0  0  0  0  0  0  0  0  0  0  0
    1.4455  143.8315   52.0604 H   0  0  0  0  0  0  0  0  0  0  0  0
    0.6903  142.2996   52.5516 H   0  0  0  0  0  0  0  0  0  0  0  0
    0.4388  143.7624   53.5209 H   0  0  0  0  0  0  0  0  0  0  0  0
    3.2480  141.8218   53.0423 C   0  0  0  0  0  0  0  0  0  0  0  0
    2.6623  140.9291   52.7927 H   0  0  0  0  0  0  0  0  0  0  0  0
    4.0860  141.5102   53.6809 H   0  0  0  0  0  0  0  0  0  0  0  0
    3.6509  142.2316   52.1064 H   0  0  0  0  0  0  0  0  0  0  0  0
    3.2808  143.1916   55.8898 C   0  0  0  0  0  0  0  0  0  0  0  0
    3.1508  141.8130   56.2162 C   0  0  0  0  0  0  0  0  0  0  0  0
    3.0322  140.6783   56.4396 N   0  0  0  0  0  0  0  0  0  0  0  0
    3.7571  144.0991   56.7906 C   0  0  0  0  0  0  0  0  0  0  0  0
    4.1479  143.7188   58.0155 N   0  0  0  0  0  0  0  0  0  0  0  0
    4.4939  144.4309   58.6548 H   0  0  0  0  0  0  0  0  0  0  0  0
    4.0587  142.7420   58.2875 H   0  0  0  0  0  0  0  0  0  0  0  0
    3.8851  145.4170   56.4825 C   0  0  0  0  0  0  0  0  0  0  0  0
    4.3003  146.1152   57.1937 H   0  0  0  0  0  0  0  0  0  0  0  0
    1.9343  149.2391   52.6483 C   0  0  0  0  0  0  0  0  0  0  0  0
    2.7756  148.4028   51.9499 O   0  0  0  0  0  0  0  0  0  0  0  0
    2.1652  147.2968   51.2821 C   0  0  0  0  0  0  0  0  0  0  0  0
    2.9498  146.5975   50.9737 H   0  0  0  0  0  0  0  0  0  0  0  0
    1.4742  146.7698   51.9498 H   0  0  0  0  0  0  0  0  0  0  0  0
    1.6231  147.6363   50.3946 H   0  0  0  0  0  0  0  0  0  0  0  0
  1  2  1  0
  2  3  2  0
  3  4  1  0
  3  5  1  0
  5  6  1  0
  6  7  1  0
  7  8  1  0
  7  9  1  0
  7 10  1  0
  5 11  2  0
 11 12  1  0
 11 13  1  0
 13 14  1  0
 14 15  1  0
 14 16  1  0
 14 17  1  0
 17 18  2  0
 17 19  1  0
 19 20  1  0
 19 21  1  0
 21 22  2  0
 22 23  1  0
 23 24  1  0
 24 25  1  0
 25 26  1  0
 25 27  1  0
 25 28  1  0
 24 29  1  0
 29 30  1  0
 29 31  1  0
 29 32  1  0
 23 33  2  0
 33 34  1  0
 34 35  3  0
 33 36  1  0
 36 37  1  0
 37 38  1  0
 37 39  1  0
 36 40  2  0
 40 41  1  0
 13 42  2  0
 42 43  1  0
 43 44  1  0
 44 45  1  0
 44 46  1  0
 44 47  1  0
 42  2  1  0
 40 21  1  0
M  END
>  <score>  (63) 
6.83917

$$$$

     RDKit          3D

 39 40  0  0  0  0  0  0  0  0999 V2000
    0.3063  149.2007   51.2516 H   0  0  0  0  0  0  0  0  0  0  0  0
    0.6588  149.6051   52.1953 C   0  0  0  0  0  0  0  0  0  0  0  0
   -0.1450  150.4998   52.9340 C   0  0  0  0  0  0  0  0  0  0  0  0
   -1.8711  150.9840   52.2757 Br  0  0  0  0  0  0  0  0  0  0  0  0
    0.3324  151.0586   54.1312 C   0  0  0  0  0  0  0  0  0  0  0  0
   -0.3799  151.9768   54.8602 O   0  0  0  0  0  0  0  0  0  0  0  0
   -1.4269  151.4042   55.6480 C   0  0  0  0  0  0  0  0  0  0  0  0
   -2.1531  150.8753   55.0219 H   0  0  0  0  0  0  0  0  0  0  0  0
   -1.9430  152.2015   56.1921 H   0  0  0  0  0  0  0  0  0  0  0  0
   -1.0140  150.7026   56.3744 H   0  0  0  0  0  0  0  0  0  0  0  0
    1.5955  150.6928   54.5736 C   0  0  0  0  0  0  0  0  0  0  0  0
    1.9894  151.1467   55.4740 H   0  0  0  0  0  0  0  0  0  0  0  0
    2.3813  149.7879   53.8568 C   0  0  0  0  0  0  0  0  0  0  0  0
    3.7286  149.4799   54.4004 C   0  0  0  0  0  0  0  0  0  0  0  0
    3.9972  150.3577   54.9728 H   0  0  0  0  0  0  0  0  0  0  0  0
    4.4165  149.3628   53.5591 H   0  0  0  0  0  0  0  0  0  0  0  0
    3.7543  148.2201   55.2700 C   0  0  0  0  0  0  0  0  0  0  0  0
    3.8527  148.2810   56.4879 O   0  0  0  0  0  0  0  0  0  0  0  0
    3.7217  147.0022   54.6574 N   0  0  0  0  0  0  0  0  0  0  0  0
    3.5227  146.9618   53.6686 H   0  0  0  0  0  0  0  0  0  0  0  0
    3.5620  145.8120   55.2522 C   0  0  0  0  0  0  0  0  0  0  0  0
    3.0768  144.9868   54.3543 N   0  0  0  0  0  0  0  0  0  0  0  0
    2.9304  143.7074   54.6774 C   0  0  0  0  0  0  0  0  0  0  0  0
    2.1417  142.4261   53.0158 I   0  0  0  0  0  0  0  0  0  0  0  0
    3.2710  143.2183   55.9251 C   0  0  0  0  0  0  0  0  0  0  0  0
    3.1446  141.8300   56.2415 C   0  0  0  0  0  0  0  0  0  0  0  0
    3.0396  140.6945   56.4589 N   0  0  0  0  0  0  0  0  0  0  0  0
    3.7592  144.1266   56.8334 C   0  0  0  0  0  0  0  0  0  0  0  0
    4.1590  143.7303   58.0505 N   0  0  0  0  0  0  0  0  0  0  0  0
    4.0698  142.7520   58.3144 H   0  0  0  0  0  0  0  0  0  0  0  0
    4.5105  144.4278   58.7008 H   0  0  0  0  0  0  0  0  0  0  0  0
    3.9079  145.4506   56.5292 C   0  0  0  0  0  0  0  0  0  0  0  0
    4.3263  146.1468   57.2477 H   0  0  0  0  0  0  0  0  0  0  0  0
    1.9335  149.2402   52.6494 C   0  0  0  0  0  0  0  0  0  0  0  0
    2.7759  148.4021   51.9514 O   0  0  0  0  0  0  0  0  0  0  0  0
    2.1646  147.2968   51.2815 C   0  0  0  0  0  0  0  0  0  0  0  0
    2.9492  146.5973   50.9717 H   0  0  0  0  0  0  0  0  0  0  0  0
    1.6228  147.6376   50.3942 H   0  0  0  0  0  0  0  0  0  0  0  0
    1.4739  146.7697   51.9493 H   0  0  0  0  0  0  0  0  0  0  0  0
  1  2  1  0
  2  3  2  0
  3  4  1  0
  3  5  1  0
  5  6  1  0
  6  7  1  0
  7  8  1  0
  7  9  1  0
  7 10  1  0
  5 11  2  0
 11 12  1  0
 11 13  1  0
 13 14  1  0
 14 15  1  0
 14 16  1  0
 14 17  1  0
 17 18  2  0
 17 19  1  0
 19 20  1  0
 19 21  1  0
 21 22  2  0
 22 23  1  0
 23 24  1  0
 23 25  2  0
 25 26  1  0
 26 27  3  0
 25 28  1  0
 28 29  1  0
 29 30  1  0
 29 31  1  0
 28 32  2  0
 32 33  1  0
 13 34  2  0
 34 35  1  0
 35 36  1  0
 36 37  1  0
 36 38  1  0
 36 39  1  0
 34  2  1  0
 32 21  1  0
M  END
>  <score>  (64) 
6.83933

$$$$

     RDKit          3D

 43 44  0  0  0  0  0  0  0  0999 V2000
    0.5539  141.5695   53.1405 H   0  0  0  0  0  0  0  0  0  0  0  0
    0.9993  142.7325   52.6240 S   0  0  0  0  0  0  0  0  0  0  0  0
    2.6753  142.7319   53.3851 C   0  0  0  0  0  0  0  0  0  0  0  0
    2.9261  141.7129   53.6685 H   0  0  0  0  0  0  0  0  0  0  0  0
    3.3967  143.0231   52.6200 H   0  0  0  0  0  0  0  0  0  0  0  0
    2.8697  143.6623   54.5540 C   0  0  0  0  0  0  0  0  0  0  0  0
    2.9792  144.9463   54.2373 N   0  0  0  0  0  0  0  0  0  0  0  0
    3.4171  145.7744   55.1465 C   0  0  0  0  0  0  0  0  0  0  0  0
    3.5994  146.9700   54.5646 N   0  0  0  0  0  0  0  0  0  0  0  0
    3.4057  146.9768   53.5751 H   0  0  0  0  0  0  0  0  0  0  0  0
    3.7051  148.1482   55.2265 C   0  0  0  0  0  0  0  0  0  0  0  0
    3.7963  148.1703   56.4436 O   0  0  0  0  0  0  0  0  0  0  0  0
    3.7051  149.4445   54.4303 C   0  0  0  0  0  0  0  0  0  0  0  0
    3.9581  150.2383   55.1171 H   0  0  0  0  0  0  0  0  0  0  0  0
    4.4499  149.4081   53.6288 H   0  0  0  0  0  0  0  0  0  0  0  0
    2.3575  149.7787   53.8610 C   0  0  0  0  0  0  0  0  0  0  0  0
    1.5590  150.6817   54.5687 C   0  0  0  0  0  0  0  0  0  0  0  0
    1.9184  151.1200   55.4948 H   0  0  0  0  0  0  0  0  0  0  0  0
    0.3026  151.0523   54.0970 C   0  0  0  0  0  0  0  0  0  0  0  0
   -0.4100  151.9843   54.8011 O   0  0  0  0  0  0  0  0  0  0  0  0
   -1.4396  151.4044   55.6014 C   0  0  0  0  0  0  0  0  0  0  0  0
   -2.1719  150.8884   54.9735 H   0  0  0  0  0  0  0  0  0  0  0  0
   -1.9490  152.1880   56.1700 H   0  0  0  0  0  0  0  0  0  0  0  0
   -1.0115  150.6882   56.3054 H   0  0  0  0  0  0  0  0  0  0  0  0
   -0.1799  150.4825   52.9064 C   0  0  0  0  0  0  0  0  0  0  0  0
   -1.9132  150.9544   52.2380 Br  0  0  0  0  0  0  0  0  0  0  0  0
    0.6259  149.5804   52.1891 C   0  0  0  0  0  0  0  0  0  0  0  0
    0.2694  149.1669   51.2528 H   0  0  0  0  0  0  0  0  0  0  0  0
    1.9059  149.2269   52.6522 C   0  0  0  0  0  0  0  0  0  0  0  0
    2.7503  148.3849   51.9673 O   0  0  0  0  0  0  0  0  0  0  0  0
    2.1302  147.3022   51.2697 C   0  0  0  0  0  0  0  0  0  0  0  0
    2.9032  146.6014   50.9398 H   0  0  0  0  0  0  0  0  0  0  0  0
    1.5885  147.6649   50.3913 H   0  0  0  0  0  0  0  0  0  0  0  0
    1.4371  146.7680   51.9283 H   0  0  0  0  0  0  0  0  0  0  0  0
    3.7781  145.4170   56.4176 C   0  0  0  0  0  0  0  0  0  0  0  0
    4.2450  146.1149   57.0941 H   0  0  0  0  0  0  0  0  0  0  0  0
    3.6194  144.1074   56.7564 C   0  0  0  0  0  0  0  0  0  0  0  0
    4.0946  143.7364   57.9742 N   0  0  0  0  0  0  0  0  0  0  0  0
    4.4397  144.4568   58.6079 H   0  0  0  0  0  0  0  0  0  0  0  0
    4.0235  142.7691   58.2799 H   0  0  0  0  0  0  0  0  0  0  0  0
    3.1493  143.2016   55.8350 C   0  0  0  0  0  0  0  0  0  0  0  0
    3.0796  141.8176   56.1599 C   0  0  0  0  0  0  0  0  0  0  0  0
    3.0670  140.6831   56.4059 N   0  0  0  0  0  0  0  0  0  0  0  0
  1  2  1  0
  2  3  1  0
  3  4  1  0
  3  5  1  0
  3  6  1  0
  6  7  2  0
  7  8  1  0
  8  9  1  0
  9 10  1  0
  9 11  1  0
 11 12  2  0
 11 13  1  0
 13 14  1  0
 13 15  1  0
 13 16  1  0
 16 17  2  0
 17 18  1  0
 17 19  1  0
 19 20  1  0
 20 21  1  0
 21 22  1  0
 21 23  1  0
 21 24  1  0
 19 25  2  0
 25 26  1  0
 25 27  1  0
 27 28  1  0
 27 29  2  0
 29 30  1  0
 30 31  1  0
 31 32  1  0
 31 33  1  0
 31 34  1  0
  8 35  2  0
 35 36  1  0
 35 37  1  0
 37 38  1  0
 38 39  1  0
 38 40  1  0
 37 41  2  0
 41 42  1  0
 42 43  3  0
 41  6  1  0
 29 16  1  0
M  END
>  <score>  (65) 
6.8394

$$$$

     RDKit          3D

 49 50  0  0  0  0  0  0  0  0999 V2000
    0.3048  149.1983   51.2500 H   0  0  0  0  0  0  0  0  0  0  0  0
    0.6555  149.6014   52.1937 C   0  0  0  0  0  0  0  0  0  0  0  0
   -0.1468  150.4974   52.9306 C   0  0  0  0  0  0  0  0  0  0  0  0
   -1.8757  150.9843   52.2751 Br  0  0  0  0  0  0  0  0  0  0  0  0
    0.3296  151.0566   54.1297 C   0  0  0  0  0  0  0  0  0  0  0  0
   -0.3807  151.9761   54.8568 O   0  0  0  0  0  0  0  0  0  0  0  0
   -1.4263  151.4045   55.6449 C   0  0  0  0  0  0  0  0  0  0  0  0
   -2.1516  150.8765   55.0189 H   0  0  0  0  0  0  0  0  0  0  0  0
   -1.0136  150.7017   56.3695 H   0  0  0  0  0  0  0  0  0  0  0  0
   -1.9421  152.2005   56.1896 H   0  0  0  0  0  0  0  0  0  0  0  0
    1.5919  150.6939   54.5744 C   0  0  0  0  0  0  0  0  0  0  0  0
    1.9862  151.1468   55.4761 H   0  0  0  0  0  0  0  0  0  0  0  0
    2.3760  149.7908   53.8564 C   0  0  0  0  0  0  0  0  0  0  0  0
    3.7245  149.4899   54.4005 C   0  0  0  0  0  0  0  0  0  0  0  0
    3.9939  150.3680   54.9747 H   0  0  0  0  0  0  0  0  0  0  0  0
    4.4171  149.3718   53.5637 H   0  0  0  0  0  0  0  0  0  0  0  0
    3.7582  148.2410   55.2805 C   0  0  0  0  0  0  0  0  0  0  0  0
    3.8552  148.3083   56.4949 O   0  0  0  0  0  0  0  0  0  0  0  0
    3.7487  147.0290   54.6706 N   0  0  0  0  0  0  0  0  0  0  0  0
    3.5240  146.9738   53.6894 H   0  0  0  0  0  0  0  0  0  0  0  0
    3.6391  145.8392   55.2663 C   0  0  0  0  0  0  0  0  0  0  0  0
    3.2090  145.0257   54.3316 N   0  0  0  0  0  0  0  0  0  0  0  0
    2.9759  143.7275   54.5917 C   0  0  0  0  0  0  0  0  0  0  0  0
    2.2870  142.9178   53.4960 C   0  0  0  0  0  0  0  0  0  0  0  0
    1.2401  142.3294   53.7362 O   0  0  0  0  0  0  0  0  0  0  0  0
    2.6359  142.9184   52.1438 N   0  0  0  0  0  0  0  0  0  0  0  0
    3.9286  143.4200   51.7758 C   0  0  0  0  0  0  0  0  0  0  0  0
    4.6143  142.9067   52.4320 H   0  0  0  0  0  0  0  0  0  0  0  0
    3.9804  144.5013   51.9163 H   0  0  0  0  0  0  0  0  0  0  0  0
    4.1912  143.1835   50.7466 H   0  0  0  0  0  0  0  0  0  0  0  0
    1.8155  142.2493   51.1464 C   0  0  0  0  0  0  0  0  0  0  0  0
    0.8040  142.6673   51.1857 H   0  0  0  0  0  0  0  0  0  0  0  0
    2.2312  142.4108   50.1500 H   0  0  0  0  0  0  0  0  0  0  0  0
    1.7630  141.1696   51.3339 H   0  0  0  0  0  0  0  0  0  0  0  0
    3.2982  143.2425   55.8743 C   0  0  0  0  0  0  0  0  0  0  0  0
    3.1529  141.8599   56.2109 C   0  0  0  0  0  0  0  0  0  0  0  0
    3.0434  140.7302   56.4648 N   0  0  0  0  0  0  0  0  0  0  0  0
    3.7797  144.1398   56.8193 C   0  0  0  0  0  0  0  0  0  0  0  0
    4.1462  143.7346   58.0529 N   0  0  0  0  0  0  0  0  0  0  0  0
    4.5063  144.4243   58.7048 H   0  0  0  0  0  0  0  0  0  0  0  0
    4.0685  142.7548   58.3130 H   0  0  0  0  0  0  0  0  0  0  0  0
    3.9274  145.4723   56.5498 C   0  0  0  0  0  0  0  0  0  0  0  0
    4.3212  146.1556   57.2913 H   0  0  0  0  0  0  0  0  0  0  0  0
    1.9301  149.2379   52.6495 C   0  0  0  0  0  0  0  0  0  0  0  0
    2.7752  148.4034   51.9521 O   0  0  0  0  0  0  0  0  0  0  0  0
    2.1642  147.2985   51.2812 C   0  0  0  0  0  0  0  0  0  0  0  0
    2.9482  146.6102   50.9481 H   0  0  0  0  0  0  0  0  0  0  0  0
    1.4924  146.7570   51.9567 H   0  0  0  0  0  0  0  0  0  0  0  0
    1.6007  147.6419   50.4088 H   0  0  0  0  0  0  0  0  0  0  0  0
  1  2  1  0
  2  3  2  0
  3  4  1  0
  3  5  1  0
  5  6  1  0
  6  7  1  0
  7  8  1  0
  7  9  1  0
  7 10  1  0
  5 11  2  0
 11 12  1  0
 11 13  1  0
 13 14  1  0
 14 15  1  0
 14 16  1  0
 14 17  1  0
 17 18  2  0
 17 19  1  0
 19 20  1  0
 19 21  1  0
 21 22  2  0
 22 23  1  0
 23 24  1  0
 24 25  2  0
 24 26  1  0
 26 27  1  0
 27 28  1  0
 27 29  1  0
 27 30  1  0
 26 31  1  0
 31 32  1  0
 31 33  1  0
 31 34  1  0
 23 35  2  0
 35 36  1  0
 36 37  3  0
 35 38  1  0
 38 39  1  0
 39 40  1  0
 39 41  1  0
 38 42  2  0
 42 43  1  0
 13 44  2  0
 44 45  1  0
 45 46  1  0
 46 47  1  0
 46 48  1  0
 46 49  1  0
 44  2  1  0
 42 21  1  0
M  END
>  <score>  (66) 
6.83959

$$$$

     RDKit          3D

 45 46  0  0  0  0  0  0  0  0999 V2000
    0.2443  149.1261   51.2621 H   0  0  0  0  0  0  0  0  0  0  0  0
    0.5939  149.5531   52.1927 C   0  0  0  0  0  0  0  0  0  0  0  0
   -0.2225  150.4636   52.8824 C   0  0  0  0  0  0  0  0  0  0  0  0
   -1.9570  150.9249   52.2103 Br  0  0  0  0  0  0  0  0  0  0  0  0
    0.2546  151.0495   54.0595 C   0  0  0  0  0  0  0  0  0  0  0  0
   -0.4522  151.9990   54.7368 O   0  0  0  0  0  0  0  0  0  0  0  0
   -1.4538  151.4032   55.5525 C   0  0  0  0  0  0  0  0  0  0  0  0
   -2.1960  150.8961   54.9276 H   0  0  0  0  0  0  0  0  0  0  0  0
   -1.0055  150.6768   56.2358 H   0  0  0  0  0  0  0  0  0  0  0  0
   -1.9476  152.1766   56.1439 H   0  0  0  0  0  0  0  0  0  0  0  0
    1.4918  150.6736   54.5577 C   0  0  0  0  0  0  0  0  0  0  0  0
    1.8265  151.1199   55.4855 H   0  0  0  0  0  0  0  0  0  0  0  0
    2.3174  149.7885   53.8694 C   0  0  0  0  0  0  0  0  0  0  0  0
    3.6724  149.5448   54.4667 C   0  0  0  0  0  0  0  0  0  0  0  0
    3.8463  150.3651   55.1553 H   0  0  0  0  0  0  0  0  0  0  0  0
    4.4386  149.5359   53.6765 H   0  0  0  0  0  0  0  0  0  0  0  0
    3.7415  148.2670   55.2871 C   0  0  0  0  0  0  0  0  0  0  0  0
    3.8219  148.2735   56.5032 O   0  0  0  0  0  0  0  0  0  0  0  0
    3.8230  147.1000   54.6152 N   0  0  0  0  0  0  0  0  0  0  0  0
    3.4915  147.1075   53.6626 H   0  0  0  0  0  0  0  0  0  0  0  0
    3.7503  145.8884   55.1839 C   0  0  0  0  0  0  0  0  0  0  0  0
    3.3375  145.0753   54.2363 N   0  0  0  0  0  0  0  0  0  0  0  0
    3.0976  143.7700   54.4758 C   0  0  0  0  0  0  0  0  0  0  0  0
    2.3420  142.7541   53.0624 S   0  0  0  0  0  0  0  0  0  0  0  0
    3.0907  141.5136   52.7595 O   0  0  0  0  0  0  0  0  0  0  0  0
    0.9470  142.4024   53.3375 O   0  0  0  0  0  0  0  0  0  0  0  0
    2.2002  143.7489   51.5359 C   0  0  0  0  0  0  0  0  0  0  0  0
    1.4899  144.5802   51.6301 H   0  0  0  0  0  0  0  0  0  0  0  0
    1.8164  143.1172   50.7348 H   0  0  0  0  0  0  0  0  0  0  0  0
    3.1818  144.1197   51.2474 H   0  0  0  0  0  0  0  0  0  0  0  0
    3.3721  143.2968   55.7951 C   0  0  0  0  0  0  0  0  0  0  0  0
    3.2156  141.9281   56.1706 C   0  0  0  0  0  0  0  0  0  0  0  0
    3.1205  140.8156   56.4952 N   0  0  0  0  0  0  0  0  0  0  0  0
    3.7965  144.1940   56.7864 C   0  0  0  0  0  0  0  0  0  0  0  0
    4.0184  143.8404   58.0957 N   0  0  0  0  0  0  0  0  0  0  0  0
    4.4711  144.5437   58.6737 H   0  0  0  0  0  0  0  0  0  0  0  0
    4.1575  142.8573   58.3459 H   0  0  0  0  0  0  0  0  0  0  0  0
    3.9815  145.5207   56.4866 C   0  0  0  0  0  0  0  0  0  0  0  0
    4.2787  146.2327   57.2466 H   0  0  0  0  0  0  0  0  0  0  0  0
    1.8783  149.2194   52.6646 C   0  0  0  0  0  0  0  0  0  0  0  0
    2.7294  148.3798   51.9884 O   0  0  0  0  0  0  0  0  0  0  0  0
    2.1010  147.3205   51.2655 C   0  0  0  0  0  0  0  0  0  0  0  0
    2.8683  146.6191   50.9244 H   0  0  0  0  0  0  0  0  0  0  0  0
    1.3990  146.7839   51.9136 H   0  0  0  0  0  0  0  0  0  0  0  0
    1.5647  147.7108   50.3945 H   0  0  0  0  0  0  0  0  0  0  0  0
  1  2  1  0
  2  3  2  0
  3  4  1  0
  3  5  1  0
  5  6  1  0
  6  7  1  0
  7  8  1  0
  7  9  1  0
  7 10  1  0
  5 11  2  0
 11 12  1  0
 11 13  1  0
 13 14  1  0
 14 15  1  0
 14 16  1  0
 14 17  1  0
 17 18  2  0
 17 19  1  0
 19 20  1  0
 19 21  1  0
 21 22  2  0
 22 23  1  0
 23 24  1  0
 24 25  2  0
 24 26  2  0
 24 27  1  0
 27 28  1  0
 27 29  1  0
 27 30  1  0
 23 31  2  0
 31 32  1  0
 32 33  3  0
 31 34  1  0
 34 35  1  0
 35 36  1  0
 35 37  1  0
 34 38  2  0
 38 39  1  0
 13 40  2  0
 40 41  1  0
 41 42  1  0
 42 43  1  0
 42 44  1  0
 42 45  1  0
 40  2  1  0
 38 21  1  0
M  END
>  <score>  (67) 
6.84831

$$$$

     RDKit          3D

 50 51  0  0  0  0  0  0  0  0999 V2000
    0.3020  149.1929   51.2417 H   0  0  0  0  0  0  0  0  0  0  0  0
    0.6503  149.5941   52.1901 C   0  0  0  0  0  0  0  0  0  0  0  0
   -0.1530  150.4916   52.9264 C   0  0  0  0  0  0  0  0  0  0  0  0
   -1.8838  150.9859   52.2761 Br  0  0  0  0  0  0  0  0  0  0  0  0
    0.3254  151.0530   54.1262 C   0  0  0  0  0  0  0  0  0  0  0  0
   -0.3816  151.9762   54.8513 O   0  0  0  0  0  0  0  0  0  0  0  0
   -1.4244  151.4032   55.6389 C   0  0  0  0  0  0  0  0  0  0  0  0
   -1.9367  152.2024   56.1823 H   0  0  0  0  0  0  0  0  0  0  0  0
   -2.1494  150.8775   55.0098 H   0  0  0  0  0  0  0  0  0  0  0  0
   -1.0101  150.6979   56.3617 H   0  0  0  0  0  0  0  0  0  0  0  0
    1.5864  150.6878   54.5764 C   0  0  0  0  0  0  0  0  0  0  0  0
    1.9810  151.1444   55.4762 H   0  0  0  0  0  0  0  0  0  0  0  0
    2.3694  149.7820   53.8633 C   0  0  0  0  0  0  0  0  0  0  0  0
    3.7159  149.4735   54.4061 C   0  0  0  0  0  0  0  0  0  0  0  0
    3.9873  150.3408   54.9965 H   0  0  0  0  0  0  0  0  0  0  0  0
    4.4089  149.3785   53.5685 H   0  0  0  0  0  0  0  0  0  0  0  0
    3.7544  148.2062   55.2640 C   0  0  0  0  0  0  0  0  0  0  0  0
    3.8411  148.2693   56.4808 O   0  0  0  0  0  0  0  0  0  0  0  0
    3.7246  146.9961   54.6391 N   0  0  0  0  0  0  0  0  0  0  0  0
    3.4936  146.9431   53.6571 H   0  0  0  0  0  0  0  0  0  0  0  0
    3.5452  145.8144   55.2453 C   0  0  0  0  0  0  0  0  0  0  0  0
    3.0448  144.9872   54.3510 N   0  0  0  0  0  0  0  0  0  0  0  0
    2.9118  143.6864   54.6571 C   0  0  0  0  0  0  0  0  0  0  0  0
    2.3080  142.7558   53.6033 C   0  0  0  0  0  0  0  0  0  0  0  0
    1.5178  142.1893   54.0944 H   0  0  0  0  0  0  0  0  0  0  0  0
    1.8570  143.3949   52.8404 H   0  0  0  0  0  0  0  0  0  0  0  0
    3.2529  141.8268   52.9230 N   0  0  0  0  0  0  0  0  0  0  0  0
    4.1370  142.5511   52.0191 C   0  0  0  0  0  0  0  0  0  0  0  0
    3.6409  142.7797   51.0741 H   0  0  0  0  0  0  0  0  0  0  0  0
    5.0188  141.9483   51.8091 H   0  0  0  0  0  0  0  0  0  0  0  0
    4.4326  143.4860   52.4949 H   0  0  0  0  0  0  0  0  0  0  0  0
    2.7483  140.6278   52.2515 C   0  0  0  0  0  0  0  0  0  0  0  0
    2.1801  139.9926   52.9261 H   0  0  0  0  0  0  0  0  0  0  0  0
    2.1158  140.9004   51.4061 H   0  0  0  0  0  0  0  0  0  0  0  0
    3.5920  140.0444   51.8746 H   0  0  0  0  0  0  0  0  0  0  0  0
    3.2649  143.2222   55.9193 C   0  0  0  0  0  0  0  0  0  0  0  0
    3.1464  141.8381   56.2445 C   0  0  0  0  0  0  0  0  0  0  0  0
    3.0464  140.6976   56.4658 N   0  0  0  0  0  0  0  0  0  0  0  0
    3.7501  144.1408   56.8220 C   0  0  0  0  0  0  0  0  0  0  0  0
    4.1504  143.7420   58.0409 N   0  0  0  0  0  0  0  0  0  0  0  0
    4.5057  144.4347   58.6908 H   0  0  0  0  0  0  0  0  0  0  0  0
    4.0689  142.7617   58.2962 H   0  0  0  0  0  0  0  0  0  0  0  0
    3.8997  145.4627   56.5203 C   0  0  0  0  0  0  0  0  0  0  0  0
    4.3277  146.1453   57.2435 H   0  0  0  0  0  0  0  0  0  0  0  0
    1.9258  149.2327   52.6530 C   0  0  0  0  0  0  0  0  0  0  0  0
    2.7721  148.4046   51.9517 O   0  0  0  0  0  0  0  0  0  0  0  0
    2.1601  147.3012   51.2810 C   0  0  0  0  0  0  0  0  0  0  0  0
    2.9435  146.6007   50.9704 H   0  0  0  0  0  0  0  0  0  0  0  0
    1.6179  147.6459   50.3946 H   0  0  0  0  0  0  0  0  0  0  0  0
    1.4684  146.7770   51.9514 H   0  0  0  0  0  0  0  0  0  0  0  0
  1  2  1  0
  2  3  2  0
  3  4  1  0
  3  5  1  0
  5  6  1  0
  6  7  1  0
  7  8  1  0
  7  9  1  0
  7 10  1  0
  5 11  2  0
 11 12  1  0
 11 13  1  0
 13 14  1  0
 14 15  1  0
 14 16  1  0
 14 17  1  0
 17 18  2  0
 17 19  1  0
 19 20  1  0
 19 21  1  0
 21 22  2  0
 22 23  1  0
 23 24  1  0
 24 25  1  0
 24 26  1  0
 24 27  1  0
 27 28  1  0
 28 29  1  0
 28 30  1  0
 28 31  1  0
 27 32  1  0
 32 33  1  0
 32 34  1  0
 32 35  1  0
 23 36  2  0
 36 37  1  0
 37 38  3  0
 36 39  1  0
 39 40  1  0
 40 41  1  0
 40 42  1  0
 39 43  2  0
 43 44  1  0
 13 45  2  0
 45 46  1  0
 46 47  1  0
 47 48  1  0
 47 49  1  0
 47 50  1  0
 45  2  1  0
 43 21  1  0
M  END
>  <score>  (68) 
6.85151

$$$$

     RDKit          3D

 50 51  0  0  0  0  0  0  0  0999 V2000
    0.3081  149.2007   51.2505 H   0  0  0  0  0  0  0  0  0  0  0  0
    0.6589  149.6051   52.1967 C   0  0  0  0  0  0  0  0  0  0  0  0
   -0.1456  150.4985   52.9356 C   0  0  0  0  0  0  0  0  0  0  0  0
   -1.8717  150.9859   52.2789 Br  0  0  0  0  0  0  0  0  0  0  0  0
    0.3333  151.0561   54.1314 C   0  0  0  0  0  0  0  0  0  0  0  0
   -0.3777  151.9740   54.8573 O   0  0  0  0  0  0  0  0  0  0  0  0
   -1.4246  151.4034   55.6449 C   0  0  0  0  0  0  0  0  0  0  0  0
   -2.1511  150.8755   55.0204 H   0  0  0  0  0  0  0  0  0  0  0  0
   -1.0130  150.7023   56.3710 H   0  0  0  0  0  0  0  0  0  0  0  0
   -1.9387  152.2012   56.1883 H   0  0  0  0  0  0  0  0  0  0  0  0
    1.5947  150.6851   54.5743 C   0  0  0  0  0  0  0  0  0  0  0  0
    1.9905  151.1405   55.4713 H   0  0  0  0  0  0  0  0  0  0  0  0
    2.3784  149.7827   53.8602 C   0  0  0  0  0  0  0  0  0  0  0  0
    3.7204  149.4721   54.4016 C   0  0  0  0  0  0  0  0  0  0  0  0
    3.9876  150.3466   54.9798 H   0  0  0  0  0  0  0  0  0  0  0  0
    4.4081  149.3614   53.5620 H   0  0  0  0  0  0  0  0  0  0  0  0
    3.7451  148.2063   55.2627 C   0  0  0  0  0  0  0  0  0  0  0  0
    3.8478  148.2579   56.4775 O   0  0  0  0  0  0  0  0  0  0  0  0
    3.7070  146.9939   54.6364 N   0  0  0  0  0  0  0  0  0  0  0  0
    3.5148  146.9524   53.6488 H   0  0  0  0  0  0  0  0  0  0  0  0
    3.5585  145.7897   55.2156 C   0  0  0  0  0  0  0  0  0  0  0  0
    3.1051  144.9548   54.3004 N   0  0  0  0  0  0  0  0  0  0  0  0
    2.9727  143.6667   54.6091 C   0  0  0  0  0  0  0  0  0  0  0  0
    2.3676  142.7968   53.5511 C   0  0  0  0  0  0  0  0  0  0  0  0
    2.0937  141.8490   54.0079 H   0  0  0  0  0  0  0  0  0  0  0  0
    1.4734  143.2969   53.1689 H   0  0  0  0  0  0  0  0  0  0  0  0
    3.3134  142.5320   52.3968 C   0  0  0  0  0  0  0  0  0  0  0  0
    2.7787  142.0700   51.5579 H   0  0  0  0  0  0  0  0  0  0  0  0
    3.7569  143.4718   52.0445 H   0  0  0  0  0  0  0  0  0  0  0  0
    4.3416  141.6336   52.9069 N   0  0  0  0  0  0  0  0  0  0  0  0
    4.6486  141.9437   53.8274 H   0  0  0  0  0  0  0  0  0  0  0  0
    4.1445  140.1824   52.8936 C   0  0  0  0  0  0  0  0  0  0  0  0
    5.0761  139.6857   53.1702 H   0  0  0  0  0  0  0  0  0  0  0  0
    3.3738  139.8987   53.6141 H   0  0  0  0  0  0  0  0  0  0  0  0
    3.8632  139.8369   51.8961 H   0  0  0  0  0  0  0  0  0  0  0  0
    3.2920  143.1901   55.8751 C   0  0  0  0  0  0  0  0  0  0  0  0
    3.1495  141.8125   56.2106 C   0  0  0  0  0  0  0  0  0  0  0  0
    3.0351  140.6782   56.4477 N   0  0  0  0  0  0  0  0  0  0  0  0
    3.7556  144.1022   56.7935 C   0  0  0  0  0  0  0  0  0  0  0  0
    4.1391  143.7201   58.0244 N   0  0  0  0  0  0  0  0  0  0  0  0
    4.0634  142.7437   58.2953 H   0  0  0  0  0  0  0  0  0  0  0  0
    4.4948  144.4276   58.6604 H   0  0  0  0  0  0  0  0  0  0  0  0
    3.8917  145.4246   56.4922 C   0  0  0  0  0  0  0  0  0  0  0  0
    4.2979  146.1194   57.2133 H   0  0  0  0  0  0  0  0  0  0  0  0
    1.9349  149.2368   52.6522 C   0  0  0  0  0  0  0  0  0  0  0  0
    2.7744  148.4035   51.9474 O   0  0  0  0  0  0  0  0  0  0  0  0
    2.1642  147.2970   51.2808 C   0  0  0  0  0  0  0  0  0  0  0  0
    2.9487  146.5980   50.9729 H   0  0  0  0  0  0  0  0  0  0  0  0
    1.4738  146.7723   51.9494 H   0  0  0  0  0  0  0  0  0  0  0  0
    1.6225  147.6375   50.3947 H   0  0  0  0  0  0  0  0  0  0  0  0
  1  2  1  0
  2  3  2  0
  3  4  1  0
  3  5  1  0
  5  6  1  0
  6  7  1  0
  7  8  1  0
  7  9  1  0
  7 10  1  0
  5 11  2  0
 11 12  1  0
 11 13  1  0
 13 14  1  0
 14 15  1  0
 14 16  1  0
 14 17  1  0
 17 18  2  0
 17 19  1  0
 19 20  1  0
 19 21  1  0
 21 22  2  0
 22 23  1  0
 23 24  1  0
 24 25  1  0
 24 26  1  0
 24 27  1  0
 27 28  1  0
 27 29  1  0
 27 30  1  0
 30 31  1  0
 30 32  1  0
 32 33  1  0
 32 34  1  0
 32 35  1  0
 23 36  2  0
 36 37  1  0
 37 38  3  0
 36 39  1  0
 39 40  1  0
 40 41  1  0
 40 42  1  0
 39 43  2  0
 43 44  1  0
 13 45  2  0
 45 46  1  0
 46 47  1  0
 47 48  1  0
 47 49  1  0
 47 50  1  0
 45  2  1  0
 43 21  1  0
M  END
>  <score>  (69) 
6.85255

$$$$

     RDKit          3D

 46 47  0  0  0  0  0  0  0  0999 V2000
    0.3069  149.1987   51.2490 H   0  0  0  0  0  0  0  0  0  0  0  0
    0.6566  149.6034   52.1939 C   0  0  0  0  0  0  0  0  0  0  0  0
   -0.1468  150.4972   52.9340 C   0  0  0  0  0  0  0  0  0  0  0  0
   -1.8720  150.9852   52.2784 Br  0  0  0  0  0  0  0  0  0  0  0  0
    0.3320  151.0569   54.1296 C   0  0  0  0  0  0  0  0  0  0  0  0
   -0.3784  151.9762   54.8578 O   0  0  0  0  0  0  0  0  0  0  0  0
   -1.4254  151.4032   55.6449 C   0  0  0  0  0  0  0  0  0  0  0  0
   -1.9392  152.2026   56.1882 H   0  0  0  0  0  0  0  0  0  0  0  0
   -2.1522  150.8751   55.0181 H   0  0  0  0  0  0  0  0  0  0  0  0
   -1.0124  150.7009   56.3716 H   0  0  0  0  0  0  0  0  0  0  0  0
    1.5935  150.6864   54.5730 C   0  0  0  0  0  0  0  0  0  0  0  0
    1.9877  151.1442   55.4704 H   0  0  0  0  0  0  0  0  0  0  0  0
    2.3766  149.7773   53.8606 C   0  0  0  0  0  0  0  0  0  0  0  0
    3.7223  149.4653   54.4047 C   0  0  0  0  0  0  0  0  0  0  0  0
    3.9932  150.3381   54.9884 H   0  0  0  0  0  0  0  0  0  0  0  0
    4.4068  149.3588   53.5600 H   0  0  0  0  0  0  0  0  0  0  0  0
    3.7445  148.1900   55.2554 C   0  0  0  0  0  0  0  0  0  0  0  0
    3.8454  148.2390   56.4747 O   0  0  0  0  0  0  0  0  0  0  0  0
    3.7073  146.9756   54.6261 N   0  0  0  0  0  0  0  0  0  0  0  0
    3.5019  146.9265   53.6406 H   0  0  0  0  0  0  0  0  0  0  0  0
    3.5302  145.7850   55.2068 C   0  0  0  0  0  0  0  0  0  0  0  0
    3.0291  144.9632   54.3067 N   0  0  0  0  0  0  0  0  0  0  0  0
    2.8809  143.6832   54.6496 C   0  0  0  0  0  0  0  0  0  0  0  0
    2.3850  142.7634   53.7596 O   0  0  0  0  0  0  0  0  0  0  0  0
    1.9201  143.1945   52.4712 C   0  0  0  0  0  0  0  0  0  0  0  0
    1.8598  142.3050   51.8357 H   0  0  0  0  0  0  0  0  0  0  0  0
    2.6246  143.8916   52.0014 H   0  0  0  0  0  0  0  0  0  0  0  0
    0.5304  143.8199   52.5474 C   0  0  0  0  0  0  0  0  0  0  0  0
   -0.1866  143.1093   52.9664 H   0  0  0  0  0  0  0  0  0  0  0  0
    0.1865  144.0851   51.5415 H   0  0  0  0  0  0  0  0  0  0  0  0
    0.5583  144.7205   53.1688 H   0  0  0  0  0  0  0  0  0  0  0  0
    3.2487  143.2197   55.8931 C   0  0  0  0  0  0  0  0  0  0  0  0
    3.1361  141.8362   56.2227 C   0  0  0  0  0  0  0  0  0  0  0  0
    3.0386  140.7019   56.4436 N   0  0  0  0  0  0  0  0  0  0  0  0
    3.7384  144.1203   56.7874 C   0  0  0  0  0  0  0  0  0  0  0  0
    4.1433  143.7293   57.9989 N   0  0  0  0  0  0  0  0  0  0  0  0
    4.4898  144.4388   58.6399 H   0  0  0  0  0  0  0  0  0  0  0  0
    4.0519  142.7511   58.2654 H   0  0  0  0  0  0  0  0  0  0  0  0
    3.8806  145.4303   56.4782 C   0  0  0  0  0  0  0  0  0  0  0  0
    4.3021  146.1187   57.1974 H   0  0  0  0  0  0  0  0  0  0  0  0
    1.9313  149.2363   52.6496 C   0  0  0  0  0  0  0  0  0  0  0  0
    2.7741  148.4017   51.9498 O   0  0  0  0  0  0  0  0  0  0  0  0
    2.1621  147.2973   51.2820 C   0  0  0  0  0  0  0  0  0  0  0  0
    1.4638  146.7771   51.9479 H   0  0  0  0  0  0  0  0  0  0  0  0
    2.9471  146.5943   50.9818 H   0  0  0  0  0  0  0  0  0  0  0  0
    1.6288  147.6395   50.3900 H   0  0  0  0  0  0  0  0  0  0  0  0
  1  2  1  0
  2  3  2  0
  3  4  1  0
  3  5  1  0
  5  6  1  0
  6  7  1  0
  7  8  1  0
  7  9  1  0
  7 10  1  0
  5 11  2  0
 11 12  1  0
 11 13  1  0
 13 14  1  0
 14 15  1  0
 14 16  1  0
 14 17  1  0
 17 18  2  0
 17 19  1  0
 19 20  1  0
 19 21  1  0
 21 22  2  0
 22 23  1  0
 23 24  1  0
 24 25  1  0
 25 26  1  0
 25 27  1  0
 25 28  1  0
 28 29  1  0
 28 30  1  0
 28 31  1  0
 23 32  2  0
 32 33  1  0
 33 34  3  0
 32 35  1  0
 35 36  1  0
 36 37  1  0
 36 38  1  0
 35 39  2  0
 39 40  1  0
 13 41  2  0
 41 42  1  0
 42 43  1  0
 43 44  1  0
 43 45  1  0
 43 46  1  0
 41  2  1  0
 39 21  1  0
M  END
>  <score>  (70) 
6.85644

$$$$

     RDKit          3D

 50 51  0  0  0  0  0  0  0  0999 V2000
    1.3753  141.9203   49.5282 H   0  0  0  0  0  0  0  0  0  0  0  0
    1.6992  142.6549   50.0676 O   0  0  0  0  0  0  0  0  0  0  0  0
    1.1584  142.3726   51.2799 C   0  0  0  0  0  0  0  0  0  0  0  0
    0.4770  141.3633   51.4552 O   0  0  0  0  0  0  0  0  0  0  0  0
    1.4499  143.3692   52.4773 C   0  0  1  0  0  0  0  0  0  0  0  0
    1.9684  144.2160   52.0095 H   0  0  0  0  0  0  0  0  0  0  0  0
    0.2764  143.9131   53.2307 N   0  0  0  0  0  0  0  0  0  0  0  0
   -0.2102  143.1892   53.7650 H   0  0  0  0  0  0  0  0  0  0  0  0
    0.5268  144.6933   53.8411 H   0  0  0  0  0  0  0  0  0  0  0  0
    2.3828  142.7620   53.5584 C   0  0  0  0  0  0  0  0  0  0  0  0
    3.2738  142.3496   53.0744 H   0  0  0  0  0  0  0  0  0  0  0  0
    1.8557  141.9669   54.0794 H   0  0  0  0  0  0  0  0  0  0  0  0
    2.8613  143.7056   54.6349 C   0  0  0  0  0  0  0  0  0  0  0  0
    3.0309  144.9865   54.3170 N   0  0  0  0  0  0  0  0  0  0  0  0
    3.5344  145.8020   55.2225 C   0  0  0  0  0  0  0  0  0  0  0  0
    3.7105  146.9996   54.6411 N   0  0  0  0  0  0  0  0  0  0  0  0
    3.5214  146.9610   53.6511 H   0  0  0  0  0  0  0  0  0  0  0  0
    3.7526  148.2112   55.2662 C   0  0  0  0  0  0  0  0  0  0  0  0
    3.8483  148.2689   56.4831 O   0  0  0  0  0  0  0  0  0  0  0  0
    3.7296  149.4732   54.4001 C   0  0  0  0  0  0  0  0  0  0  0  0
    4.0034  150.3458   54.9777 H   0  0  0  0  0  0  0  0  0  0  0  0
    4.4185  149.3585   53.5625 H   0  0  0  0  0  0  0  0  0  0  0  0
    2.3820  149.7862   53.8590 C   0  0  0  0  0  0  0  0  0  0  0  0
    1.5961  150.6922   54.5748 C   0  0  0  0  0  0  0  0  0  0  0  0
    1.9900  151.1458   55.4760 H   0  0  0  0  0  0  0  0  0  0  0  0
    0.3324  151.0598   54.1314 C   0  0  0  0  0  0  0  0  0  0  0  0
   -0.3805  151.9764   54.8604 O   0  0  0  0  0  0  0  0  0  0  0  0
   -1.4274  151.4046   55.6485 C   0  0  0  0  0  0  0  0  0  0  0  0
   -1.9441  152.2011   56.1927 H   0  0  0  0  0  0  0  0  0  0  0  0
   -1.0142  150.7030   56.3741 H   0  0  0  0  0  0  0  0  0  0  0  0
   -2.1529  150.8759   55.0223 H   0  0  0  0  0  0  0  0  0  0  0  0
   -0.1443  150.5006   52.9335 C   0  0  0  0  0  0  0  0  0  0  0  0
   -1.8728  150.9833   52.2740 Br  0  0  0  0  0  0  0  0  0  0  0  0
    0.6580  149.6050   52.1943 C   0  0  0  0  0  0  0  0  0  0  0  0
    0.3047  149.2004   51.2500 H   0  0  0  0  0  0  0  0  0  0  0  0
    1.9337  149.2382   52.6501 C   0  0  0  0  0  0  0  0  0  0  0  0
    2.7740  148.4003   51.9509 O   0  0  0  0  0  0  0  0  0  0  0  0
    2.1634  147.2951   51.2807 C   0  0  0  0  0  0  0  0  0  0  0  0
    1.6335  147.6355   50.3864 H   0  0  0  0  0  0  0  0  0  0  0  0
    2.9460  146.5891   50.9824 H   0  0  0  0  0  0  0  0  0  0  0  0
    1.4625  146.7763   51.9443 H   0  0  0  0  0  0  0  0  0  0  0  0
    3.8854  145.4339   56.4943 C   0  0  0  0  0  0  0  0  0  0  0  0
    4.3109  146.1213   57.2125 H   0  0  0  0  0  0  0  0  0  0  0  0
    3.7325  144.1150   56.8019 C   0  0  0  0  0  0  0  0  0  0  0  0
    4.1488  143.7223   58.0234 N   0  0  0  0  0  0  0  0  0  0  0  0
    4.4986  144.4262   58.6672 H   0  0  0  0  0  0  0  0  0  0  0  0
    4.0625  142.7474   58.3000 H   0  0  0  0  0  0  0  0  0  0  0  0
    3.2295  143.2166   55.8896 C   0  0  0  0  0  0  0  0  0  0  0  0
    3.1253  141.8302   56.2138 C   0  0  0  0  0  0  0  0  0  0  0  0
    3.0434  140.6930   56.4523 N   0  0  0  0  0  0  0  0  0  0  0  0
  1  2  1  0
  2  3  1  0
  3  4  2  0
  3  5  1  0
  5  6  1  6
  5  7  1  0
  7  8  1  0
  7  9  1  0
  5 10  1  0
 10 11  1  0
 10 12  1  0
 10 13  1  0
 13 14  2  0
 14 15  1  0
 15 16  1  0
 16 17  1  0
 16 18  1  0
 18 19  2  0
 18 20  1  0
 20 21  1  0
 20 22  1  0
 20 23  1  0
 23 24  2  0
 24 25  1  0
 24 26  1  0
 26 27  1  0
 27 28  1  0
 28 29  1  0
 28 30  1  0
 28 31  1  0
 26 32  2  0
 32 33  1  0
 32 34  1  0
 34 35  1  0
 34 36  2  0
 36 37  1  0
 37 38  1  0
 38 39  1  0
 38 40  1  0
 38 41  1  0
 15 42  2  0
 42 43  1  0
 42 44  1  0
 44 45  1  0
 45 46  1  0
 45 47  1  0
 44 48  2  0
 48 49  1  0
 49 50  3  0
 48 13  1  0
 36 23  1  0
M  END
>  <score>  (71) 
6.85932

$$$$

     RDKit          3D

 46 47  0  0  0  0  0  0  0  0999 V2000
    0.2872  149.1761   51.2299 H   0  0  0  0  0  0  0  0  0  0  0  0
    0.6229  149.5738   52.1829 C   0  0  0  0  0  0  0  0  0  0  0  0
   -0.1774  150.4774   52.9076 C   0  0  0  0  0  0  0  0  0  0  0  0
   -1.9129  150.9790   52.2655 Br  0  0  0  0  0  0  0  0  0  0  0  0
    0.3109  151.0355   54.1049 C   0  0  0  0  0  0  0  0  0  0  0  0
   -0.3822  151.9733   54.8140 O   0  0  0  0  0  0  0  0  0  0  0  0
   -1.4198  151.4057   55.6109 C   0  0  0  0  0  0  0  0  0  0  0  0
   -2.1451  150.8864   54.9819 H   0  0  0  0  0  0  0  0  0  0  0  0
   -1.0079  150.6901   56.3230 H   0  0  0  0  0  0  0  0  0  0  0  0
   -1.9339  152.1951   56.1660 H   0  0  0  0  0  0  0  0  0  0  0  0
    1.5646  150.6748   54.5807 C   0  0  0  0  0  0  0  0  0  0  0  0
    1.9500  151.1304   55.4920 H   0  0  0  0  0  0  0  0  0  0  0  0
    2.3423  149.7615   53.8752 C   0  0  0  0  0  0  0  0  0  0  0  0
    3.6950  149.4409   54.4215 C   0  0  0  0  0  0  0  0  0  0  0  0
    3.9733  150.2449   55.0847 H   0  0  0  0  0  0  0  0  0  0  0  0
    4.4119  149.3970   53.6056 H   0  0  0  0  0  0  0  0  0  0  0  0
    3.7370  148.1487   55.2133 C   0  0  0  0  0  0  0  0  0  0  0  0
    3.8081  148.1872   56.4266 O   0  0  0  0  0  0  0  0  0  0  0  0
    3.6966  146.9586   54.5601 N   0  0  0  0  0  0  0  0  0  0  0  0
    3.4287  146.9404   53.5876 H   0  0  0  0  0  0  0  0  0  0  0  0
    3.5465  145.7794   55.1633 C   0  0  0  0  0  0  0  0  0  0  0  0
    3.0421  144.9546   54.2821 N   0  0  0  0  0  0  0  0  0  0  0  0
    2.8700  143.6896   54.6545 C   0  0  0  0  0  0  0  0  0  0  0  0
    2.2900  142.7895   53.7975 O   0  0  0  0  0  0  0  0  0  0  0  0
    1.9207  143.2326   52.4731 C   0  0  0  0  0  0  0  0  0  0  0  0
    1.7987  142.3410   51.8364 H   0  0  0  0  0  0  0  0  0  0  0  0
    2.7202  143.8537   52.0455 H   0  0  0  0  0  0  0  0  0  0  0  0
    0.6278  144.0679   52.4139 C   0  0  0  0  0  0  0  0  0  0  0  0
    0.4984  144.4291   51.3859 H   0  0  0  0  0  0  0  0  0  0  0  0
    0.6836  144.9300   53.0904 H   0  0  0  0  0  0  0  0  0  0  0  0
   -0.4650  143.3387   52.7358 F   0  0  0  0  0  0  0  0  0  0  0  0
    3.2440  143.2271   55.8887 C   0  0  0  0  0  0  0  0  0  0  0  0
    3.1356  141.8403   56.2005 C   0  0  0  0  0  0  0  0  0  0  0  0
    3.0662  140.7043   56.4437 N   0  0  0  0  0  0  0  0  0  0  0  0
    3.7394  144.1440   56.7703 C   0  0  0  0  0  0  0  0  0  0  0  0
    4.1343  143.7687   57.9937 N   0  0  0  0  0  0  0  0  0  0  0  0
    4.0628  142.7958   58.2622 H   0  0  0  0  0  0  0  0  0  0  0  0
    4.4765  144.4658   58.6454 H   0  0  0  0  0  0  0  0  0  0  0  0
    3.8828  145.4535   56.4474 C   0  0  0  0  0  0  0  0  0  0  0  0
    4.2840  146.1556   57.1685 H   0  0  0  0  0  0  0  0  0  0  0  0
    1.8943  149.2151   52.6627 C   0  0  0  0  0  0  0  0  0  0  0  0
    2.7564  148.4034   51.9658 O   0  0  0  0  0  0  0  0  0  0  0  0
    2.1469  147.3109   51.2779 C   0  0  0  0  0  0  0  0  0  0  0  0
    2.9141  146.5982   50.9624 H   0  0  0  0  0  0  0  0  0  0  0  0
    1.4480  146.7927   51.9401 H   0  0  0  0  0  0  0  0  0  0  0  0
    1.6096  147.6599   50.3926 H   0  0  0  0  0  0  0  0  0  0  0  0
  1  2  1  0
  2  3  2  0
  3  4  1  0
  3  5  1  0
  5  6  1  0
  6  7  1  0
  7  8  1  0
  7  9  1  0
  7 10  1  0
  5 11  2  0
 11 12  1  0
 11 13  1  0
 13 14  1  0
 14 15  1  0
 14 16  1  0
 14 17  1  0
 17 18  2  0
 17 19  1  0
 19 20  1  0
 19 21  1  0
 21 22  2  0
 22 23  1  0
 23 24  1  0
 24 25  1  0
 25 26  1  0
 25 27  1  0
 25 28  1  0
 28 29  1  0
 28 30  1  0
 28 31  1  0
 23 32  2  0
 32 33  1  0
 33 34  3  0
 32 35  1  0
 35 36  1  0
 36 37  1  0
 36 38  1  0
 35 39  2  0
 39 40  1  0
 13 41  2  0
 41 42  1  0
 42 43  1  0
 43 44  1  0
 43 45  1  0
 43 46  1  0
 41  2  1  0
 39 21  1  0
M  END
>  <score>  (72) 
6.86735

$$$$

     RDKit          3D

 45 46  0  0  0  0  0  0  0  0999 V2000
    0.2809  149.1744   51.2380 H   0  0  0  0  0  0  0  0  0  0  0  0
    0.6203  149.5786   52.1845 C   0  0  0  0  0  0  0  0  0  0  0  0
   -0.1844  150.4789   52.9049 C   0  0  0  0  0  0  0  0  0  0  0  0
   -1.9186  150.9760   52.2577 Br  0  0  0  0  0  0  0  0  0  0  0  0
    0.3032  151.0409   54.1005 C   0  0  0  0  0  0  0  0  0  0  0  0
   -0.3923  151.9777   54.8085 O   0  0  0  0  0  0  0  0  0  0  0  0
   -1.4252  151.4068   55.6116 C   0  0  0  0  0  0  0  0  0  0  0  0
   -1.0088  150.6909   56.3224 H   0  0  0  0  0  0  0  0  0  0  0  0
   -2.1511  150.8857   54.9835 H   0  0  0  0  0  0  0  0  0  0  0  0
   -1.9416  152.1924   56.1722 H   0  0  0  0  0  0  0  0  0  0  0  0
    1.5596  150.6907   54.5755 C   0  0  0  0  0  0  0  0  0  0  0  0
    1.9378  151.1398   55.4945 H   0  0  0  0  0  0  0  0  0  0  0  0
    2.3435  149.7881   53.8652 C   0  0  0  0  0  0  0  0  0  0  0  0
    3.7015  149.5092   54.4152 C   0  0  0  0  0  0  0  0  0  0  0  0
    4.4326  149.4414   53.6127 H   0  0  0  0  0  0  0  0  0  0  0  0
    3.9535  150.3508   55.0335 H   0  0  0  0  0  0  0  0  0  0  0  0
    3.7773  148.2765   55.2831 C   0  0  0  0  0  0  0  0  0  0  0  0
    3.8342  148.3550   56.4927 O   0  0  0  0  0  0  0  0  0  0  0  0
    3.8194  147.0804   54.6616 N   0  0  0  0  0  0  0  0  0  0  0  0
    3.4936  147.0408   53.7117 H   0  0  0  0  0  0  0  0  0  0  0  0
    3.6839  145.9105   55.2733 C   0  0  0  0  0  0  0  0  0  0  0  0
    3.2246  145.1171   54.3323 N   0  0  0  0  0  0  0  0  0  0  0  0
    3.0365  143.8105   54.5909 C   0  0  0  0  0  0  0  0  0  0  0  0
    2.5897  142.8640   53.4827 C   0  0  0  0  0  0  0  0  0  0  0  0
    2.4546  141.6650   53.7162 O   0  0  0  0  0  0  0  0  0  0  0  0
    2.3429  143.2669   52.1582 N   0  0  0  0  0  0  0  0  0  0  0  0
    2.7325  144.1705   51.8836 H   0  0  0  0  0  0  0  0  0  0  0  0
    1.7532  142.4458   51.1219 N   0  0  0  0  0  0  0  0  0  0  0  0
    2.2058  141.5287   51.0442 H   0  0  0  0  0  0  0  0  0  0  0  0
    0.7443  142.3309   51.2505 H   0  0  0  0  0  0  0  0  0  0  0  0
    3.3220  143.3484   55.8877 C   0  0  0  0  0  0  0  0  0  0  0  0
    3.1855  141.9672   56.2059 C   0  0  0  0  0  0  0  0  0  0  0  0
    3.0743  140.8344   56.4419 N   0  0  0  0  0  0  0  0  0  0  0  0
    3.7908  144.2302   56.8461 C   0  0  0  0  0  0  0  0  0  0  0  0
    4.1221  143.8062   58.0881 N   0  0  0  0  0  0  0  0  0  0  0  0
    4.5182  144.4531   58.7687 H   0  0  0  0  0  0  0  0  0  0  0  0
    4.0781  142.8111   58.2804 H   0  0  0  0  0  0  0  0  0  0  0  0
    3.9676  145.5422   56.5609 C   0  0  0  0  0  0  0  0  0  0  0  0
    4.3288  146.2111   57.3245 H   0  0  0  0  0  0  0  0  0  0  0  0
    1.8966  149.2316   52.6581 C   0  0  0  0  0  0  0  0  0  0  0  0
    2.7581  148.4097   51.9717 O   0  0  0  0  0  0  0  0  0  0  0  0
    2.1482  147.3153   51.2783 C   0  0  0  0  0  0  0  0  0  0  0  0
    1.5952  147.6603   50.4003 H   0  0  0  0  0  0  0  0  0  0  0  0
    2.9137  146.6079   50.9446 H   0  0  0  0  0  0  0  0  0  0  0  0
    1.4621  146.7826   51.9426 H   0  0  0  0  0  0  0  0  0  0  0  0
  1  2  1  0
  2  3  2  0
  3  4  1  0
  3  5  1  0
  5  6  1  0
  6  7  1  0
  7  8  1  0
  7  9  1  0
  7 10  1  0
  5 11  2  0
 11 12  1  0
 11 13  1  0
 13 14  1  0
 14 15  1  0
 14 16  1  0
 14 17  1  0
 17 18  2  0
 17 19  1  0
 19 20  1  0
 19 21  1  0
 21 22  2  0
 22 23  1  0
 23 24  1  0
 24 25  2  0
 24 26  1  0
 26 27  1  0
 26 28  1  0
 28 29  1  0
 28 30  1  0
 23 31  2  0
 31 32  1  0
 32 33  3  0
 31 34  1  0
 34 35  1  0
 35 36  1  0
 35 37  1  0
 34 38  2  0
 38 39  1  0
 13 40  2  0
 40 41  1  0
 41 42  1  0
 42 43  1  0
 42 44  1  0
 42 45  1  0
 40  2  1  0
 38 21  1  0
M  END
>  <score>  (73) 
6.88101

$$$$

     RDKit          3D

 47 49  0  0  0  0  0  0  0  0999 V2000
    0.2338  149.1131   51.2703 H   0  0  0  0  0  0  0  0  0  0  0  0
    0.5999  149.5496   52.1898 C   0  0  0  0  0  0  0  0  0  0  0  0
   -0.2169  150.4681   52.8672 C   0  0  0  0  0  0  0  0  0  0  0  0
   -1.9545  150.9086   52.1926 Br  0  0  0  0  0  0  0  0  0  0  0  0
    0.2448  151.0558   54.0525 C   0  0  0  0  0  0  0  0  0  0  0  0
   -0.4682  151.9992   54.7345 O   0  0  0  0  0  0  0  0  0  0  0  0
   -1.4699  151.4041   55.5511 C   0  0  0  0  0  0  0  0  0  0  0  0
   -1.0166  150.6729   56.2248 H   0  0  0  0  0  0  0  0  0  0  0  0
   -2.2145  150.8984   54.9292 H   0  0  0  0  0  0  0  0  0  0  0  0
   -1.9643  152.1750   56.1475 H   0  0  0  0  0  0  0  0  0  0  0  0
    1.4864  150.6969   54.5534 C   0  0  0  0  0  0  0  0  0  0  0  0
    1.8179  151.1244   55.4933 H   0  0  0  0  0  0  0  0  0  0  0  0
    2.3162  149.8133   53.8704 C   0  0  0  0  0  0  0  0  0  0  0  0
    3.6607  149.5753   54.4932 C   0  0  0  0  0  0  0  0  0  0  0  0
    3.8593  150.4011   55.1616 H   0  0  0  0  0  0  0  0  0  0  0  0
    4.4316  149.5519   53.7236 H   0  0  0  0  0  0  0  0  0  0  0  0
    3.7421  148.2919   55.2868 C   0  0  0  0  0  0  0  0  0  0  0  0
    3.7951  148.2691   56.5044 O   0  0  0  0  0  0  0  0  0  0  0  0
    3.8676  147.1634   54.5599 N   0  0  0  0  0  0  0  0  0  0  0  0
    3.5584  147.1898   53.6016 H   0  0  0  0  0  0  0  0  0  0  0  0
    3.8669  145.9372   55.0775 C   0  0  0  0  0  0  0  0  0  0  0  0
    3.5965  145.1238   54.0937 N   0  0  0  0  0  0  0  0  0  0  0  0
    3.3758  143.8493   54.3810 C   0  0  0  0  0  0  0  0  0  0  0  0
    2.8636  143.0781   53.3363 N   0  0  0  0  0  0  0  0  0  0  0  0
    3.1300  143.1952   51.9631 C   0  0  0  0  0  0  0  0  0  0  0  0
    3.9252  143.7861   51.5078 H   0  0  0  0  0  0  0  0  0  0  0  0
    2.1846  142.4643   51.2756 C   0  0  0  0  0  0  0  0  0  0  0  0
    2.0949  142.3614   50.1957 H   0  0  0  0  0  0  0  0  0  0  0  0
    1.2771  141.9020   52.2615 C   0  0  0  0  0  0  0  0  0  0  0  0
    0.3714  141.3295   52.0575 H   0  0  0  0  0  0  0  0  0  0  0  0
    1.7463  142.2797   53.4956 C   0  0  0  0  0  0  0  0  0  0  0  0
    1.3104  142.0554   54.4640 H   0  0  0  0  0  0  0  0  0  0  0  0
    3.4727  143.3647   55.6806 C   0  0  0  0  0  0  0  0  0  0  0  0
    3.2107  141.9953   55.9653 C   0  0  0  0  0  0  0  0  0  0  0  0
    2.9902  140.8661   56.1367 N   0  0  0  0  0  0  0  0  0  0  0  0
    3.7822  144.2632   56.6722 C   0  0  0  0  0  0  0  0  0  0  0  0
    3.8782  143.8476   57.9534 N   0  0  0  0  0  0  0  0  0  0  0  0
    4.0680  142.8594   58.0613 H   0  0  0  0  0  0  0  0  0  0  0  0
    4.4017  144.4641   58.5618 H   0  0  0  0  0  0  0  0  0  0  0  0
    3.9906  145.5799   56.3941 C   0  0  0  0  0  0  0  0  0  0  0  0
    4.2065  146.2766   57.1922 H   0  0  0  0  0  0  0  0  0  0  0  0
    1.8850  149.2219   52.6666 C   0  0  0  0  0  0  0  0  0  0  0  0
    2.7295  148.3687   51.9947 O   0  0  0  0  0  0  0  0  0  0  0  0
    2.0910  147.3138   51.2627 C   0  0  0  0  0  0  0  0  0  0  0  0
    1.3874  146.7643   51.9012 H   0  0  0  0  0  0  0  0  0  0  0  0
    2.8558  146.6146   50.9114 H   0  0  0  0  0  0  0  0  0  0  0  0
    1.5507  147.7091   50.3954 H   0  0  0  0  0  0  0  0  0  0  0  0
  1  2  1  0
  2  3  2  0
  3  4  1  0
  3  5  1  0
  5  6  1  0
  6  7  1  0
  7  8  1  0
  7  9  1  0
  7 10  1  0
  5 11  2  0
 11 12  1  0
 11 13  1  0
 13 14  1  0
 14 15  1  0
 14 16  1  0
 14 17  1  0
 17 18  2  0
 17 19  1  0
 19 20  1  0
 19 21  1  0
 21 22  2  0
 22 23  1  0
 23 24  1  0
 24 25  1  0
 25 26  1  0
 25 27  2  0
 27 28  1  0
 27 29  1  0
 29 30  1  0
 29 31  2  0
 31 32  1  0
 23 33  2  0
 33 34  1  0
 34 35  3  0
 33 36  1  0
 36 37  1  0
 37 38  1  0
 37 39  1  0
 36 40  2  0
 40 41  1  0
 13 42  2  0
 42 43  1  0
 43 44  1  0
 44 45  1  0
 44 46  1  0
 44 47  1  0
 42  2  1  0
 40 21  1  0
 31 24  1  0
M  END
>  <score>  (74) 
6.88159

$$$$

     RDKit          3D

 49 50  0  0  0  0  0  0  0  0999 V2000
    0.2846  149.1749   51.2326 H   0  0  0  0  0  0  0  0  0  0  0  0
    0.6190  149.5761   52.1822 C   0  0  0  0  0  0  0  0  0  0  0  0
   -0.1820  150.4765   52.9070 C   0  0  0  0  0  0  0  0  0  0  0  0
   -1.9156  150.9768   52.2614 Br  0  0  0  0  0  0  0  0  0  0  0  0
    0.3102  151.0378   54.1017 C   0  0  0  0  0  0  0  0  0  0  0  0
   -0.3861  151.9757   54.8095 O   0  0  0  0  0  0  0  0  0  0  0  0
   -1.4218  151.4056   55.6089 C   0  0  0  0  0  0  0  0  0  0  0  0
   -2.1484  150.8861   54.9785 H   0  0  0  0  0  0  0  0  0  0  0  0
   -1.9361  152.1951   56.1669 H   0  0  0  0  0  0  0  0  0  0  0  0
   -1.0067  150.6888   56.3212 H   0  0  0  0  0  0  0  0  0  0  0  0
    1.5644  150.6768   54.5791 C   0  0  0  0  0  0  0  0  0  0  0  0
    1.9442  151.1306   55.4956 H   0  0  0  0  0  0  0  0  0  0  0  0
    2.3404  149.7593   53.8717 C   0  0  0  0  0  0  0  0  0  0  0  0
    3.6946  149.4338   54.4171 C   0  0  0  0  0  0  0  0  0  0  0  0
    3.9651  150.2328   55.0941 H   0  0  0  0  0  0  0  0  0  0  0  0
    4.4215  149.4008   53.6052 H   0  0  0  0  0  0  0  0  0  0  0  0
    3.7338  148.1377   55.2066 C   0  0  0  0  0  0  0  0  0  0  0  0
    3.8129  148.1739   56.4190 O   0  0  0  0  0  0  0  0  0  0  0  0
    3.6937  146.9476   54.5512 N   0  0  0  0  0  0  0  0  0  0  0  0
    3.4120  146.9388   53.5825 H   0  0  0  0  0  0  0  0  0  0  0  0
    3.5469  145.7659   55.1523 C   0  0  0  0  0  0  0  0  0  0  0  0
    3.0523  144.9318   54.2728 N   0  0  0  0  0  0  0  0  0  0  0  0
    2.8962  143.6621   54.6440 C   0  0  0  0  0  0  0  0  0  0  0  0
    2.3953  142.7338   53.7749 O   0  0  0  0  0  0  0  0  0  0  0  0
    2.0330  143.1940   52.4747 C   0  0  0  0  0  0  0  0  0  0  0  0
    1.2266  143.9317   52.5462 H   0  0  0  0  0  0  0  0  0  0  0  0
    2.8980  143.6517   51.9766 H   0  0  0  0  0  0  0  0  0  0  0  0
    1.5343  141.9910   51.6797 C   0  0  0  0  0  0  0  0  0  0  0  0
    2.3143  141.2249   51.6355 H   0  0  0  0  0  0  0  0  0  0  0  0
    0.6645  141.5528   52.1795 H   0  0  0  0  0  0  0  0  0  0  0  0
    1.1492  142.4143   50.2640 C   0  0  0  0  0  0  0  0  0  0  0  0
    2.0478  142.6783   49.6982 H   0  0  0  0  0  0  0  0  0  0  0  0
    0.6155  141.6029   49.7496 H   0  0  0  0  0  0  0  0  0  0  0  0
    0.5158  143.3039   50.2905 H   0  0  0  0  0  0  0  0  0  0  0  0
    3.2468  143.2199   55.8919 C   0  0  0  0  0  0  0  0  0  0  0  0
    3.1375  141.8336   56.2121 C   0  0  0  0  0  0  0  0  0  0  0  0
    3.0651  140.6983   56.4456 N   0  0  0  0  0  0  0  0  0  0  0  0
    3.7361  144.1405   56.7742 C   0  0  0  0  0  0  0  0  0  0  0  0
    4.1307  143.7690   57.9996 N   0  0  0  0  0  0  0  0  0  0  0  0
    4.0631  142.7907   58.2611 H   0  0  0  0  0  0  0  0  0  0  0  0
    4.4770  144.4699   58.6499 H   0  0  0  0  0  0  0  0  0  0  0  0
    3.8804  145.4467   56.4402 C   0  0  0  0  0  0  0  0  0  0  0  0
    4.2781  146.1526   57.1587 H   0  0  0  0  0  0  0  0  0  0  0  0
    1.8913  149.2197   52.6568 C   0  0  0  0  0  0  0  0  0  0  0  0
    2.7559  148.4038   51.9669 O   0  0  0  0  0  0  0  0  0  0  0  0
    2.1461  147.3115   51.2777 C   0  0  0  0  0  0  0  0  0  0  0  0
    1.6009  147.6596   50.3957 H   0  0  0  0  0  0  0  0  0  0  0  0
    2.9139  146.6024   50.9539 H   0  0  0  0  0  0  0  0  0  0  0  0
    1.4540  146.7872   51.9430 H   0  0  0  0  0  0  0  0  0  0  0  0
  1  2  1  0
  2  3  2  0
  3  4  1  0
  3  5  1  0
  5  6  1  0
  6  7  1  0
  7  8  1  0
  7  9  1  0
  7 10  1  0
  5 11  2  0
 11 12  1  0
 11 13  1  0
 13 14  1  0
 14 15  1  0
 14 16  1  0
 14 17  1  0
 17 18  2  0
 17 19  1  0
 19 20  1  0
 19 21  1  0
 21 22  2  0
 22 23  1  0
 23 24  1  0
 24 25  1  0
 25 26  1  0
 25 27  1  0
 25 28  1  0
 28 29  1  0
 28 30  1  0
 28 31  1  0
 31 32  1  0
 31 33  1  0
 31 34  1  0
 23 35  2  0
 35 36  1  0
 36 37  3  0
 35 38  1  0
 38 39  1  0
 39 40  1  0
 39 41  1  0
 38 42  2  0
 42 43  1  0
 13 44  2  0
 44 45  1  0
 45 46  1  0
 46 47  1  0
 46 48  1  0
 46 49  1  0
 44  2  1  0
 42 21  1  0
M  END
>  <score>  (75) 
6.88192

$$$$

     RDKit          3D

 41 42  0  0  0  0  0  0  0  0999 V2000
    0.3077  149.2025   51.2548 H   0  0  0  0  0  0  0  0  0  0  0  0
    0.6603  149.6085   52.1964 C   0  0  0  0  0  0  0  0  0  0  0  0
   -0.1421  150.5016   52.9350 C   0  0  0  0  0  0  0  0  0  0  0  0
   -1.8685  150.9837   52.2751 Br  0  0  0  0  0  0  0  0  0  0  0  0
    0.3339  151.0606   54.1326 C   0  0  0  0  0  0  0  0  0  0  0  0
   -0.3795  151.9764   54.8615 O   0  0  0  0  0  0  0  0  0  0  0  0
   -1.4278  151.4048   55.6502 C   0  0  0  0  0  0  0  0  0  0  0  0
   -2.1540  150.8751   55.0254 H   0  0  0  0  0  0  0  0  0  0  0  0
   -1.9453  152.2006   56.1949 H   0  0  0  0  0  0  0  0  0  0  0  0
   -1.0153  150.7041   56.3771 H   0  0  0  0  0  0  0  0  0  0  0  0
    1.5999  150.6941   54.5730 C   0  0  0  0  0  0  0  0  0  0  0  0
    1.9911  151.1475   55.4750 H   0  0  0  0  0  0  0  0  0  0  0  0
    2.3836  149.7878   53.8564 C   0  0  0  0  0  0  0  0  0  0  0  0
    3.7302  149.4739   54.3967 C   0  0  0  0  0  0  0  0  0  0  0  0
    4.4203  149.3553   53.5598 H   0  0  0  0  0  0  0  0  0  0  0  0
    3.9976  150.3513   54.9678 H   0  0  0  0  0  0  0  0  0  0  0  0
    3.7533  148.2163   55.2727 C   0  0  0  0  0  0  0  0  0  0  0  0
    3.8535  148.2724   56.4868 O   0  0  0  0  0  0  0  0  0  0  0  0
    3.7087  147.0023   54.6556 N   0  0  0  0  0  0  0  0  0  0  0  0
    3.5271  146.9616   53.6655 H   0  0  0  0  0  0  0  0  0  0  0  0
    3.5444  145.8013   55.2392 C   0  0  0  0  0  0  0  0  0  0  0  0
    3.0610  144.9763   54.3352 N   0  0  0  0  0  0  0  0  0  0  0  0
    2.9088  143.6701   54.6229 C   0  0  0  0  0  0  0  0  0  0  0  0
    2.4210  142.7994   53.6133 N   0  0  0  0  0  4  0  0  0  0  0  0
    1.7218  143.2830   52.7137 O   0  0  0  0  0  0  0  0  0  0  0  0
    2.7255  141.6000   53.6843 O   0  0  0  0  0  1  0  0  0  0  0  0
    3.2751  143.1906   55.8890 C   0  0  0  0  0  0  0  0  0  0  0  0
    3.1513  141.8094   56.2316 C   0  0  0  0  0  0  0  0  0  0  0  0
    3.0402  140.6769   56.4836 N   0  0  0  0  0  0  0  0  0  0  0  0
    3.7557  144.1003   56.8028 C   0  0  0  0  0  0  0  0  0  0  0  0
    4.1462  143.7192   58.0346 N   0  0  0  0  0  0  0  0  0  0  0  0
    4.4991  144.4313   58.6666 H   0  0  0  0  0  0  0  0  0  0  0  0
    4.0679  142.7421   58.3093 H   0  0  0  0  0  0  0  0  0  0  0  0
    3.8905  145.4233   56.5035 C   0  0  0  0  0  0  0  0  0  0  0  0
    4.3075  146.1122   57.2183 H   0  0  0  0  0  0  0  0  0  0  0  0
    1.9368  149.2415   52.6487 C   0  0  0  0  0  0  0  0  0  0  0  0
    2.7763  148.4019   51.9522 O   0  0  0  0  0  0  0  0  0  0  0  0
    2.1662  147.2956   51.2819 C   0  0  0  0  0  0  0  0  0  0  0  0
    1.4754  146.7675   51.9485 H   0  0  0  0  0  0  0  0  0  0  0  0
    2.9498  146.5959   50.9721 H   0  0  0  0  0  0  0  0  0  0  0  0
    1.6242  147.6346   50.3942 H   0  0  0  0  0  0  0  0  0  0  0  0
  1  2  1  0
  2  3  2  0
  3  4  1  0
  3  5  1  0
  5  6  1  0
  6  7  1  0
  7  8  1  0
  7  9  1  0
  7 10  1  0
  5 11  2  0
 11 12  1  0
 11 13  1  0
 13 14  1  0
 14 15  1  0
 14 16  1  0
 14 17  1  0
 17 18  2  0
 17 19  1  0
 19 20  1  0
 19 21  1  0
 21 22  2  0
 22 23  1  0
 23 24  1  0
 24 25  2  0
 24 26  1  0
 23 27  2  0
 27 28  1  0
 28 29  3  0
 27 30  1  0
 30 31  1  0
 31 32  1  0
 31 33  1  0
 30 34  2  0
 34 35  1  0
 13 36  2  0
 36 37  1  0
 37 38  1  0
 38 39  1  0
 38 40  1  0
 38 41  1  0
 36  2  1  0
 34 21  1  0
M  CHG  2  24   1  26  -1
M  END
>  <score>  (76) 
6.88457

$$$$

     RDKit          3D

 46 47  0  0  0  0  0  0  0  0999 V2000
    5.0088  141.9532   51.4959 H   0  0  0  0  0  0  0  0  0  0  0  0
    4.2453  142.5343   52.0072 C   0  0  0  0  0  0  0  0  0  0  0  0
    4.2208  143.6083   51.8303 H   0  0  0  0  0  0  0  0  0  0  0  0
    3.3984  141.9398   52.9020 C   0  0  0  0  0  0  0  0  0  0  0  0
    3.4927  140.8705   53.0819 H   0  0  0  0  0  0  0  0  0  0  0  0
    2.3565  142.7713   53.6033 C   0  0  0  0  0  0  0  0  0  0  0  0
    1.8445  143.3888   52.8626 H   0  0  0  0  0  0  0  0  0  0  0  0
    1.6208  142.1313   54.0833 H   0  0  0  0  0  0  0  0  0  0  0  0
    2.9335  143.6821   54.6489 C   0  0  0  0  0  0  0  0  0  0  0  0
    3.0614  144.9709   54.3315 N   0  0  0  0  0  0  0  0  0  0  0  0
    3.5459  145.8014   55.2327 C   0  0  0  0  0  0  0  0  0  0  0  0
    3.7148  146.9970   54.6439 N   0  0  0  0  0  0  0  0  0  0  0  0
    3.5165  146.9541   53.6556 H   0  0  0  0  0  0  0  0  0  0  0  0
    3.7452  148.2125   55.2659 C   0  0  0  0  0  0  0  0  0  0  0  0
    3.8488  148.2679   56.4830 O   0  0  0  0  0  0  0  0  0  0  0  0
    3.7243  149.4760   54.4018 C   0  0  0  0  0  0  0  0  0  0  0  0
    4.4091  149.3603   53.5591 H   0  0  0  0  0  0  0  0  0  0  0  0
    3.9916  150.3537   54.9795 H   0  0  0  0  0  0  0  0  0  0  0  0
    2.3788  149.7804   53.8589 C   0  0  0  0  0  0  0  0  0  0  0  0
    1.5952  150.6861   54.5739 C   0  0  0  0  0  0  0  0  0  0  0  0
    1.9915  151.1411   55.4721 H   0  0  0  0  0  0  0  0  0  0  0  0
    0.3335  151.0573   54.1315 C   0  0  0  0  0  0  0  0  0  0  0  0
   -0.3782  151.9761   54.8586 O   0  0  0  0  0  0  0  0  0  0  0  0
   -1.4252  151.4033   55.6461 C   0  0  0  0  0  0  0  0  0  0  0  0
   -1.9396  152.2024   56.1895 H   0  0  0  0  0  0  0  0  0  0  0  0
   -1.0123  150.7015   56.3735 H   0  0  0  0  0  0  0  0  0  0  0  0
   -2.1528  150.8745   55.0202 H   0  0  0  0  0  0  0  0  0  0  0  0
   -0.1454  150.4989   52.9361 C   0  0  0  0  0  0  0  0  0  0  0  0
   -1.8698  150.9855   52.2788 Br  0  0  0  0  0  0  0  0  0  0  0  0
    0.6583  149.6061   52.1962 C   0  0  0  0  0  0  0  0  0  0  0  0
    0.3090  149.2012   51.2521 H   0  0  0  0  0  0  0  0  0  0  0  0
    1.9337  149.2378   52.6487 C   0  0  0  0  0  0  0  0  0  0  0  0
    2.7759  148.4029   51.9473 O   0  0  0  0  0  0  0  0  0  0  0  0
    2.1646  147.2966   51.2810 C   0  0  0  0  0  0  0  0  0  0  0  0
    2.9500  146.5972   50.9734 H   0  0  0  0  0  0  0  0  0  0  0  0
    1.6227  147.6373   50.3935 H   0  0  0  0  0  0  0  0  0  0  0  0
    1.4733  146.7715   51.9505 H   0  0  0  0  0  0  0  0  0  0  0  0
    3.8938  145.4392   56.5079 C   0  0  0  0  0  0  0  0  0  0  0  0
    4.3152  146.1305   57.2254 H   0  0  0  0  0  0  0  0  0  0  0  0
    3.7493  144.1192   56.8137 C   0  0  0  0  0  0  0  0  0  0  0  0
    4.1487  143.7263   58.0316 N   0  0  0  0  0  0  0  0  0  0  0  0
    4.0625  142.7463   58.2948 H   0  0  0  0  0  0  0  0  0  0  0  0
    4.5014  144.4327   58.6723 H   0  0  0  0  0  0  0  0  0  0  0  0
    3.2701  143.2100   55.9063 C   0  0  0  0  0  0  0  0  0  0  0  0
    3.1431  141.8268   56.2338 C   0  0  0  0  0  0  0  0  0  0  0  0
    3.0382  140.6898   56.4506 N   0  0  0  0  0  0  0  0  0  0  0  0
  1  2  1  0
  2  3  1  0
  2  4  2  0
  4  5  1  0
  4  6  1  0
  6  7  1  0
  6  8  1  0
  6  9  1  0
  9 10  2  0
 10 11  1  0
 11 12  1  0
 12 13  1  0
 12 14  1  0
 14 15  2  0
 14 16  1  0
 16 17  1  0
 16 18  1  0
 16 19  1  0
 19 20  2  0
 20 21  1  0
 20 22  1  0
 22 23  1  0
 23 24  1  0
 24 25  1  0
 24 26  1  0
 24 27  1  0
 22 28  2  0
 28 29  1  0
 28 30  1  0
 30 31  1  0
 30 32  2  0
 32 33  1  0
 33 34  1  0
 34 35  1  0
 34 36  1  0
 34 37  1  0
 11 38  2  0
 38 39  1  0
 38 40  1  0
 40 41  1  0
 41 42  1  0
 41 43  1  0
 40 44  2  0
 44 45  1  0
 45 46  3  0
 44  9  1  0
 32 19  1  0
M  END
>  <score>  (77) 
6.8927

$$$$

     RDKit          3D

 50 52  0  0  0  0  0  0  0  0999 V2000
    0.2839  149.1743   51.2289 H   0  0  0  0  0  0  0  0  0  0  0  0
    0.6172  149.5718   52.1817 C   0  0  0  0  0  0  0  0  0  0  0  0
   -0.1845  150.4731   52.9045 C   0  0  0  0  0  0  0  0  0  0  0  0
   -1.9205  150.9799   52.2636 Br  0  0  0  0  0  0  0  0  0  0  0  0
    0.3094  151.0312   54.1006 C   0  0  0  0  0  0  0  0  0  0  0  0
   -0.3835  151.9728   54.8045 O   0  0  0  0  0  0  0  0  0  0  0  0
   -1.4186  151.4051   55.6045 C   0  0  0  0  0  0  0  0  0  0  0  0
   -1.9318  152.1945   56.1621 H   0  0  0  0  0  0  0  0  0  0  0  0
   -1.0049  150.6869   56.3147 H   0  0  0  0  0  0  0  0  0  0  0  0
   -2.1446  150.8873   54.9739 H   0  0  0  0  0  0  0  0  0  0  0  0
    1.5617  150.6712   54.5826 C   0  0  0  0  0  0  0  0  0  0  0  0
    1.9430  151.1223   55.5008 H   0  0  0  0  0  0  0  0  0  0  0  0
    2.3367  149.7579   53.8741 C   0  0  0  0  0  0  0  0  0  0  0  0
    3.6891  149.4318   54.4206 C   0  0  0  0  0  0  0  0  0  0  0  0
    3.9588  150.2214   55.1051 H   0  0  0  0  0  0  0  0  0  0  0  0
    4.4187  149.4072   53.6123 H   0  0  0  0  0  0  0  0  0  0  0  0
    3.7309  148.1347   55.2009 C   0  0  0  0  0  0  0  0  0  0  0  0
    3.8054  148.1694   56.4141 O   0  0  0  0  0  0  0  0  0  0  0  0
    3.6860  146.9467   54.5428 N   0  0  0  0  0  0  0  0  0  0  0  0
    3.4031  146.9383   53.5735 H   0  0  0  0  0  0  0  0  0  0  0  0
    3.5488  145.7684   55.1503 C   0  0  0  0  0  0  0  0  0  0  0  0
    3.0673  144.9234   54.2751 N   0  0  0  0  0  0  0  0  0  0  0  0
    2.9172  143.6539   54.6499 C   0  0  0  0  0  0  0  0  0  0  0  0
    2.4370  142.7163   53.7807 O   0  0  0  0  0  0  0  0  0  0  0  0
    2.0661  143.1951   52.4935 C   0  0  0  0  0  0  0  0  0  0  0  0
    1.2951  143.9661   52.5854 H   0  0  0  0  0  0  0  0  0  0  0  0
    2.9391  143.6141   51.9870 H   0  0  0  0  0  0  0  0  0  0  0  0
    1.5335  142.0207   51.6955 C   0  0  0  0  0  0  0  0  0  0  0  0
    2.2040  141.1573   51.6848 H   0  0  0  0  0  0  0  0  0  0  0  0
    0.0377  141.7348   51.6958 C   0  0  0  0  0  0  0  0  0  0  0  0
   -0.2700  140.6865   51.6908 H   0  0  0  0  0  0  0  0  0  0  0  0
   -0.6518  142.4120   52.2078 H   0  0  0  0  0  0  0  0  0  0  0  0
    0.7130  142.2889   50.4458 C   0  0  0  0  0  0  0  0  0  0  0  0
    0.5407  143.3444   50.2036 H   0  0  0  0  0  0  0  0  0  0  0  0
    0.8211  141.6077   49.5939 H   0  0  0  0  0  0  0  0  0  0  0  0
    3.2550  143.2209   55.9009 C   0  0  0  0  0  0  0  0  0  0  0  0
    3.1453  141.8326   56.2231 C   0  0  0  0  0  0  0  0  0  0  0  0
    3.0708  140.6977   56.4521 N   0  0  0  0  0  0  0  0  0  0  0  0
    3.7369  144.1500   56.7788 C   0  0  0  0  0  0  0  0  0  0  0  0
    4.1282  143.7788   58.0043 N   0  0  0  0  0  0  0  0  0  0  0  0
    4.4781  144.4733   58.6575 H   0  0  0  0  0  0  0  0  0  0  0  0
    4.0665  142.8004   58.2616 H   0  0  0  0  0  0  0  0  0  0  0  0
    3.8808  145.4564   56.4412 C   0  0  0  0  0  0  0  0  0  0  0  0
    4.2749  146.1643   57.1600 H   0  0  0  0  0  0  0  0  0  0  0  0
    1.8886  149.2165   52.6594 C   0  0  0  0  0  0  0  0  0  0  0  0
    2.7548  148.4064   51.9647 O   0  0  0  0  0  0  0  0  0  0  0  0
    2.1449  147.3124   51.2765 C   0  0  0  0  0  0  0  0  0  0  0  0
    1.4536  146.7898   51.9432 H   0  0  0  0  0  0  0  0  0  0  0  0
    2.9110  146.6021   50.9527 H   0  0  0  0  0  0  0  0  0  0  0  0
    1.5984  147.6582   50.3948 H   0  0  0  0  0  0  0  0  0  0  0  0
  1  2  1  0
  2  3  2  0
  3  4  1  0
  3  5  1  0
  5  6  1  0
  6  7  1  0
  7  8  1  0
  7  9  1  0
  7 10  1  0
  5 11  2  0
 11 12  1  0
 11 13  1  0
 13 14  1  0
 14 15  1  0
 14 16  1  0
 14 17  1  0
 17 18  2  0
 17 19  1  0
 19 20  1  0
 19 21  1  0
 21 22  2  0
 22 23  1  0
 23 24  1  0
 24 25  1  0
 25 26  1  0
 25 27  1  0
 25 28  1  0
 28 29  1  0
 28 30  1  0
 30 31  1  0
 30 32  1  0
 30 33  1  0
 33 34  1  0
 33 35  1  0
 23 36  2  0
 36 37  1  0
 37 38  3  0
 36 39  1  0
 39 40  1  0
 40 41  1  0
 40 42  1  0
 39 43  2  0
 43 44  1  0
 13 45  2  0
 45 46  1  0
 46 47  1  0
 47 48  1  0
 47 49  1  0
 47 50  1  0
 45  2  1  0
 43 21  1  0
 33 28  1  0
M  END
>  <score>  (78) 
6.89708

$$$$

     RDKit          3D

 45 46  0  0  0  0  0  0  0  0999 V2000
    0.2893  149.1804   51.2337 H   0  0  0  0  0  0  0  0  0  0  0  0
    0.6265  149.5774   52.1838 C   0  0  0  0  0  0  0  0  0  0  0  0
   -0.1736  150.4796   52.9083 C   0  0  0  0  0  0  0  0  0  0  0  0
   -1.9081  150.9801   52.2662 Br  0  0  0  0  0  0  0  0  0  0  0  0
    0.3137  151.0375   54.1084 C   0  0  0  0  0  0  0  0  0  0  0  0
   -0.3815  151.9751   54.8207 O   0  0  0  0  0  0  0  0  0  0  0  0
   -1.4213  151.4061   55.6170 C   0  0  0  0  0  0  0  0  0  0  0  0
   -1.9369  152.1966   56.1711 H   0  0  0  0  0  0  0  0  0  0  0  0
   -1.0084  150.6912   56.3317 H   0  0  0  0  0  0  0  0  0  0  0  0
   -2.1466  150.8848   54.9867 H   0  0  0  0  0  0  0  0  0  0  0  0
    1.5709  150.6784   54.5805 C   0  0  0  0  0  0  0  0  0  0  0  0
    1.9560  151.1322   55.4936 H   0  0  0  0  0  0  0  0  0  0  0  0
    2.3467  149.7640   53.8716 C   0  0  0  0  0  0  0  0  0  0  0  0
    3.7001  149.4368   54.4172 C   0  0  0  0  0  0  0  0  0  0  0  0
    4.4151  149.3901   53.5969 H   0  0  0  0  0  0  0  0  0  0  0  0
    3.9839  150.2447   55.0765 H   0  0  0  0  0  0  0  0  0  0  0  0
    3.7338  148.1355   55.2024 C   0  0  0  0  0  0  0  0  0  0  0  0
    3.8134  148.1694   56.4188 O   0  0  0  0  0  0  0  0  0  0  0  0
    3.6746  146.9512   54.5318 N   0  0  0  0  0  0  0  0  0  0  0  0
    3.4413  146.9653   53.5507 H   0  0  0  0  0  0  0  0  0  0  0  0
    3.5412  145.7483   55.1136 C   0  0  0  0  0  0  0  0  0  0  0  0
    3.0481  144.8970   54.2454 N   0  0  0  0  0  0  0  0  0  0  0  0
    2.8924  143.6329   54.6284 C   0  0  0  0  0  0  0  0  0  0  0  0
    2.3463  142.7097   53.7954 O   0  0  0  0  0  0  0  0  0  0  0  0
    2.1869  143.0940   52.5280 C   0  0  0  0  0  0  0  0  0  0  0  0
    2.5582  144.1498   52.0381 O   0  0  0  0  0  0  0  0  0  0  0  0
    1.4890  142.1016   51.6297 C   0  0  0  0  0  0  0  0  0  0  0  0
    0.9224  142.6407   50.8724 H   0  0  0  0  0  0  0  0  0  0  0  0
    0.8053  141.4860   52.2142 H   0  0  0  0  0  0  0  0  0  0  0  0
    2.2271  141.4539   51.1574 H   0  0  0  0  0  0  0  0  0  0  0  0
    3.2490  143.1901   55.8733 C   0  0  0  0  0  0  0  0  0  0  0  0
    3.1359  141.8051   56.2084 C   0  0  0  0  0  0  0  0  0  0  0  0
    3.0487  140.6713   56.4465 N   0  0  0  0  0  0  0  0  0  0  0  0
    3.7360  144.1220   56.7421 C   0  0  0  0  0  0  0  0  0  0  0  0
    4.1121  143.7594   57.9734 N   0  0  0  0  0  0  0  0  0  0  0  0
    4.0578  142.7833   58.2408 H   0  0  0  0  0  0  0  0  0  0  0  0
    4.4701  144.4631   58.6103 H   0  0  0  0  0  0  0  0  0  0  0  0
    3.8769  145.4292   56.4024 C   0  0  0  0  0  0  0  0  0  0  0  0
    4.2595  146.1415   57.1238 H   0  0  0  0  0  0  0  0  0  0  0  0
    1.8981  149.2188   52.6585 C   0  0  0  0  0  0  0  0  0  0  0  0
    2.7612  148.4051   51.9635 O   0  0  0  0  0  0  0  0  0  0  0  0
    2.1532  147.3065   51.2792 C   0  0  0  0  0  0  0  0  0  0  0  0
    2.9259  146.6114   50.9353 H   0  0  0  0  0  0  0  0  0  0  0  0
    1.5866  147.6529   50.4095 H   0  0  0  0  0  0  0  0  0  0  0  0
    1.4808  146.7672   51.9545 H   0  0  0  0  0  0  0  0  0  0  0  0
  1  2  1  0
  2  3  2  0
  3  4  1  0
  3  5  1  0
  5  6  1  0
  6  7  1  0
  7  8  1  0
  7  9  1  0
  7 10  1  0
  5 11  2  0
 11 12  1  0
 11 13  1  0
 13 14  1  0
 14 15  1  0
 14 16  1  0
 14 17  1  0
 17 18  2  0
 17 19  1  0
 19 20  1  0
 19 21  1  0
 21 22  2  0
 22 23  1  0
 23 24  1  0
 24 25  1  0
 25 26  2  0
 25 27  1  0
 27 28  1  0
 27 29  1  0
 27 30  1  0
 23 31  2  0
 31 32  1  0
 32 33  3  0
 31 34  1  0
 34 35  1  0
 35 36  1  0
 35 37  1  0
 34 38  2  0
 38 39  1  0
 13 40  2  0
 40 41  1  0
 41 42  1  0
 42 43  1  0
 42 44  1  0
 42 45  1  0
 40  2  1  0
 38 21  1  0
M  END
>  <score>  (79) 
6.90372

$$$$

     RDKit          3D

 46 47  0  0  0  0  0  0  0  0999 V2000
    0.3037  149.2006   51.2504 H   0  0  0  0  0  0  0  0  0  0  0  0
    0.6583  149.6065   52.1934 C   0  0  0  0  0  0  0  0  0  0  0  0
   -0.1445  150.5009   52.9343 C   0  0  0  0  0  0  0  0  0  0  0  0
   -1.8702  150.9846   52.2758 Br  0  0  0  0  0  0  0  0  0  0  0  0
    0.3340  151.0604   54.1318 C   0  0  0  0  0  0  0  0  0  0  0  0
   -0.3806  151.9774   54.8614 O   0  0  0  0  0  0  0  0  0  0  0  0
   -1.4274  151.4040   55.6492 C   0  0  0  0  0  0  0  0  0  0  0  0
   -1.0134  150.7028   56.3759 H   0  0  0  0  0  0  0  0  0  0  0  0
   -1.9435  152.2017   56.1929 H   0  0  0  0  0  0  0  0  0  0  0  0
   -2.1535  150.8748   55.0227 H   0  0  0  0  0  0  0  0  0  0  0  0
    1.5978  150.6900   54.5735 C   0  0  0  0  0  0  0  0  0  0  0  0
    1.9915  151.1439   55.4741 H   0  0  0  0  0  0  0  0  0  0  0  0
    2.3818  149.7839   53.8577 C   0  0  0  0  0  0  0  0  0  0  0  0
    3.7282  149.4705   54.4013 C   0  0  0  0  0  0  0  0  0  0  0  0
    4.0014  150.3450   54.9793 H   0  0  0  0  0  0  0  0  0  0  0  0
    4.4164  149.3548   53.5613 H   0  0  0  0  0  0  0  0  0  0  0  0
    3.7477  148.2034   55.2645 C   0  0  0  0  0  0  0  0  0  0  0  0
    3.8527  148.2584   56.4809 O   0  0  0  0  0  0  0  0  0  0  0  0
    3.7028  146.9925   54.6295 N   0  0  0  0  0  0  0  0  0  0  0  0
    3.5208  146.9619   53.6386 H   0  0  0  0  0  0  0  0  0  0  0  0
    3.5387  145.7857   55.2025 C   0  0  0  0  0  0  0  0  0  0  0  0
    3.0602  144.9494   54.3004 N   0  0  0  0  0  0  0  0  0  0  0  0
    2.9135  143.6679   54.6302 C   0  0  0  0  0  0  0  0  0  0  0  0
    2.3591  142.7344   53.6194 C   0  0  0  0  0  0  0  0  0  0  0  0
    3.0531  141.9060   53.4511 H   0  0  0  0  0  0  0  0  0  0  0  0
    1.4039  142.3475   53.9661 H   0  0  0  0  0  0  0  0  0  0  0  0
    2.1226  143.4738   52.3453 C   0  0  0  0  0  0  0  0  0  0  0  0
    1.0092  143.8113   51.9981 O   0  0  0  0  0  0  0  0  0  0  0  0
    3.0979  143.5512   51.4119 N   0  0  0  0  0  0  0  0  0  0  0  0
    2.8393  143.9702   50.5306 H   0  0  0  0  0  0  0  0  0  0  0  0
    4.0349  143.2102   51.5974 H   0  0  0  0  0  0  0  0  0  0  0  0
    3.2601  143.1974   55.8879 C   0  0  0  0  0  0  0  0  0  0  0  0
    3.1352  141.8173   56.2240 C   0  0  0  0  0  0  0  0  0  0  0  0
    3.0371  140.6814   56.4583 N   0  0  0  0  0  0  0  0  0  0  0  0
    3.7445  144.1069   56.7932 C   0  0  0  0  0  0  0  0  0  0  0  0
    4.1477  143.7218   58.0164 N   0  0  0  0  0  0  0  0  0  0  0  0
    4.0581  142.7460   58.2907 H   0  0  0  0  0  0  0  0  0  0  0  0
    4.4938  144.4311   58.6566 H   0  0  0  0  0  0  0  0  0  0  0  0
    3.8837  145.4232   56.4772 C   0  0  0  0  0  0  0  0  0  0  0  0
    4.2977  146.1157   57.1921 H   0  0  0  0  0  0  0  0  0  0  0  0
    1.9348  149.2396   52.6471 C   0  0  0  0  0  0  0  0  0  0  0  0
    2.7752  148.4010   51.9485 O   0  0  0  0  0  0  0  0  0  0  0  0
    2.1643  147.2938   51.2818 C   0  0  0  0  0  0  0  0  0  0  0  0
    1.4782  146.7639   51.9527 H   0  0  0  0  0  0  0  0  0  0  0  0
    2.9503  146.5976   50.9684 H   0  0  0  0  0  0  0  0  0  0  0  0
    1.6181  147.6353   50.3974 H   0  0  0  0  0  0  0  0  0  0  0  0
  1  2  1  0
  2  3  2  0
  3  4  1  0
  3  5  1  0
  5  6  1  0
  6  7  1  0
  7  8  1  0
  7  9  1  0
  7 10  1  0
  5 11  2  0
 11 12  1  0
 11 13  1  0
 13 14  1  0
 14 15  1  0
 14 16  1  0
 14 17  1  0
 17 18  2  0
 17 19  1  0
 19 20  1  0
 19 21  1  0
 21 22  2  0
 22 23  1  0
 23 24  1  0
 24 25  1  0
 24 26  1  0
 24 27  1  0
 27 28  2  0
 27 29  1  0
 29 30  1  0
 29 31  1  0
 23 32  2  0
 32 33  1  0
 33 34  3  0
 32 35  1  0
 35 36  1  0
 36 37  1  0
 36 38  1  0
 35 39  2  0
 39 40  1  0
 13 41  2  0
 41 42  1  0
 42 43  1  0
 43 44  1  0
 43 45  1  0
 43 46  1  0
 41  2  1  0
 39 21  1  0
M  END
>  <score>  (80) 
6.9044

$$$$

     RDKit          3D

 47 49  0  0  0  0  0  0  0  0999 V2000
   -0.0696  141.1100   52.2000 H   0  0  0  0  0  0  0  0  0  0  0  0
    0.7774  141.7852   52.1191 C   0  0  0  0  0  0  0  0  0  0  0  0
    1.2589  141.9785   50.8923 N   0  0  0  0  0  0  0  0  0  0  0  0
    2.3316  142.7588   50.7788 C   0  0  0  0  0  0  0  0  0  0  0  0
    2.7692  142.9422   49.8054 H   0  0  0  0  0  0  0  0  0  0  0  0
    2.9172  143.3512   51.8843 C   0  0  0  0  0  0  0  0  0  0  0  0
    3.7451  144.0438   51.7682 H   0  0  0  0  0  0  0  0  0  0  0  0
    2.3847  143.1107   53.1523 C   0  0  0  0  0  0  0  0  0  0  0  0
    2.9273  143.8504   54.3499 C   0  0  0  0  0  0  0  0  0  0  0  0
    3.1917  145.1422   54.1234 N   0  0  0  0  0  0  0  0  0  0  0  0
    3.6537  145.9024   55.0740 C   0  0  0  0  0  0  0  0  0  0  0  0
    3.8301  147.1180   54.5480 N   0  0  0  0  0  0  0  0  0  0  0  0
    3.5703  147.1752   53.5737 H   0  0  0  0  0  0  0  0  0  0  0  0
    3.7611  148.2558   55.2747 C   0  0  0  0  0  0  0  0  0  0  0  0
    3.8024  148.2360   56.4924 O   0  0  0  0  0  0  0  0  0  0  0  0
    3.6766  149.5467   54.4847 C   0  0  0  0  0  0  0  0  0  0  0  0
    3.8889  150.3658   55.1568 H   0  0  0  0  0  0  0  0  0  0  0  0
    4.4418  149.5279   53.7092 H   0  0  0  0  0  0  0  0  0  0  0  0
    2.3259  149.8099   53.8737 C   0  0  0  0  0  0  0  0  0  0  0  0
    1.5036  150.7071   54.5566 C   0  0  0  0  0  0  0  0  0  0  0  0
    1.8404  151.1433   55.4917 H   0  0  0  0  0  0  0  0  0  0  0  0
    0.2569  151.0644   54.0598 C   0  0  0  0  0  0  0  0  0  0  0  0
   -0.4699  151.9966   54.7465 O   0  0  0  0  0  0  0  0  0  0  0  0
   -1.4742  151.4040   55.5674 C   0  0  0  0  0  0  0  0  0  0  0  0
   -1.9747  152.1763   56.1608 H   0  0  0  0  0  0  0  0  0  0  0  0
   -2.2186  150.8933   54.9494 H   0  0  0  0  0  0  0  0  0  0  0  0
   -1.0208  150.6771   56.2454 H   0  0  0  0  0  0  0  0  0  0  0  0
   -0.2067  150.4744   52.8745 C   0  0  0  0  0  0  0  0  0  0  0  0
   -1.9436  150.9102   52.1920 Br  0  0  0  0  0  0  0  0  0  0  0  0
    0.6092  149.5613   52.1881 C   0  0  0  0  0  0  0  0  0  0  0  0
    0.2438  149.1244   51.2665 H   0  0  0  0  0  0  0  0  0  0  0  0
    1.8907  149.2271   52.6663 C   0  0  0  0  0  0  0  0  0  0  0  0
    2.7331  148.3708   51.9950 O   0  0  0  0  0  0  0  0  0  0  0  0
    2.0998  147.3116   51.2647 C   0  0  0  0  0  0  0  0  0  0  0  0
    2.8648  146.6124   50.9136 H   0  0  0  0  0  0  0  0  0  0  0  0
    1.3999  146.7619   51.9046 H   0  0  0  0  0  0  0  0  0  0  0  0
    1.5572  147.6999   50.3966 H   0  0  0  0  0  0  0  0  0  0  0  0
    3.8946  145.4723   56.3436 C   0  0  0  0  0  0  0  0  0  0  0  0
    4.2824  146.1254   57.1066 H   0  0  0  0  0  0  0  0  0  0  0  0
    3.6247  144.1645   56.6122 C   0  0  0  0  0  0  0  0  0  0  0  0
    3.8781  143.7509   57.8748 N   0  0  0  0  0  0  0  0  0  0  0  0
    4.3913  144.3984   58.4657 H   0  0  0  0  0  0  0  0  0  0  0  0
    3.9892  142.7531   58.0260 H   0  0  0  0  0  0  0  0  0  0  0  0
    3.1571  143.3116   55.6270 C   0  0  0  0  0  0  0  0  0  0  0  0
    3.0163  141.9215   55.9040 C   0  0  0  0  0  0  0  0  0  0  0  0
    2.9535  140.7882   56.1591 N   0  0  0  0  0  0  0  0  0  0  0  0
    1.3163  142.3029   53.2360 N   0  0  0  0  0  0  0  0  0  0  0  0
  1  2  1  0
  2  3  2  0
  3  4  1  0
  4  5  1  0
  4  6  2  0
  6  7  1  0
  6  8  1  0
  8  9  1  0
  9 10  2  0
 10 11  1  0
 11 12  1  0
 12 13  1  0
 12 14  1  0
 14 15  2  0
 14 16  1  0
 16 17  1  0
 16 18  1  0
 16 19  1  0
 19 20  2  0
 20 21  1  0
 20 22  1  0
 22 23  1  0
 23 24  1  0
 24 25  1  0
 24 26  1  0
 24 27  1  0
 22 28  2  0
 28 29  1  0
 28 30  1  0
 30 31  1  0
 30 32  2  0
 32 33  1  0
 33 34  1  0
 34 35  1  0
 34 36  1  0
 34 37  1  0
 11 38  2  0
 38 39  1  0
 38 40  1  0
 40 41  1  0
 41 42  1  0
 41 43  1  0
 40 44  2  0
 44 45  1  0
 45 46  3  0
  8 47  2  0
 47  2  1  0
 44  9  1  0
 32 19  1  0
M  END
>  <score>  (81) 
6.90653

$$$$

     RDKit          3D

 46 47  0  0  0  0  0  0  0  0999 V2000
    0.2621  149.1619   51.2436 H   0  0  0  0  0  0  0  0  0  0  0  0
    0.6096  149.5723   52.1853 C   0  0  0  0  0  0  0  0  0  0  0  0
   -0.1963  150.4715   52.9019 C   0  0  0  0  0  0  0  0  0  0  0  0
   -1.9306  150.9564   52.2382 Br  0  0  0  0  0  0  0  0  0  0  0  0
    0.2979  151.0417   54.0859 C   0  0  0  0  0  0  0  0  0  0  0  0
   -0.4058  151.9838   54.7793 O   0  0  0  0  0  0  0  0  0  0  0  0
   -1.4318  151.4044   55.5818 C   0  0  0  0  0  0  0  0  0  0  0  0
   -1.9381  152.1847   56.1559 H   0  0  0  0  0  0  0  0  0  0  0  0
   -2.1650  150.8931   54.9517 H   0  0  0  0  0  0  0  0  0  0  0  0
   -1.0060  150.6836   56.2826 H   0  0  0  0  0  0  0  0  0  0  0  0
    1.5435  150.6579   54.5707 C   0  0  0  0  0  0  0  0  0  0  0  0
    1.8964  151.0964   55.4968 H   0  0  0  0  0  0  0  0  0  0  0  0
    2.3386  149.7558   53.8679 C   0  0  0  0  0  0  0  0  0  0  0  0
    3.6823  149.4123   54.4349 C   0  0  0  0  0  0  0  0  0  0  0  0
    4.4387  149.4114   53.6415 H   0  0  0  0  0  0  0  0  0  0  0  0
    3.9278  150.1676   55.1715 H   0  0  0  0  0  0  0  0  0  0  0  0
    3.6827  148.0970   55.1860 C   0  0  0  0  0  0  0  0  0  0  0  0
    3.7891  148.0873   56.3994 O   0  0  0  0  0  0  0  0  0  0  0  0
    3.6358  146.9266   54.5016 N   0  0  0  0  0  0  0  0  0  0  0  0
    3.3481  146.9414   53.5351 H   0  0  0  0  0  0  0  0  0  0  0  0
    3.5363  145.7274   55.1059 C   0  0  0  0  0  0  0  0  0  0  0  0
    2.9999  144.8817   54.2664 N   0  0  0  0  0  0  0  0  0  0  0  0
    2.8719  143.6527   54.6860 C   0  0  0  0  0  0  0  0  0  0  0  0
    2.2723  142.9076   53.7385 N   0  0  0  0  0  0  0  0  0  0  0  0
    1.7965  143.4557   53.0386 H   0  0  0  0  0  0  0  0  0  0  0  0
    2.9783  141.8384   53.2777 C   0  0  0  0  0  0  0  0  0  0  0  0
    3.9628  141.4283   53.8646 O   0  0  0  0  0  0  0  0  0  0  0  0
    2.4822  141.1203   52.0490 C   0  0  0  0  0  0  0  0  0  0  0  0
    2.4266  141.8174   51.2044 H   0  0  0  0  0  0  0  0  0  0  0  0
    1.4883  140.7094   52.2599 H   0  0  0  0  0  0  0  0  0  0  0  0
    3.1736  140.3008   51.8103 H   0  0  0  0  0  0  0  0  0  0  0  0
    3.2945  143.1858   55.9077 C   0  0  0  0  0  0  0  0  0  0  0  0
    3.1821  141.8067   56.2425 C   0  0  0  0  0  0  0  0  0  0  0  0
    3.0920  140.6688   56.4513 N   0  0  0  0  0  0  0  0  0  0  0  0
    3.7874  144.1110   56.7854 C   0  0  0  0  0  0  0  0  0  0  0  0
    4.1192  143.7768   58.0572 N   0  0  0  0  0  0  0  0  0  0  0  0
    4.1392  142.7906   58.3218 H   0  0  0  0  0  0  0  0  0  0  0  0
    4.4959  144.4986   58.6736 H   0  0  0  0  0  0  0  0  0  0  0  0
    3.9017  145.4164   56.3988 C   0  0  0  0  0  0  0  0  0  0  0  0
    4.2570  146.1655   57.0847 H   0  0  0  0  0  0  0  0  0  0  0  0
    1.8875  149.2202   52.6552 C   0  0  0  0  0  0  0  0  0  0  0  0
    2.7376  148.3907   51.9671 O   0  0  0  0  0  0  0  0  0  0  0  0
    2.1237  147.3092   51.2662 C   0  0  0  0  0  0  0  0  0  0  0  0
    2.8931  146.6054   50.9331 H   0  0  0  0  0  0  0  0  0  0  0  0
    1.4322  146.7787   51.9274 H   0  0  0  0  0  0  0  0  0  0  0  0
    1.5797  147.6730   50.3901 H   0  0  0  0  0  0  0  0  0  0  0  0
  1  2  1  0
  2  3  2  0
  3  4  1  0
  3  5  1  0
  5  6  1  0
  6  7  1  0
  7  8  1  0
  7  9  1  0
  7 10  1  0
  5 11  2  0
 11 12  1  0
 11 13  1  0
 13 14  1  0
 14 15  1  0
 14 16  1  0
 14 17  1  0
 17 18  2  0
 17 19  1  0
 19 20  1  0
 19 21  1  0
 21 22  2  0
 22 23  1  0
 23 24  1  0
 24 25  1  0
 24 26  1  0
 26 27  2  0
 26 28  1  0
 28 29  1  0
 28 30  1  0
 28 31  1  0
 23 32  2  0
 32 33  1  0
 33 34  3  0
 32 35  1  0
 35 36  1  0
 36 37  1  0
 36 38  1  0
 35 39  2  0
 39 40  1  0
 13 41  2  0
 41 42  1  0
 42 43  1  0
 43 44  1  0
 43 45  1  0
 43 46  1  0
 41  2  1  0
 39 21  1  0
M  END
>  <score>  (82) 
6.91094

$$$$

     RDKit          3D

 42 43  0  0  0  0  0  0  0  0999 V2000
    0.2849  149.1707   51.2341 H   0  0  0  0  0  0  0  0  0  0  0  0
    0.6182  149.5732   52.1830 C   0  0  0  0  0  0  0  0  0  0  0  0
   -0.1851  150.4746   52.9040 C   0  0  0  0  0  0  0  0  0  0  0  0
   -1.9206  150.9775   52.2613 Br  0  0  0  0  0  0  0  0  0  0  0  0
    0.3046  151.0370   54.0998 C   0  0  0  0  0  0  0  0  0  0  0  0
   -0.3892  151.9763   54.8062 O   0  0  0  0  0  0  0  0  0  0  0  0
   -1.4226  151.4056   55.6075 C   0  0  0  0  0  0  0  0  0  0  0  0
   -2.1481  150.8864   54.9771 H   0  0  0  0  0  0  0  0  0  0  0  0
   -1.0068  150.6883   56.3179 H   0  0  0  0  0  0  0  0  0  0  0  0
   -1.9363  152.1946   56.1655 H   0  0  0  0  0  0  0  0  0  0  0  0
    1.5591  150.6851   54.5787 C   0  0  0  0  0  0  0  0  0  0  0  0
    1.9390  151.1400   55.4961 H   0  0  0  0  0  0  0  0  0  0  0  0
    2.3367  149.7726   53.8709 C   0  0  0  0  0  0  0  0  0  0  0  0
    3.6947  149.4750   54.4182 C   0  0  0  0  0  0  0  0  0  0  0  0
    3.9508  150.2977   55.0626 H   0  0  0  0  0  0  0  0  0  0  0  0
    4.4244  149.4308   53.6099 H   0  0  0  0  0  0  0  0  0  0  0  0
    3.7613  148.2118   55.2534 C   0  0  0  0  0  0  0  0  0  0  0  0
    3.8276  148.2783   56.4652 O   0  0  0  0  0  0  0  0  0  0  0  0
    3.7596  147.0124   54.6282 N   0  0  0  0  0  0  0  0  0  0  0  0
    3.4478  146.9769   53.6673 H   0  0  0  0  0  0  0  0  0  0  0  0
    3.6395  145.8362   55.2324 C   0  0  0  0  0  0  0  0  0  0  0  0
    3.1811  145.0313   54.3075 N   0  0  0  0  0  0  0  0  0  0  0  0
    2.9853  143.7322   54.5683 C   0  0  0  0  0  0  0  0  0  0  0  0
    2.4800  142.8249   53.4143 C   0  0  0  0  0  0  0  0  0  0  0  0
    2.3952  143.4905   52.2251 F   0  0  0  0  0  0  0  0  0  0  0  0
    1.2359  142.3554   53.6745 F   0  0  0  0  0  0  0  0  0  0  0  0
    3.3163  141.7675   53.2120 F   0  0  0  0  0  0  0  0  0  0  0  0
    3.2919  143.2590   55.8528 C   0  0  0  0  0  0  0  0  0  0  0  0
    3.1672  141.8746   56.1783 C   0  0  0  0  0  0  0  0  0  0  0  0
    3.0756  140.7542   56.4728 N   0  0  0  0  0  0  0  0  0  0  0  0
    3.7674  144.1562   56.8025 C   0  0  0  0  0  0  0  0  0  0  0  0
    4.1155  143.7758   58.0551 N   0  0  0  0  0  0  0  0  0  0  0  0
    4.0876  142.7936   58.3061 H   0  0  0  0  0  0  0  0  0  0  0  0
    4.4942  144.4606   58.7063 H   0  0  0  0  0  0  0  0  0  0  0  0
    3.9280  145.4764   56.5175 C   0  0  0  0  0  0  0  0  0  0  0  0
    4.2955  146.1568   57.2744 H   0  0  0  0  0  0  0  0  0  0  0  0
    1.8912  149.2228   52.6595 C   0  0  0  0  0  0  0  0  0  0  0  0
    2.7578  148.4074   51.9721 O   0  0  0  0  0  0  0  0  0  0  0  0
    2.1468  147.3154   51.2794 C   0  0  0  0  0  0  0  0  0  0  0  0
    1.4544  146.7889   51.9429 H   0  0  0  0  0  0  0  0  0  0  0  0
    1.6002  147.6631   50.3981 H   0  0  0  0  0  0  0  0  0  0  0  0
    2.9123  146.6055   50.9529 H   0  0  0  0  0  0  0  0  0  0  0  0
  1  2  1  0
  2  3  2  0
  3  4  1  0
  3  5  1  0
  5  6  1  0
  6  7  1  0
  7  8  1  0
  7  9  1  0
  7 10  1  0
  5 11  2  0
 11 12  1  0
 11 13  1  0
 13 14  1  0
 14 15  1  0
 14 16  1  0
 14 17  1  0
 17 18  2  0
 17 19  1  0
 19 20  1  0
 19 21  1  0
 21 22  2  0
 22 23  1  0
 23 24  1  0
 24 25  1  0
 24 26  1  0
 24 27  1  0
 23 28  2  0
 28 29  1  0
 29 30  3  0
 28 31  1  0
 31 32  1  0
 32 33  1  0
 32 34  1  0
 31 35  2  0
 35 36  1  0
 13 37  2  0
 37 38  1  0
 38 39  1  0
 39 40  1  0
 39 41  1  0
 39 42  1  0
 37  2  1  0
 35 21  1  0
M  END
>  <score>  (83) 
6.91393

$$$$

     RDKit          3D

 50 51  0  0  0  0  0  0  0  0999 V2000
    0.2782  149.1686   51.2280 H   0  0  0  0  0  0  0  0  0  0  0  0
    0.6106  149.5710   52.1791 C   0  0  0  0  0  0  0  0  0  0  0  0
   -0.1923  150.4717   52.9016 C   0  0  0  0  0  0  0  0  0  0  0  0
   -1.9269  150.9769   52.2598 Br  0  0  0  0  0  0  0  0  0  0  0  0
    0.3027  151.0343   54.0947 C   0  0  0  0  0  0  0  0  0  0  0  0
   -0.3896  151.9753   54.7980 O   0  0  0  0  0  0  0  0  0  0  0  0
   -1.4211  151.4050   55.6009 C   0  0  0  0  0  0  0  0  0  0  0  0
   -1.9333  152.1939   56.1612 H   0  0  0  0  0  0  0  0  0  0  0  0
   -2.1477  150.8875   54.9700 H   0  0  0  0  0  0  0  0  0  0  0  0
   -1.0044  150.6859   56.3097 H   0  0  0  0  0  0  0  0  0  0  0  0
    1.5543  150.6747   54.5786 C   0  0  0  0  0  0  0  0  0  0  0  0
    1.9315  151.1294   55.4964 H   0  0  0  0  0  0  0  0  0  0  0  0
    2.3316  149.7613   53.8734 C   0  0  0  0  0  0  0  0  0  0  0  0
    3.6903  149.4561   54.4231 C   0  0  0  0  0  0  0  0  0  0  0  0
    3.9530  150.2584   55.0974 H   0  0  0  0  0  0  0  0  0  0  0  0
    4.4216  149.4266   53.6150 H   0  0  0  0  0  0  0  0  0  0  0  0
    3.7466  148.1750   55.2289 C   0  0  0  0  0  0  0  0  0  0  0  0
    3.8144  148.2257   56.4421 O   0  0  0  0  0  0  0  0  0  0  0  0
    3.7079  146.9800   54.5917 N   0  0  0  0  0  0  0  0  0  0  0  0
    3.4098  146.9512   53.6273 H   0  0  0  0  0  0  0  0  0  0  0  0
    3.5632  145.8075   55.2127 C   0  0  0  0  0  0  0  0  0  0  0  0
    3.0784  144.9799   54.3222 N   0  0  0  0  0  0  0  0  0  0  0  0
    2.9379  143.6880   54.6399 C   0  0  0  0  0  0  0  0  0  0  0  0
    2.3270  142.7478   53.5914 C   0  0  0  0  0  0  0  0  0  0  0  0
    1.8244  143.3650   52.8382 H   0  0  0  0  0  0  0  0  0  0  0  0
    1.5613  142.1702   54.1093 H   0  0  0  0  0  0  0  0  0  0  0  0
    3.2471  141.7910   52.9024 N   0  0  0  0  0  0  0  0  0  0  0  0
    2.7420  140.9792   52.5399 H   0  0  0  0  0  0  0  0  0  0  0  0
    4.0921  142.3715   51.8458 C   0  0  0  0  0  0  0  0  0  0  0  0
    3.4963  142.5900   50.9544 H   0  0  0  0  0  0  0  0  0  0  0  0
    4.5186  143.3149   52.1847 H   0  0  0  0  0  0  0  0  0  0  0  0
    5.2144  141.4136   51.4905 C   0  0  0  0  0  0  0  0  0  0  0  0
    4.7924  140.4871   51.0940 H   0  0  0  0  0  0  0  0  0  0  0  0
    5.8759  141.8663   50.7391 H   0  0  0  0  0  0  0  0  0  0  0  0
    5.8064  141.1932   52.3863 H   0  0  0  0  0  0  0  0  0  0  0  0
    3.2745  143.2376   55.9129 C   0  0  0  0  0  0  0  0  0  0  0  0
    3.1587  141.8509   56.2404 C   0  0  0  0  0  0  0  0  0  0  0  0
    3.0737  140.7166   56.4750 N   0  0  0  0  0  0  0  0  0  0  0  0
    3.7513  144.1577   56.8209 C   0  0  0  0  0  0  0  0  0  0  0  0
    4.1321  143.7834   58.0567 N   0  0  0  0  0  0  0  0  0  0  0  0
    4.0862  142.7989   58.2983 H   0  0  0  0  0  0  0  0  0  0  0  0
    4.4988  144.4762   58.7067 H   0  0  0  0  0  0  0  0  0  0  0  0
    3.8966  145.4699   56.4970 C   0  0  0  0  0  0  0  0  0  0  0  0
    4.3043  146.1676   57.2108 H   0  0  0  0  0  0  0  0  0  0  0  0
    1.8847  149.2197   52.6579 C   0  0  0  0  0  0  0  0  0  0  0  0
    2.7525  148.4089   51.9677 O   0  0  0  0  0  0  0  0  0  0  0  0
    2.1427  147.3173   51.2771 C   0  0  0  0  0  0  0  0  0  0  0  0
    2.9080  146.6073   50.9513 H   0  0  0  0  0  0  0  0  0  0  0  0
    1.4515  146.7937   51.9428 H   0  0  0  0  0  0  0  0  0  0  0  0
    1.5960  147.6653   50.3967 H   0  0  0  0  0  0  0  0  0  0  0  0
  1  2  1  0
  2  3  2  0
  3  4  1  0
  3  5  1  0
  5  6  1  0
  6  7  1  0
  7  8  1  0
  7  9  1  0
  7 10  1  0
  5 11  2  0
 11 12  1  0
 11 13  1  0
 13 14  1  0
 14 15  1  0
 14 16  1  0
 14 17  1  0
 17 18  2  0
 17 19  1  0
 19 20  1  0
 19 21  1  0
 21 22  2  0
 22 23  1  0
 23 24  1  0
 24 25  1  0
 24 26  1  0
 24 27  1  0
 27 28  1  0
 27 29  1  0
 29 30  1  0
 29 31  1  0
 29 32  1  0
 32 33  1  0
 32 34  1  0
 32 35  1  0
 23 36  2  0
 36 37  1  0
 37 38  3  0
 36 39  1  0
 39 40  1  0
 40 41  1  0
 40 42  1  0
 39 43  2  0
 43 44  1  0
 13 45  2  0
 45 46  1  0
 46 47  1  0
 47 48  1  0
 47 49  1  0
 47 50  1  0
 45  2  1  0
 43 21  1  0
M  END
>  <score>  (84) 
6.91573

$$$$

     RDKit          3D

 52 53  0  0  0  0  0  0  0  0999 V2000
    0.2673  149.0456   51.2662 H   0  0  0  0  0  0  0  0  0  0  0  0
    0.6021  149.5249   52.1797 C   0  0  0  0  0  0  0  0  0  0  0  0
   -0.2266  150.4523   52.8316 C   0  0  0  0  0  0  0  0  0  0  0  0
   -1.9560  150.8515   52.1158 Br  0  0  0  0  0  0  0  0  0  0  0  0
    0.2148  151.0687   54.0127 C   0  0  0  0  0  0  0  0  0  0  0  0
   -0.5446  151.9944   54.6722 O   0  0  0  0  0  0  0  0  0  0  0  0
   -1.5284  151.3868   55.5086 C   0  0  0  0  0  0  0  0  0  0  0  0
   -1.9946  152.1533   56.1324 H   0  0  0  0  0  0  0  0  0  0  0  0
   -2.3005  150.9069   54.8987 H   0  0  0  0  0  0  0  0  0  0  0  0
   -1.0757  150.6377   56.1660 H   0  0  0  0  0  0  0  0  0  0  0  0
    1.4569  150.7281   54.5379 C   0  0  0  0  0  0  0  0  0  0  0  0
    1.7756  151.1832   55.4741 H   0  0  0  0  0  0  0  0  0  0  0  0
    2.2930  149.8188   53.8784 C   0  0  0  0  0  0  0  0  0  0  0  0
    3.6169  149.5466   54.5266 C   0  0  0  0  0  0  0  0  0  0  0  0
    3.7610  150.3056   55.2934 H   0  0  0  0  0  0  0  0  0  0  0  0
    4.4288  149.6104   53.7928 H   0  0  0  0  0  0  0  0  0  0  0  0
    3.6339  148.2004   55.2243 C   0  0  0  0  0  0  0  0  0  0  0  0
    3.7242  148.1436   56.4392 O   0  0  0  0  0  0  0  0  0  0  0  0
    3.6096  147.0713   54.4708 N   0  0  0  0  0  0  0  0  0  0  0  0
    3.3320  147.1148   53.5041 H   0  0  0  0  0  0  0  0  0  0  0  0
    3.4869  145.8564   55.0006 C   0  0  0  0  0  0  0  0  0  0  0  0
    3.0257  145.0503   54.1001 N   0  0  0  0  0  0  0  0  0  0  0  0
    2.9418  143.7575   54.4086 C   0  0  0  0  0  0  0  0  0  0  0  0
    2.6927  142.8802   53.3899 O   0  0  0  0  0  0  0  0  0  0  0  0
    2.6620  143.5025   52.0906 C   0  0  0  0  0  0  0  0  0  0  0  0
    3.5025  144.2025   51.9675 H   0  0  0  0  0  0  0  0  0  0  0  0
    2.7447  142.7544   51.3022 H   0  0  0  0  0  0  0  0  0  0  0  0
    1.3514  144.2872   51.9595 C   0  0  0  0  0  0  0  0  0  0  0  0
    1.3874  145.1457   52.6279 H   0  0  0  0  0  0  0  0  0  0  0  0
    1.2319  144.6644   50.9413 H   0  0  0  0  0  0  0  0  0  0  0  0
    0.1102  143.4882   52.3282 C   0  0  0  0  0  0  0  0  0  0  0  0
   -0.7482  143.9821   51.8808 H   0  0  0  0  0  0  0  0  0  0  0  0
   -0.0239  143.5263   53.4123 H   0  0  0  0  0  0  0  0  0  0  0  0
    0.2027  142.0475   51.8272 C   0  0  0  0  0  0  0  0  0  0  0  0
    1.0027  141.5093   52.3511 H   0  0  0  0  0  0  0  0  0  0  0  0
    0.3967  142.0401   50.7512 H   0  0  0  0  0  0  0  0  0  0  0  0
   -0.7339  141.5218   51.9977 H   0  0  0  0  0  0  0  0  0  0  0  0
    3.1953  143.2921   55.6781 C   0  0  0  0  0  0  0  0  0  0  0  0
    3.0845  141.9085   55.9975 C   0  0  0  0  0  0  0  0  0  0  0  0
    3.0112  140.7691   56.2031 N   0  0  0  0  0  0  0  0  0  0  0  0
    3.6484  144.1989   56.5883 C   0  0  0  0  0  0  0  0  0  0  0  0
    3.9740  143.8608   57.8447 N   0  0  0  0  0  0  0  0  0  0  0  0
    3.9890  142.8880   58.1292 H   0  0  0  0  0  0  0  0  0  0  0  0
    4.3615  144.5880   58.4415 H   0  0  0  0  0  0  0  0  0  0  0  0
    3.8495  145.4927   56.2533 C   0  0  0  0  0  0  0  0  0  0  0  0
    4.2986  146.1875   56.9424 H   0  0  0  0  0  0  0  0  0  0  0  0
    1.8735  149.2001   52.6806 C   0  0  0  0  0  0  0  0  0  0  0  0
    2.6985  148.2967   52.0423 O   0  0  0  0  0  0  0  0  0  0  0  0
    2.0343  147.3234   51.2226 C   0  0  0  0  0  0  0  0  0  0  0  0
    1.2802  146.7980   51.8166 H   0  0  0  0  0  0  0  0  0  0  0  0
    2.7580  146.5924   50.8521 H   0  0  0  0  0  0  0  0  0  0  0  0
    1.5494  147.7906   50.3583 H   0  0  0  0  0  0  0  0  0  0  0  0
  1  2  1  0
  2  3  2  0
  3  4  1  0
  3  5  1  0
  5  6  1  0
  6  7  1  0
  7  8  1  0
  7  9  1  0
  7 10  1  0
  5 11  2  0
 11 12  1  0
 11 13  1  0
 13 14  1  0
 14 15  1  0
 14 16  1  0
 14 17  1  0
 17 18  2  0
 17 19  1  0
 19 20  1  0
 19 21  1  0
 21 22  2  0
 22 23  1  0
 23 24  1  0
 24 25  1  0
 25 26  1  0
 25 27  1  0
 25 28  1  0
 28 29  1  0
 28 30  1  0
 28 31  1  0
 31 32  1  0
 31 33  1  0
 31 34  1  0
 34 35  1  0
 34 36  1  0
 34 37  1  0
 23 38  2  0
 38 39  1  0
 39 40  3  0
 38 41  1  0
 41 42  1  0
 42 43  1  0
 42 44  1  0
 41 45  2  0
 45 46  1  0
 13 47  2  0
 47 48  1  0
 48 49  1  0
 49 50  1  0
 49 51  1  0
 49 52  1  0
 47  2  1  0
 45 21  1  0
M  END
>  <score>  (85) 
6.9159

$$$$

     RDKit          3D

 50 51  0  0  0  0  0  0  0  0999 V2000
    0.3078  149.2033   51.2550 H   0  0  0  0  0  0  0  0  0  0  0  0
    0.6602  149.6084   52.1963 C   0  0  0  0  0  0  0  0  0  0  0  0
   -0.1429  150.5015   52.9352 C   0  0  0  0  0  0  0  0  0  0  0  0
   -1.8681  150.9833   52.2753 Br  0  0  0  0  0  0  0  0  0  0  0  0
    0.3347  151.0598   54.1327 C   0  0  0  0  0  0  0  0  0  0  0  0
   -0.3795  151.9766   54.8619 O   0  0  0  0  0  0  0  0  0  0  0  0
   -1.4275  151.4048   55.6500 C   0  0  0  0  0  0  0  0  0  0  0  0
   -1.0152  150.7040   56.3773 H   0  0  0  0  0  0  0  0  0  0  0  0
   -2.1539  150.8749   55.0253 H   0  0  0  0  0  0  0  0  0  0  0  0
   -1.9448  152.2007   56.1947 H   0  0  0  0  0  0  0  0  0  0  0  0
    1.5991  150.6931   54.5726 C   0  0  0  0  0  0  0  0  0  0  0  0
    1.9913  151.1466   55.4740 H   0  0  0  0  0  0  0  0  0  0  0  0
    2.3829  149.7877   53.8562 C   0  0  0  0  0  0  0  0  0  0  0  0
    3.7294  149.4750   54.3968 C   0  0  0  0  0  0  0  0  0  0  0  0
    4.4191  149.3556   53.5582 H   0  0  0  0  0  0  0  0  0  0  0  0
    3.9989  150.3541   54.9694 H   0  0  0  0  0  0  0  0  0  0  0  0
    3.7518  148.2147   55.2703 C   0  0  0  0  0  0  0  0  0  0  0  0
    3.8528  148.2741   56.4853 O   0  0  0  0  0  0  0  0  0  0  0  0
    3.7127  147.0008   54.6528 N   0  0  0  0  0  0  0  0  0  0  0  0
    3.5263  146.9594   53.6654 H   0  0  0  0  0  0  0  0  0  0  0  0
    3.5437  145.8042   55.2403 C   0  0  0  0  0  0  0  0  0  0  0  0
    3.0600  144.9826   54.3349 N   0  0  0  0  0  0  0  0  0  0  0  0
    2.9252  143.6941   54.6466 C   0  0  0  0  0  0  0  0  0  0  0  0
    2.3873  142.7835   53.5719 C   0  0  0  0  0  0  0  0  0  0  0  0
    1.7579  143.3714   52.8950 H   0  0  0  0  0  0  0  0  0  0  0  0
    1.7600  142.0450   54.0677 H   0  0  0  0  0  0  0  0  0  0  0  0
    3.5044  142.0865   52.7588 C   0  0  0  0  0  0  0  0  0  0  0  0
    4.1687  141.5682   53.4584 H   0  0  0  0  0  0  0  0  0  0  0  0
    4.0859  142.8442   52.2190 H   0  0  0  0  0  0  0  0  0  0  0  0
    3.0068  141.0500   51.7472 C   0  0  0  0  0  0  0  0  0  0  0  0
    2.3744  140.3119   52.2503 H   0  0  0  0  0  0  0  0  0  0  0  0
    3.8734  140.5247   51.3298 H   0  0  0  0  0  0  0  0  0  0  0  0
    2.2671  141.6877   50.6550 N   0  0  0  0  0  0  0  0  0  0  0  0
    2.8181  142.4402   50.2392 H   0  0  0  0  0  0  0  0  0  0  0  0
    1.3712  142.0426   50.9840 H   0  0  0  0  0  0  0  0  0  0  0  0
    3.2643  143.2106   55.9046 C   0  0  0  0  0  0  0  0  0  0  0  0
    3.1390  141.8279   56.2264 C   0  0  0  0  0  0  0  0  0  0  0  0
    3.0373  140.6898   56.4488 N   0  0  0  0  0  0  0  0  0  0  0  0
    3.7482  144.1146   56.8154 C   0  0  0  0  0  0  0  0  0  0  0  0
    4.1512  143.7212   58.0350 N   0  0  0  0  0  0  0  0  0  0  0  0
    4.0633  142.7434   58.3031 H   0  0  0  0  0  0  0  0  0  0  0  0
    4.5028  144.4264   58.6769 H   0  0  0  0  0  0  0  0  0  0  0  0
    3.8942  145.4352   56.5110 C   0  0  0  0  0  0  0  0  0  0  0  0
    4.3164  146.1275   57.2237 H   0  0  0  0  0  0  0  0  0  0  0  0
    1.9359  149.2415   52.6480 C   0  0  0  0  0  0  0  0  0  0  0  0
    2.7763  148.4028   51.9503 O   0  0  0  0  0  0  0  0  0  0  0  0
    2.1662  147.2962   51.2817 C   0  0  0  0  0  0  0  0  0  0  0  0
    2.9503  146.5964   50.9728 H   0  0  0  0  0  0  0  0  0  0  0  0
    1.4754  146.7686   51.9488 H   0  0  0  0  0  0  0  0  0  0  0  0
    1.6242  147.6343   50.3937 H   0  0  0  0  0  0  0  0  0  0  0  0
  1  2  1  0
  2  3  2  0
  3  4  1  0
  3  5  1  0
  5  6  1  0
  6  7  1  0
  7  8  1  0
  7  9  1  0
  7 10  1  0
  5 11  2  0
 11 12  1  0
 11 13  1  0
 13 14  1  0
 14 15  1  0
 14 16  1  0
 14 17  1  0
 17 18  2  0
 17 19  1  0
 19 20  1  0
 19 21  1  0
 21 22  2  0
 22 23  1  0
 23 24  1  0
 24 25  1  0
 24 26  1  0
 24 27  1  0
 27 28  1  0
 27 29  1  0
 27 30  1  0
 30 31  1  0
 30 32  1  0
 30 33  1  0
 33 34  1  0
 33 35  1  0
 23 36  2  0
 36 37  1  0
 37 38  3  0
 36 39  1  0
 39 40  1  0
 40 41  1  0
 40 42  1  0
 39 43  2  0
 43 44  1  0
 13 45  2  0
 45 46  1  0
 46 47  1  0
 47 48  1  0
 47 49  1  0
 47 50  1  0
 45  2  1  0
 43 21  1  0
M  END
>  <score>  (86) 
6.91994

$$$$

     RDKit          3D

 60 62  0  0  0  0  0  0  0  0999 V2000
    0.2493  149.1435   51.2494 H   0  0  0  0  0  0  0  0  0  0  0  0
    0.6074  149.5595   52.1852 C   0  0  0  0  0  0  0  0  0  0  0  0
   -0.2009  150.4656   52.8932 C   0  0  0  0  0  0  0  0  0  0  0  0
   -1.9371  150.9390   52.2205 Br  0  0  0  0  0  0  0  0  0  0  0  0
    0.2837  151.0455   54.0757 C   0  0  0  0  0  0  0  0  0  0  0  0
   -0.4252  151.9902   54.7636 O   0  0  0  0  0  0  0  0  0  0  0  0
   -1.4430  151.4020   55.5663 C   0  0  0  0  0  0  0  0  0  0  0  0
   -1.9394  152.1822   56.1459 H   0  0  0  0  0  0  0  0  0  0  0  0
   -2.1812  150.8946   54.9373 H   0  0  0  0  0  0  0  0  0  0  0  0
   -1.0057  150.6794   56.2589 H   0  0  0  0  0  0  0  0  0  0  0  0
    1.5271  150.6555   54.5624 C   0  0  0  0  0  0  0  0  0  0  0  0
    1.8679  151.0917   55.4907 H   0  0  0  0  0  0  0  0  0  0  0  0
    2.3350  149.7552   53.8655 C   0  0  0  0  0  0  0  0  0  0  0  0
    3.6775  149.4136   54.4495 C   0  0  0  0  0  0  0  0  0  0  0  0
    4.4440  149.4286   53.6624 H   0  0  0  0  0  0  0  0  0  0  0  0
    3.9008  150.1695   55.1939 H   0  0  0  0  0  0  0  0  0  0  0  0
    3.6925  148.0945   55.1967 C   0  0  0  0  0  0  0  0  0  0  0  0
    3.7791  148.0787   56.4139 O   0  0  0  0  0  0  0  0  0  0  0  0
    3.6884  146.9316   54.4983 N   0  0  0  0  0  0  0  0  0  0  0  0
    3.3477  146.9401   53.5530 H   0  0  0  0  0  0  0  0  0  0  0  0
    3.5546  145.7528   55.1108 C   0  0  0  0  0  0  0  0  0  0  0  0
    3.0296  144.9162   54.2677 N   0  0  0  0  0  0  0  0  0  0  0  0
    2.8736  143.6892   54.7088 C   0  0  0  0  0  0  0  0  0  0  0  0
    2.2935  142.8137   53.8378 N   0  0  0  0  0  0  0  0  0  0  0  0
    2.3091  141.8441   54.1283 H   0  0  0  0  0  0  0  0  0  0  0  0
    1.9615  143.1795   52.4394 C   0  0  0  0  0  0  0  0  0  0  0  0
    1.4836  144.1703   52.4128 H   0  0  0  0  0  0  0  0  0  0  0  0
    1.2438  142.4658   52.0264 H   0  0  0  0  0  0  0  0  0  0  0  0
    3.2243  143.2097   51.5683 C   0  0  0  0  0  0  0  0  0  0  0  0
    3.6798  142.2122   51.5110 H   0  0  0  0  0  0  0  0  0  0  0  0
    3.9425  143.8652   52.0754 H   0  0  0  0  0  0  0  0  0  0  0  0
    2.9720  143.7461   50.2094 N   0  0  0  0  0  0  0  0  0  0  0  0
    2.2523  142.9079   49.2224 C   0  0  0  0  0  0  0  0  0  0  0  0
    1.2819  142.6009   49.6207 H   0  0  0  0  0  0  0  0  0  0  0  0
    2.8340  142.0066   49.0047 H   0  0  0  0  0  0  0  0  0  0  0  0
    2.0386  143.6869   47.9139 C   0  0  0  0  0  0  0  0  0  0  0  0
    1.6179  143.0183   47.1584 H   0  0  0  0  0  0  0  0  0  0  0  0
    1.3226  144.4953   48.0860 H   0  0  0  0  0  0  0  0  0  0  0  0
    3.2683  144.2390   47.4134 O   0  0  0  0  0  0  0  0  0  0  0  0
    3.9085  145.0967   48.3750 C   0  0  0  0  0  0  0  0  0  0  0  0
    4.8380  145.4946   47.9573 H   0  0  0  0  0  0  0  0  0  0  0  0
    3.2595  145.9400   48.6277 H   0  0  0  0  0  0  0  0  0  0  0  0
    4.2010  144.3192   49.6531 C   0  0  0  0  0  0  0  0  0  0  0  0
    4.8867  143.4940   49.4552 H   0  0  0  0  0  0  0  0  0  0  0  0
    4.6716  144.9845   50.3836 H   0  0  0  0  0  0  0  0  0  0  0  0
    3.2516  143.2429   55.9441 C   0  0  0  0  0  0  0  0  0  0  0  0
    3.1488  141.8632   56.2666 C   0  0  0  0  0  0  0  0  0  0  0  0
    3.0601  140.7100   56.3782 N   0  0  0  0  0  0  0  0  0  0  0  0
    3.7498  144.1674   56.8003 C   0  0  0  0  0  0  0  0  0  0  0  0
    4.1311  143.7963   58.0377 N   0  0  0  0  0  0  0  0  0  0  0  0
    4.0728  142.8153   58.3031 H   0  0  0  0  0  0  0  0  0  0  0  0
    4.4668  144.5005   58.6885 H   0  0  0  0  0  0  0  0  0  0  0  0
    3.8969  145.4575   56.4069 C   0  0  0  0  0  0  0  0  0  0  0  0
    4.2881  146.1887   57.0925 H   0  0  0  0  0  0  0  0  0  0  0  0
    1.8874  149.2112   52.6541 C   0  0  0  0  0  0  0  0  0  0  0  0
    2.7295  148.3709   51.9701 O   0  0  0  0  0  0  0  0  0  0  0  0
    2.1082  147.2979   51.2609 C   0  0  0  0  0  0  0  0  0  0  0  0
    1.4077  146.7651   51.9147 H   0  0  0  0  0  0  0  0  0  0  0  0
    2.8832  146.5970   50.9308 H   0  0  0  0  0  0  0  0  0  0  0  0
    1.5743  147.6768   50.3832 H   0  0  0  0  0  0  0  0  0  0  0  0
  1  2  1  0
  2  3  2  0
  3  4  1  0
  3  5  1  0
  5  6  1  0
  6  7  1  0
  7  8  1  0
  7  9  1  0
  7 10  1  0
  5 11  2  0
 11 12  1  0
 11 13  1  0
 13 14  1  0
 14 15  1  0
 14 16  1  0
 14 17  1  0
 17 18  2  0
 17 19  1  0
 19 20  1  0
 19 21  1  0
 21 22  2  0
 22 23  1  0
 23 24  1  0
 24 25  1  0
 24 26  1  0
 26 27  1  0
 26 28  1  0
 26 29  1  0
 29 30  1  0
 29 31  1  0
 29 32  1  0
 32 33  1  0
 33 34  1  0
 33 35  1  0
 33 36  1  0
 36 37  1  0
 36 38  1  0
 36 39  1  0
 39 40  1  0
 40 41  1  0
 40 42  1  0
 40 43  1  0
 43 44  1  0
 43 45  1  0
 23 46  2  0
 46 47  1  0
 47 48  3  0
 46 49  1  0
 49 50  1  0
 50 51  1  0
 50 52  1  0
 49 53  2  0
 53 54  1  0
 13 55  2  0
 55 56  1  0
 56 57  1  0
 57 58  1  0
 57 59  1  0
 57 60  1  0
 55  2  1  0
 53 21  1  0
 43 32  1  0
M  END
>  <score>  (87) 
6.92071

$$$$

     RDKit          3D

 44 45  0  0  0  0  0  0  0  0999 V2000
    0.3069  149.2026   51.2538 H   0  0  0  0  0  0  0  0  0  0  0  0
    0.6595  149.6076   52.1960 C   0  0  0  0  0  0  0  0  0  0  0  0
   -0.1436  150.5010   52.9351 C   0  0  0  0  0  0  0  0  0  0  0  0
   -1.8684  150.9833   52.2753 Br  0  0  0  0  0  0  0  0  0  0  0  0
    0.3334  151.0600   54.1322 C   0  0  0  0  0  0  0  0  0  0  0  0
   -0.3796  151.9769   54.8618 O   0  0  0  0  0  0  0  0  0  0  0  0
   -1.4276  151.4045   55.6499 C   0  0  0  0  0  0  0  0  0  0  0  0
   -2.1541  150.8749   55.0243 H   0  0  0  0  0  0  0  0  0  0  0  0
   -1.9445  152.2015   56.1943 H   0  0  0  0  0  0  0  0  0  0  0  0
   -1.0147  150.7035   56.3773 H   0  0  0  0  0  0  0  0  0  0  0  0
    1.5981  150.6936   54.5727 C   0  0  0  0  0  0  0  0  0  0  0  0
    1.9907  151.1472   55.4738 H   0  0  0  0  0  0  0  0  0  0  0  0
    2.3831  149.7887   53.8556 C   0  0  0  0  0  0  0  0  0  0  0  0
    3.7317  149.4837   54.3985 C   0  0  0  0  0  0  0  0  0  0  0  0
    4.0004  150.3644   54.9678 H   0  0  0  0  0  0  0  0  0  0  0  0
    4.4190  149.3600   53.5576 H   0  0  0  0  0  0  0  0  0  0  0  0
    3.7552  148.2293   55.2767 C   0  0  0  0  0  0  0  0  0  0  0  0
    3.8544  148.2905   56.4921 O   0  0  0  0  0  0  0  0  0  0  0  0
    3.7233  147.0119   54.6649 N   0  0  0  0  0  0  0  0  0  0  0  0
    3.5312  146.9699   53.6764 H   0  0  0  0  0  0  0  0  0  0  0  0
    3.5566  145.8188   55.2624 C   0  0  0  0  0  0  0  0  0  0  0  0
    3.0596  144.9946   54.3620 N   0  0  0  0  0  0  0  0  0  0  0  0
    2.9103  143.6843   54.6410 C   0  0  0  0  0  0  0  0  0  0  0  0
    2.3899  142.7950   53.5424 C   0  0  0  0  0  0  0  0  0  0  0  0
    2.5890  141.5781   53.5547 O   0  0  0  0  0  0  0  0  0  0  0  0
    1.7004  143.3788   52.3027 C   0  0  0  0  0  0  0  0  0  0  0  0
    1.2162  142.5885   51.7229 H   0  0  0  0  0  0  0  0  0  0  0  0
    2.4476  143.8689   51.6714 H   0  0  0  0  0  0  0  0  0  0  0  0
    0.9384  144.1134   52.5884 H   0  0  0  0  0  0  0  0  0  0  0  0
    3.2746  143.2112   55.9102 C   0  0  0  0  0  0  0  0  0  0  0  0
    3.1540  141.8268   56.2500 C   0  0  0  0  0  0  0  0  0  0  0  0
    3.0427  140.6920   56.4824 N   0  0  0  0  0  0  0  0  0  0  0  0
    3.7621  144.1202   56.8282 C   0  0  0  0  0  0  0  0  0  0  0  0
    4.1564  143.7245   58.0509 N   0  0  0  0  0  0  0  0  0  0  0  0
    4.5098  144.4277   58.6946 H   0  0  0  0  0  0  0  0  0  0  0  0
    4.0692  142.7445   58.3130 H   0  0  0  0  0  0  0  0  0  0  0  0
    3.9078  145.4456   56.5308 C   0  0  0  0  0  0  0  0  0  0  0  0
    4.3274  146.1369   57.2488 H   0  0  0  0  0  0  0  0  0  0  0  0
    1.9355  149.2413   52.6480 C   0  0  0  0  0  0  0  0  0  0  0  0
    2.7763  148.4011   51.9519 O   0  0  0  0  0  0  0  0  0  0  0  0
    2.1655  147.2957   51.2815 C   0  0  0  0  0  0  0  0  0  0  0  0
    2.9499  146.5953   50.9738 H   0  0  0  0  0  0  0  0  0  0  0  0
    1.6256  147.6357   50.3927 H   0  0  0  0  0  0  0  0  0  0  0  0
    1.4729  146.7694   51.9481 H   0  0  0  0  0  0  0  0  0  0  0  0
  1  2  1  0
  2  3  2  0
  3  4  1  0
  3  5  1  0
  5  6  1  0
  6  7  1  0
  7  8  1  0
  7  9  1  0
  7 10  1  0
  5 11  2  0
 11 12  1  0
 11 13  1  0
 13 14  1  0
 14 15  1  0
 14 16  1  0
 14 17  1  0
 17 18  2  0
 17 19  1  0
 19 20  1  0
 19 21  1  0
 21 22  2  0
 22 23  1  0
 23 24  1  0
 24 25  2  0
 24 26  1  0
 26 27  1  0
 26 28  1  0
 26 29  1  0
 23 30  2  0
 30 31  1  0
 31 32  3  0
 30 33  1  0
 33 34  1  0
 34 35  1  0
 34 36  1  0
 33 37  2  0
 37 38  1  0
 13 39  2  0
 39 40  1  0
 40 41  1  0
 41 42  1  0
 41 43  1  0
 41 44  1  0
 39  2  1  0
 37 21  1  0
M  END
>  <score>  (88) 
6.92261

$$$$

     RDKit          3D

 43 44  0  0  0  0  0  0  0  0999 V2000
    2.1023  141.2268   52.1248 H   0  0  0  0  0  0  0  0  0  0  0  0
    2.6544  141.7104   52.9233 C   0  0  0  0  0  0  0  0  0  0  0  0
    3.4933  141.1587   53.3284 H   0  0  0  0  0  0  0  0  0  0  0  0
    2.3422  142.9736   53.3877 C   0  0  0  0  0  0  0  0  0  0  0  0
    1.5530  143.5453   52.9123 H   0  0  0  0  0  0  0  0  0  0  0  0
    3.0230  143.6934   54.4669 C   0  0  0  0  0  0  0  0  0  0  0  0
    3.1752  144.9739   54.1675 N   0  0  0  0  0  0  0  0  0  0  0  0
    3.6178  145.7862   55.0876 C   0  0  0  0  0  0  0  0  0  0  0  0
    3.6246  147.0178   54.5641 N   0  0  0  0  0  0  0  0  0  0  0  0
    3.4107  147.0469   53.5791 H   0  0  0  0  0  0  0  0  0  0  0  0
    3.6607  148.1826   55.2687 C   0  0  0  0  0  0  0  0  0  0  0  0
    3.8056  148.1654   56.4792 O   0  0  0  0  0  0  0  0  0  0  0  0
    3.6551  149.4916   54.5006 C   0  0  0  0  0  0  0  0  0  0  0  0
    3.8987  150.3162   55.1639 H   0  0  0  0  0  0  0  0  0  0  0  0
    4.4277  149.4386   53.7392 H   0  0  0  0  0  0  0  0  0  0  0  0
    2.3301  149.7976   53.8705 C   0  0  0  0  0  0  0  0  0  0  0  0
    1.5214  150.7010   54.5585 C   0  0  0  0  0  0  0  0  0  0  0  0
    1.8650  151.1176   55.5019 H   0  0  0  0  0  0  0  0  0  0  0  0
    0.2770  151.0651   54.0586 C   0  0  0  0  0  0  0  0  0  0  0  0
   -0.4595  151.9843   54.7534 O   0  0  0  0  0  0  0  0  0  0  0  0
   -1.4784  151.4005   55.5712 C   0  0  0  0  0  0  0  0  0  0  0  0
   -1.0380  150.6679   56.2502 H   0  0  0  0  0  0  0  0  0  0  0  0
   -1.9808  152.1735   56.1661 H   0  0  0  0  0  0  0  0  0  0  0  0
   -2.2291  150.8960   54.9572 H   0  0  0  0  0  0  0  0  0  0  0  0
   -0.1814  150.4827   52.8684 C   0  0  0  0  0  0  0  0  0  0  0  0
   -1.9165  150.9042   52.1904 Br  0  0  0  0  0  0  0  0  0  0  0  0
    0.6275  149.5682   52.1819 C   0  0  0  0  0  0  0  0  0  0  0  0
    0.2541  149.1220   51.2702 H   0  0  0  0  0  0  0  0  0  0  0  0
    1.9037  149.2230   52.6570 C   0  0  0  0  0  0  0  0  0  0  0  0
    2.7373  148.3540   51.9869 O   0  0  0  0  0  0  0  0  0  0  0  0
    2.0963  147.2992   51.2512 C   0  0  0  0  0  0  0  0  0  0  0  0
    1.5504  147.6861   50.3862 H   0  0  0  0  0  0  0  0  0  0  0  0
    1.3942  146.7476   51.8833 H   0  0  0  0  0  0  0  0  0  0  0  0
    2.8516  146.5936   50.8959 H   0  0  0  0  0  0  0  0  0  0  0  0
    3.9200  145.4151   56.3678 C   0  0  0  0  0  0  0  0  0  0  0  0
    4.1954  146.1446   57.1130 H   0  0  0  0  0  0  0  0  0  0  0  0
    3.8080  144.0921   56.6732 C   0  0  0  0  0  0  0  0  0  0  0  0
    4.0355  143.7609   57.9696 N   0  0  0  0  0  0  0  0  0  0  0  0
    4.4149  144.4797   58.5884 H   0  0  0  0  0  0  0  0  0  0  0  0
    4.1002  142.7833   58.2336 H   0  0  0  0  0  0  0  0  0  0  0  0
    3.3859  143.1803   55.7175 C   0  0  0  0  0  0  0  0  0  0  0  0
    3.2310  141.8020   56.0382 C   0  0  0  0  0  0  0  0  0  0  0  0
    3.0923  140.6836   56.3318 N   0  0  0  0  0  0  0  0  0  0  0  0
  1  2  1  0
  2  3  1  0
  2  4  2  0
  4  5  1  0
  4  6  1  0
  6  7  2  0
  7  8  1  0
  8  9  1  0
  9 10  1  0
  9 11  1  0
 11 12  2  0
 11 13  1  0
 13 14  1  0
 13 15  1  0
 13 16  1  0
 16 17  2  0
 17 18  1  0
 17 19  1  0
 19 20  1  0
 20 21  1  0
 21 22  1  0
 21 23  1  0
 21 24  1  0
 19 25  2  0
 25 26  1  0
 25 27  1  0
 27 28  1  0
 27 29  2  0
 29 30  1  0
 30 31  1  0
 31 32  1  0
 31 33  1  0
 31 34  1  0
  8 35  2  0
 35 36  1  0
 35 37  1  0
 37 38  1  0
 38 39  1  0
 38 40  1  0
 37 41  2  0
 41 42  1  0
 42 43  3  0
 41  6  1  0
 29 16  1  0
M  END
>  <score>  (89) 
6.92555

$$$$

     RDKit          3D

 52 54  0  0  0  0  0  0  0  0999 V2000
    1.4483  140.8049   48.5688 H   0  0  0  0  0  0  0  0  0  0  0  0
    2.0637  141.4120   49.0137 O   0  0  0  0  0  0  0  0  0  0  0  0
    1.5616  141.4858   50.2618 C   0  0  0  0  0  0  0  0  0  0  0  0
    0.5477  140.9203   50.5813 O   0  0  0  0  0  0  0  0  0  0  0  0
    2.2342  142.1955   51.3381 C   0  0  0  0  0  0  0  0  0  0  0  0
    3.3955  142.9307   51.1055 C   0  0  0  0  0  0  0  0  0  0  0  0
    3.8285  143.0205   50.1143 H   0  0  0  0  0  0  0  0  0  0  0  0
    3.9922  143.5990   52.1560 C   0  0  0  0  0  0  0  0  0  0  0  0
    4.8136  144.2516   51.8759 H   0  0  0  0  0  0  0  0  0  0  0  0
    3.5052  143.4480   53.4784 C   0  0  0  0  0  0  0  0  0  0  0  0
    4.0002  144.1985   54.6216 C   0  0  0  0  0  0  0  0  0  0  0  0
    4.1842  145.4786   54.3583 N   0  0  0  0  0  0  0  0  0  0  0  0
    4.3152  146.2794   55.3621 C   0  0  0  0  0  0  0  0  0  0  0  0
    4.3467  147.4801   54.8187 N   0  0  0  0  0  0  0  0  0  0  0  0
    4.3347  147.4240   53.8103 H   0  0  0  0  0  0  0  0  0  0  0  0
    3.7894  148.5506   55.4187 C   0  0  0  0  0  0  0  0  0  0  0  0
    3.5675  148.4619   56.6072 O   0  0  0  0  0  0  0  0  0  0  0  0
    3.5624  149.8396   54.6354 C   0  0  0  0  0  0  0  0  0  0  0  0
    4.3525  149.9352   53.8837 H   0  0  0  0  0  0  0  0  0  0  0  0
    3.6594  150.6639   55.3431 H   0  0  0  0  0  0  0  0  0  0  0  0
    2.2034  149.9583   53.9718 C   0  0  0  0  0  0  0  0  0  0  0  0
    1.3046  150.8884   54.5186 C   0  0  0  0  0  0  0  0  0  0  0  0
    1.5922  151.4764   55.3864 H   0  0  0  0  0  0  0  0  0  0  0  0
    0.0442  151.1012   53.9527 C   0  0  0  0  0  0  0  0  0  0  0  0
   -0.8157  151.9923   54.5330 O   0  0  0  0  0  0  0  0  0  0  0  0
   -1.6751  151.3696   55.4929 C   0  0  0  0  0  0  0  0  0  0  0  0
   -1.1259  150.6521   56.1103 H   0  0  0  0  0  0  0  0  0  0  0  0
   -2.0977  152.1312   56.1518 H   0  0  0  0  0  0  0  0  0  0  0  0
   -2.4960  150.8486   54.9902 H   0  0  0  0  0  0  0  0  0  0  0  0
   -0.3140  150.4080   52.7900 C   0  0  0  0  0  0  0  0  0  0  0  0
   -2.0099  150.6982   51.9489 Br  0  0  0  0  0  0  0  0  0  0  0  0
    0.5743  149.4870   52.2343 C   0  0  0  0  0  0  0  0  0  0  0  0
    0.2838  148.9670   51.3275 H   0  0  0  0  0  0  0  0  0  0  0  0
    1.8252  149.2222   52.8227 C   0  0  0  0  0  0  0  0  0  0  0  0
    2.6707  148.2762   52.2871 O   0  0  0  0  0  0  0  0  0  0  0  0
    2.0698  147.3914   51.3254 C   0  0  0  0  0  0  0  0  0  0  0  0
    2.8269  146.7294   50.8978 H   0  0  0  0  0  0  0  0  0  0  0  0
    1.2976  146.7793   51.8052 H   0  0  0  0  0  0  0  0  0  0  0  0
    1.6063  147.9575   50.5096 H   0  0  0  0  0  0  0  0  0  0  0  0
    4.2787  145.9251   56.6755 C   0  0  0  0  0  0  0  0  0  0  0  0
    4.3198  146.6411   57.4764 H   0  0  0  0  0  0  0  0  0  0  0  0
    4.1355  144.6003   56.9308 C   0  0  0  0  0  0  0  0  0  0  0  0
    4.0400  144.2439   58.2216 N   0  0  0  0  0  0  0  0  0  0  0  0
    4.2721  143.2795   58.4556 H   0  0  0  0  0  0  0  0  0  0  0  0
    4.1806  144.9798   58.9042 H   0  0  0  0  0  0  0  0  0  0  0  0
    4.0211  143.6844   55.9195 C   0  0  0  0  0  0  0  0  0  0  0  0
    3.8626  142.2897   56.1736 C   0  0  0  0  0  0  0  0  0  0  0  0
    3.7638  141.1384   56.3069 N   0  0  0  0  0  0  0  0  0  0  0  0
    2.3742  142.6753   53.7100 C   0  0  0  0  0  0  0  0  0  0  0  0
    1.9871  142.5531   54.7190 H   0  0  0  0  0  0  0  0  0  0  0  0
    1.7031  142.1318   52.6389 C   0  0  0  0  0  0  0  0  0  0  0  0
    0.7464  141.6534   52.8089 H   0  0  0  0  0  0  0  0  0  0  0  0
  1  2  1  0
  2  3  1  0
  3  4  2  0
  3  5  1  0
  5  6  2  0
  6  7  1  0
  6  8  1  0
  8  9  1  0
  8 10  2  0
 10 11  1  0
 11 12  2  0
 12 13  1  0
 13 14  1  0
 14 15  1  0
 14 16  1  0
 16 17  2  0
 16 18  1  0
 18 19  1  0
 18 20  1  0
 18 21  1  0
 21 22  2  0
 22 23  1  0
 22 24  1  0
 24 25  1  0
 25 26  1  0
 26 27  1  0
 26 28  1  0
 26 29  1  0
 24 30  2  0
 30 31  1  0
 30 32  1  0
 32 33  1  0
 32 34  2  0
 34 35  1  0
 35 36  1  0
 36 37  1  0
 36 38  1  0
 36 39  1  0
 13 40  2  0
 40 41  1  0
 40 42  1  0
 42 43  1  0
 43 44  1  0
 43 45  1  0
 42 46  2  0
 46 47  1  0
 47 48  3  0
 10 49  1  0
 49 50  1  0
 49 51  2  0
 51 52  1  0
 51  5  1  0
 46 11  1  0
 34 21  1  0
M  END
>  <score>  (90) 
6.92765

$$$$

     RDKit          3D

 47 49  0  0  0  0  0  0  0  0999 V2000
    0.2327  149.0843   51.2731 H   0  0  0  0  0  0  0  0  0  0  0  0
    0.5972  149.5469   52.1832 C   0  0  0  0  0  0  0  0  0  0  0  0
   -0.2256  150.4647   52.8518 C   0  0  0  0  0  0  0  0  0  0  0  0
   -1.9648  150.8818   52.1626 Br  0  0  0  0  0  0  0  0  0  0  0  0
    0.2271  151.0702   54.0313 C   0  0  0  0  0  0  0  0  0  0  0  0
   -0.5103  152.0006   54.7029 O   0  0  0  0  0  0  0  0  0  0  0  0
   -1.4954  151.3997   55.5388 C   0  0  0  0  0  0  0  0  0  0  0  0
   -1.9833  152.1655   56.1489 H   0  0  0  0  0  0  0  0  0  0  0  0
   -2.2506  150.8986   54.9285 H   0  0  0  0  0  0  0  0  0  0  0  0
   -1.0322  150.6631   56.1993 H   0  0  0  0  0  0  0  0  0  0  0  0
    1.4589  150.7174   54.5516 C   0  0  0  0  0  0  0  0  0  0  0  0
    1.7818  151.1502   55.4919 H   0  0  0  0  0  0  0  0  0  0  0  0
    2.2972  149.8391   53.8787 C   0  0  0  0  0  0  0  0  0  0  0  0
    3.6412  149.6508   54.5204 C   0  0  0  0  0  0  0  0  0  0  0  0
    4.4203  149.6350   53.7612 H   0  0  0  0  0  0  0  0  0  0  0  0
    3.8165  150.5125   55.1613 H   0  0  0  0  0  0  0  0  0  0  0  0
    3.7528  148.3697   55.3251 C   0  0  0  0  0  0  0  0  0  0  0  0
    3.7906  148.3561   56.5426 O   0  0  0  0  0  0  0  0  0  0  0  0
    3.9487  147.2392   54.6133 N   0  0  0  0  0  0  0  0  0  0  0  0
    3.6812  147.2556   53.6404 H   0  0  0  0  0  0  0  0  0  0  0  0
    3.9573  146.0120   55.1314 C   0  0  0  0  0  0  0  0  0  0  0  0
    3.6919  145.2118   54.1404 N   0  0  0  0  0  0  0  0  0  0  0  0
    3.4409  143.9386   54.4043 C   0  0  0  0  0  0  0  0  0  0  0  0
    2.8526  143.1722   53.2974 C   0  0  0  0  0  0  0  0  0  0  0  0
    1.8330  142.2928   53.5033 C   0  0  0  0  0  0  0  0  0  0  0  0
    1.4340  142.0594   54.4808 H   0  0  0  0  0  0  0  0  0  0  0  0
    1.3298  141.8568   52.2189 C   0  0  0  0  0  0  0  0  0  0  0  0
    0.4976  141.1866   52.0439 H   0  0  0  0  0  0  0  0  0  0  0  0
    2.0638  142.4935   51.2566 C   0  0  0  0  0  0  0  0  0  0  0  0
    1.9260  142.3917   50.1821 H   0  0  0  0  0  0  0  0  0  0  0  0
    2.9973  143.2976   51.9103 N   0  0  0  0  0  0  0  0  0  0  0  0
    3.6677  143.9126   51.4419 H   0  0  0  0  0  0  0  0  0  0  0  0
    3.5190  143.4343   55.6952 C   0  0  0  0  0  0  0  0  0  0  0  0
    3.2473  142.0591   55.9446 C   0  0  0  0  0  0  0  0  0  0  0  0
    3.0116  140.9281   56.0923 N   0  0  0  0  0  0  0  0  0  0  0  0
    3.8282  144.3197   56.7022 C   0  0  0  0  0  0  0  0  0  0  0  0
    3.9078  143.8978   57.9757 N   0  0  0  0  0  0  0  0  0  0  0  0
    4.0631  142.8995   58.0668 H   0  0  0  0  0  0  0  0  0  0  0  0
    4.3914  144.5252   58.6146 H   0  0  0  0  0  0  0  0  0  0  0  0
    4.0420  145.6416   56.4446 C   0  0  0  0  0  0  0  0  0  0  0  0
    4.2404  146.3528   57.2305 H   0  0  0  0  0  0  0  0  0  0  0  0
    1.8795  149.2312   52.6724 C   0  0  0  0  0  0  0  0  0  0  0  0
    2.7202  148.3646   52.0093 O   0  0  0  0  0  0  0  0  0  0  0  0
    2.0797  147.3197   51.2581 C   0  0  0  0  0  0  0  0  0  0  0  0
    1.3751  146.7665   51.8870 H   0  0  0  0  0  0  0  0  0  0  0  0
    1.5345  147.7224   50.3990 H   0  0  0  0  0  0  0  0  0  0  0  0
    2.8328  146.6158   50.8920 H   0  0  0  0  0  0  0  0  0  0  0  0
  1  2  1  0
  2  3  2  0
  3  4  1  0
  3  5  1  0
  5  6  1  0
  6  7  1  0
  7  8  1  0
  7  9  1  0
  7 10  1  0
  5 11  2  0
 11 12  1  0
 11 13  1  0
 13 14  1  0
 14 15  1  0
 14 16  1  0
 14 17  1  0
 17 18  2  0
 17 19  1  0
 19 20  1  0
 19 21  1  0
 21 22  2  0
 22 23  1  0
 23 24  1  0
 24 25  2  0
 25 26  1  0
 25 27  1  0
 27 28  1  0
 27 29  2  0
 29 30  1  0
 29 31  1  0
 31 32  1  0
 23 33  2  0
 33 34  1  0
 34 35  3  0
 33 36  1  0
 36 37  1  0
 37 38  1  0
 37 39  1  0
 36 40  2  0
 40 41  1  0
 13 42  2  0
 42 43  1  0
 43 44  1  0
 44 45  1  0
 44 46  1  0
 44 47  1  0
 42  2  1  0
 40 21  1  0
 31 24  1  0
M  END
>  <score>  (91) 
6.93032

$$$$

     RDKit          3D

 47 49  0  0  0  0  0  0  0  0999 V2000
    0.9875  140.6905   50.8279 H   0  0  0  0  0  0  0  0  0  0  0  0
    1.3801  141.2882   51.6432 C   0  0  0  0  0  0  0  0  0  0  0  0
    2.4964  140.8812   52.2548 N   0  0  0  0  0  0  0  0  0  0  0  0
    2.9979  141.6381   53.2289 C   0  0  0  0  0  0  0  0  0  0  0  0
    3.9256  141.3150   53.6953 H   0  0  0  0  0  0  0  0  0  0  0  0
    2.3632  142.8044   53.6018 C   0  0  0  0  0  0  0  0  0  0  0  0
    2.8894  143.6520   54.6240 C   0  0  0  0  0  0  0  0  0  0  0  0
    2.9972  144.9346   54.3010 N   0  0  0  0  0  0  0  0  0  0  0  0
    3.5051  145.7652   55.1955 C   0  0  0  0  0  0  0  0  0  0  0  0
    3.6937  146.9705   54.6229 N   0  0  0  0  0  0  0  0  0  0  0  0
    3.5033  146.9346   53.6361 H   0  0  0  0  0  0  0  0  0  0  0  0
    3.7435  148.1846   55.2556 C   0  0  0  0  0  0  0  0  0  0  0  0
    3.8452  148.2336   56.4723 O   0  0  0  0  0  0  0  0  0  0  0  0
    3.7210  149.4645   54.4034 C   0  0  0  0  0  0  0  0  0  0  0  0
    3.9882  150.3426   54.9873 H   0  0  0  0  0  0  0  0  0  0  0  0
    4.4041  149.3611   53.5582 H   0  0  0  0  0  0  0  0  0  0  0  0
    2.3757  149.7760   53.8610 C   0  0  0  0  0  0  0  0  0  0  0  0
    1.5933  150.6855   54.5717 C   0  0  0  0  0  0  0  0  0  0  0  0
    1.9870  151.1447   55.4685 H   0  0  0  0  0  0  0  0  0  0  0  0
    0.3322  151.0567   54.1297 C   0  0  0  0  0  0  0  0  0  0  0  0
   -0.3781  151.9761   54.8577 O   0  0  0  0  0  0  0  0  0  0  0  0
   -1.4251  151.4031   55.6444 C   0  0  0  0  0  0  0  0  0  0  0  0
   -1.9381  152.2029   56.1874 H   0  0  0  0  0  0  0  0  0  0  0  0
   -2.1524  150.8747   55.0175 H   0  0  0  0  0  0  0  0  0  0  0  0
   -1.0122  150.7006   56.3716 H   0  0  0  0  0  0  0  0  0  0  0  0
   -0.1472  150.4965   52.9347 C   0  0  0  0  0  0  0  0  0  0  0  0
   -1.8709  150.9859   52.2798 Br  0  0  0  0  0  0  0  0  0  0  0  0
    0.6562  149.6039   52.1939 C   0  0  0  0  0  0  0  0  0  0  0  0
    0.3087  149.1984   51.2502 H   0  0  0  0  0  0  0  0  0  0  0  0
    1.9317  149.2364   52.6486 C   0  0  0  0  0  0  0  0  0  0  0  0
    2.7745  148.4019   51.9501 O   0  0  0  0  0  0  0  0  0  0  0  0
    2.1630  147.2982   51.2818 C   0  0  0  0  0  0  0  0  0  0  0  0
    1.4721  146.7714   51.9507 H   0  0  0  0  0  0  0  0  0  0  0  0
    2.9491  146.6006   50.9723 H   0  0  0  0  0  0  0  0  0  0  0  0
    1.6200  147.6415   50.3957 H   0  0  0  0  0  0  0  0  0  0  0  0
    3.8730  145.4050   56.4641 C   0  0  0  0  0  0  0  0  0  0  0  0
    4.2912  146.0985   57.1796 H   0  0  0  0  0  0  0  0  0  0  0  0
    3.7474  144.0865   56.7705 C   0  0  0  0  0  0  0  0  0  0  0  0
    4.1415  143.7177   57.9992 N   0  0  0  0  0  0  0  0  0  0  0  0
    4.0576  142.7429   58.2792 H   0  0  0  0  0  0  0  0  0  0  0  0
    4.4849  144.4373   58.6315 H   0  0  0  0  0  0  0  0  0  0  0  0
    3.2739  143.1711   55.8644 C   0  0  0  0  0  0  0  0  0  0  0  0
    3.1505  141.7942   56.2044 C   0  0  0  0  0  0  0  0  0  0  0  0
    3.0363  140.6633   56.4535 N   0  0  0  0  0  0  0  0  0  0  0  0
    1.2159  143.1693   52.9294 C   0  0  0  0  0  0  0  0  0  0  0  0
    0.6616  144.0702   53.1741 H   0  0  0  0  0  0  0  0  0  0  0  0
    0.7217  142.4038   51.9630 N   0  0  0  0  0  0  0  0  0  0  0  0
  1  2  1  0
  2  3  2  0
  3  4  1  0
  4  5  1  0
  4  6  2  0
  6  7  1  0
  7  8  2  0
  8  9  1  0
  9 10  1  0
 10 11  1  0
 10 12  1  0
 12 13  2  0
 12 14  1  0
 14 15  1  0
 14 16  1  0
 14 17  1  0
 17 18  2  0
 18 19  1  0
 18 20  1  0
 20 21  1  0
 21 22  1  0
 22 23  1  0
 22 24  1  0
 22 25  1  0
 20 26  2  0
 26 27  1  0
 26 28  1  0
 28 29  1  0
 28 30  2  0
 30 31  1  0
 31 32  1  0
 32 33  1  0
 32 34  1  0
 32 35  1  0
  9 36  2  0
 36 37  1  0
 36 38  1  0
 38 39  1  0
 39 40  1  0
 39 41  1  0
 38 42  2  0
 42 43  1  0
 43 44  3  0
  6 45  1  0
 45 46  1  0
 45 47  2  0
 47  2  1  0
 42  7  1  0
 30 17  1  0
M  END
>  <score>  (92) 
6.93287

$$$$

     RDKit          3D

 46 47  0  0  0  0  0  0  0  0999 V2000
    0.2547  149.1619   51.2453 H   0  0  0  0  0  0  0  0  0  0  0  0
    0.6111  149.5693   52.1815 C   0  0  0  0  0  0  0  0  0  0  0  0
   -0.1892  150.4747   52.8973 C   0  0  0  0  0  0  0  0  0  0  0  0
   -1.9243  150.9497   52.2304 Br  0  0  0  0  0  0  0  0  0  0  0  0
    0.2974  151.0430   54.0846 C   0  0  0  0  0  0  0  0  0  0  0  0
   -0.4099  151.9853   54.7775 O   0  0  0  0  0  0  0  0  0  0  0  0
   -1.4372  151.4047   55.5750 C   0  0  0  0  0  0  0  0  0  0  0  0
   -1.9353  152.1893   56.1485 H   0  0  0  0  0  0  0  0  0  0  0  0
   -2.1752  150.8966   54.9469 H   0  0  0  0  0  0  0  0  0  0  0  0
   -1.0072  150.6832   56.2721 H   0  0  0  0  0  0  0  0  0  0  0  0
    1.5385  150.6397   54.5694 C   0  0  0  0  0  0  0  0  0  0  0  0
    1.8922  151.0676   55.5008 H   0  0  0  0  0  0  0  0  0  0  0  0
    2.3225  149.7170   53.8658 C   0  0  0  0  0  0  0  0  0  0  0  0
    3.6452  149.3005   54.4376 C   0  0  0  0  0  0  0  0  0  0  0  0
    3.8956  150.0246   55.2091 H   0  0  0  0  0  0  0  0  0  0  0  0
    4.4089  149.3402   53.6542 H   0  0  0  0  0  0  0  0  0  0  0  0
    3.6270  147.9158   55.0917 C   0  0  0  0  0  0  0  0  0  0  0  0
    3.7698  147.8472   56.3006 O   0  0  0  0  0  0  0  0  0  0  0  0
    3.5690  146.7653   54.3396 N   0  0  0  0  0  0  0  0  0  0  0  0
    3.3142  146.8185   53.3673 H   0  0  0  0  0  0  0  0  0  0  0  0
    3.5682  145.5192   54.8668 C   0  0  0  0  0  0  0  0  0  0  0  0
    3.2061  144.5969   54.0007 N   0  0  0  0  0  0  0  0  0  0  0  0
    3.0833  143.4082   54.4982 C   0  0  0  0  0  0  0  0  0  0  0  0
    2.4736  142.7490   53.5685 N   0  0  0  0  0  0  0  0  0  0  0  0
    2.6736  143.3040   52.7536 H   0  0  0  0  0  0  0  0  0  0  0  0
    3.1318  141.2879   53.5483 S   0  0  0  0  0  0  0  0  0  0  0  0
    4.5417  141.2679   53.2379 O   0  0  0  0  0  0  0  0  0  0  0  0
    2.3972  140.3529   52.7213 O   0  0  0  0  0  0  0  0  0  0  0  0
    3.0649  141.9964   52.1433 N   0  0  0  0  0  0  0  0  0  0  0  0
    3.7584  141.4916   51.6294 H   0  0  0  0  0  0  0  0  0  0  0  0
    2.1362  141.7836   51.8340 H   0  0  0  0  0  0  0  0  0  0  0  0
    3.3649  142.9994   55.7688 C   0  0  0  0  0  0  0  0  0  0  0  0
    3.2011  141.6493   56.1793 C   0  0  0  0  0  0  0  0  0  0  0  0
    3.1003  140.5210   56.4333 N   0  0  0  0  0  0  0  0  0  0  0  0
    3.7452  143.9785   56.6188 C   0  0  0  0  0  0  0  0  0  0  0  0
    3.9715  143.7352   57.9274 N   0  0  0  0  0  0  0  0  0  0  0  0
    4.4171  144.4790   58.4534 H   0  0  0  0  0  0  0  0  0  0  0  0
    4.1442  142.7775   58.2199 H   0  0  0  0  0  0  0  0  0  0  0  0
    3.8469  145.2574   56.1864 C   0  0  0  0  0  0  0  0  0  0  0  0
    4.1024  146.0171   56.9006 H   0  0  0  0  0  0  0  0  0  0  0  0
    1.8822  149.2010   52.6441 C   0  0  0  0  0  0  0  0  0  0  0  0
    2.7306  148.3703   51.9550 O   0  0  0  0  0  0  0  0  0  0  0  0
    2.1087  147.2970   51.2549 C   0  0  0  0  0  0  0  0  0  0  0  0
    1.5682  147.6736   50.3817 H   0  0  0  0  0  0  0  0  0  0  0  0
    2.8863  146.6035   50.9226 H   0  0  0  0  0  0  0  0  0  0  0  0
    1.4149  146.7601   51.9121 H   0  0  0  0  0  0  0  0  0  0  0  0
  1  2  1  0
  2  3  2  0
  3  4  1  0
  3  5  1  0
  5  6  1  0
  6  7  1  0
  7  8  1  0
  7  9  1  0
  7 10  1  0
  5 11  2  0
 11 12  1  0
 11 13  1  0
 13 14  1  0
 14 15  1  0
 14 16  1  0
 14 17  1  0
 17 18  2  0
 17 19  1  0
 19 20  1  0
 19 21  1  0
 21 22  2  0
 22 23  1  0
 23 24  1  0
 24 25  1  0
 24 26  1  0
 26 27  2  0
 26 28  2  0
 26 29  1  0
 29 30  1  0
 29 31  1  0
 23 32  2  0
 32 33  1  0
 33 34  3  0
 32 35  1  0
 35 36  1  0
 36 37  1  0
 36 38  1  0
 35 39  2  0
 39 40  1  0
 13 41  2  0
 41 42  1  0
 42 43  1  0
 43 44  1  0
 43 45  1  0
 43 46  1  0
 41  2  1  0
 39 21  1  0
M  END
>  <score>  (93) 
6.93321

$$$$

     RDKit          3D

 48 50  0  0  0  0  0  0  0  0999 V2000
    0.3029  149.2209   51.2431 H   0  0  0  0  0  0  0  0  0  0  0  0
    0.6532  149.7098   52.1492 C   0  0  0  0  0  0  0  0  0  0  0  0
   -0.1610  150.6075   52.8588 C   0  0  0  0  0  0  0  0  0  0  0  0
   -1.9573  150.9194   52.2766 Br  0  0  0  0  0  0  0  0  0  0  0  0
    0.3270  151.2289   54.0243 C   0  0  0  0  0  0  0  0  0  0  0  0
   -0.4442  152.0881   54.7616 O   0  0  0  0  0  0  0  0  0  0  0  0
   -1.4238  151.4206   55.5730 C   0  0  0  0  0  0  0  0  0  0  0  0
   -0.9572  150.7006   56.2536 H   0  0  0  0  0  0  0  0  0  0  0  0
   -1.9656  152.1602   56.1737 H   0  0  0  0  0  0  0  0  0  0  0  0
   -2.1427  150.8812   54.9483 H   0  0  0  0  0  0  0  0  0  0  0  0
    1.5908  150.8925   54.5071 C   0  0  0  0  0  0  0  0  0  0  0  0
    1.9396  151.3657   55.4147 H   0  0  0  0  0  0  0  0  0  0  0  0
    2.3379  149.8941   53.8852 C   0  0  0  0  0  0  0  0  0  0  0  0
    3.4939  149.2525   54.6000 C   0  0  0  0  0  0  0  0  0  0  0  0
    2.6118  148.6129   54.7650 H   0  0  0  0  0  0  0  0  0  0  0  0
    4.2012  149.1860   53.7733 H   0  0  0  0  0  0  0  0  0  0  0  0
    3.9792  148.0209   55.3312 C   0  0  0  0  0  0  0  0  0  0  0  0
    4.2678  148.0271   56.5116 O   0  0  0  0  0  0  0  0  0  0  0  0
    3.9541  146.8608   54.6107 N   0  0  0  0  0  0  0  0  0  0  0  0
    3.5639  146.8967   53.6834 H   0  0  0  0  0  0  0  0  0  0  0  0
    3.7531  145.6705   55.1643 C   0  0  0  0  0  0  0  0  0  0  0  0
    3.2654  144.8641   54.2491 N   0  0  0  0  0  0  0  0  0  0  0  0
    3.0226  143.5982   54.5832 C   0  0  0  0  0  0  0  0  0  0  0  0
    2.2875  142.7485   53.5757 C   0  0  1  0  0  0  0  0  0  0  0  0
    1.2862  142.4774   53.8934 H   0  0  0  0  0  0  0  0  0  0  0  0
    2.4996  143.0075   52.0823 C   0  0  0  0  0  0  0  0  0  0  0  0
    3.3008  143.6984   51.7835 H   0  0  0  0  0  0  0  0  0  0  0  0
    1.6454  142.9377   51.3997 H   0  0  0  0  0  0  0  0  0  0  0  0
    2.9651  141.7189   52.7119 C   0  0  1  0  0  0  0  0  0  0  0  0
    2.4356  140.8016   52.4552 H   0  0  0  0  0  0  0  0  0  0  0  0
    4.3900  141.6348   52.8523 N   0  0  0  0  0  0  0  0  0  0  0  0
    4.6607  141.0125   53.6069 H   0  0  0  0  0  0  0  0  0  0  0  0
    4.8370  141.3616   51.9813 H   0  0  0  0  0  0  0  0  0  0  0  0
    3.2943  143.1445   55.8640 C   0  0  0  0  0  0  0  0  0  0  0  0
    3.1413  141.7745   56.1986 C   0  0  0  0  0  0  0  0  0  0  0  0
    3.0596  140.6445   56.4589 N   0  0  0  0  0  0  0  0  0  0  0  0
    3.7612  144.0476   56.7885 C   0  0  0  0  0  0  0  0  0  0  0  0
    4.0570  143.7250   58.0596 N   0  0  0  0  0  0  0  0  0  0  0  0
    4.4768  144.4495   58.6445 H   0  0  0  0  0  0  0  0  0  0  0  0
    4.0877  142.7420   58.3187 H   0  0  0  0  0  0  0  0  0  0  0  0
    3.9709  145.3395   56.4633 C   0  0  0  0  0  0  0  0  0  0  0  0
    4.3219  146.0461   57.1983 H   0  0  0  0  0  0  0  0  0  0  0  0
    1.9175  149.3709   52.6438 C   0  0  0  0  0  0  0  0  0  0  0  0
    2.7578  148.4942   51.9970 O   0  0  0  0  0  0  0  0  0  0  0  0
    2.1448  147.3940   51.3144 C   0  0  0  0  0  0  0  0  0  0  0  0
    1.5935  147.7363   50.4311 H   0  0  0  0  0  0  0  0  0  0  0  0
    1.4563  146.8800   51.9931 H   0  0  0  0  0  0  0  0  0  0  0  0
    2.9140  146.6775   50.9929 H   0  0  0  0  0  0  0  0  0  0  0  0
  1  2  1  0
  2  3  2  0
  3  4  1  0
  3  5  1  0
  5  6  1  0
  6  7  1  0
  7  8  1  0
  7  9  1  0
  7 10  1  0
  5 11  2  0
 11 12  1  0
 11 13  1  0
 13 14  1  0
 14 15  1  0
 14 16  1  0
 14 17  1  0
 17 18  2  0
 17 19  1  0
 19 20  1  0
 19 21  1  0
 21 22  2  0
 22 23  1  0
 23 24  1  0
 24 25  1  1
 24 26  1  0
 26 27  1  0
 26 28  1  0
 26 29  1  0
 29 30  1  6
 29 31  1  0
 31 32  1  0
 31 33  1  0
 23 34  2  0
 34 35  1  0
 35 36  3  0
 34 37  1  0
 37 38  1  0
 38 39  1  0
 38 40  1  0
 37 41  2  0
 41 42  1  0
 13 43  2  0
 43 44  1  0
 44 45  1  0
 45 46  1  0
 45 47  1  0
 45 48  1  0
 43  2  1  0
 41 21  1  0
 29 24  1  0
M  END
>  <score>  (94) 
6.93609

$$$$

     RDKit          3D

 43 44  0  0  0  0  0  0  0  0999 V2000
    0.3091  149.2050   51.2573 H   0  0  0  0  0  0  0  0  0  0  0  0
    0.6615  149.6114   52.1977 C   0  0  0  0  0  0  0  0  0  0  0  0
   -0.1419  150.5030   52.9374 C   0  0  0  0  0  0  0  0  0  0  0  0
   -1.8646  150.9828   52.2756 Br  0  0  0  0  0  0  0  0  0  0  0  0
    0.3356  151.0611   54.1331 C   0  0  0  0  0  0  0  0  0  0  0  0
   -0.3785  151.9770   54.8632 O   0  0  0  0  0  0  0  0  0  0  0  0
   -1.4278  151.4049   55.6516 C   0  0  0  0  0  0  0  0  0  0  0  0
   -1.0156  150.7044   56.3805 H   0  0  0  0  0  0  0  0  0  0  0  0
   -1.9460  152.2013   56.1969 H   0  0  0  0  0  0  0  0  0  0  0  0
   -2.1554  150.8741   55.0271 H   0  0  0  0  0  0  0  0  0  0  0  0
    1.6008  150.6935   54.5712 C   0  0  0  0  0  0  0  0  0  0  0  0
    1.9928  151.1473   55.4736 H   0  0  0  0  0  0  0  0  0  0  0  0
    2.3849  149.7857   53.8547 C   0  0  0  0  0  0  0  0  0  0  0  0
    3.7322  149.4746   54.3960 C   0  0  0  0  0  0  0  0  0  0  0  0
    4.4200  149.3524   53.5556 H   0  0  0  0  0  0  0  0  0  0  0  0
    3.9992  150.3570   54.9657 H   0  0  0  0  0  0  0  0  0  0  0  0
    3.7505  148.2133   55.2704 C   0  0  0  0  0  0  0  0  0  0  0  0
    3.8537  148.2701   56.4856 O   0  0  0  0  0  0  0  0  0  0  0  0
    3.7053  146.9981   54.6519 N   0  0  0  0  0  0  0  0  0  0  0  0
    3.5360  146.9662   53.6599 H   0  0  0  0  0  0  0  0  0  0  0  0
    3.5476  145.7912   55.2286 C   0  0  0  0  0  0  0  0  0  0  0  0
    3.0737  144.9612   54.3222 N   0  0  0  0  0  0  0  0  0  0  0  0
    2.9357  143.6804   54.6469 C   0  0  0  0  0  0  0  0  0  0  0  0
    2.3716  142.7970   53.5926 C   0  0  0  0  0  0  0  0  0  0  0  0
    1.6742  142.1059   54.0573 H   0  0  0  0  0  0  0  0  0  0  0  0
    1.8353  143.3954   52.8524 H   0  0  0  0  0  0  0  0  0  0  0  0
    3.4494  142.0678   52.9343 C   0  0  0  0  0  0  0  0  0  0  0  0
    4.2774  141.4582   52.3902 N   0  0  0  0  0  0  0  0  0  0  0  0
    3.2731  143.1994   55.9035 C   0  0  0  0  0  0  0  0  0  0  0  0
    3.1419  141.8185   56.2329 C   0  0  0  0  0  0  0  0  0  0  0  0
    3.0311  140.6819   56.4559 N   0  0  0  0  0  0  0  0  0  0  0  0
    3.7524  144.1065   56.8122 C   0  0  0  0  0  0  0  0  0  0  0  0
    4.1455  143.7199   58.0352 N   0  0  0  0  0  0  0  0  0  0  0  0
    4.0640  142.7393   58.2991 H   0  0  0  0  0  0  0  0  0  0  0  0
    4.5038  144.4283   58.6712 H   0  0  0  0  0  0  0  0  0  0  0  0
    3.8918  145.4255   56.5026 C   0  0  0  0  0  0  0  0  0  0  0  0
    4.3087  146.1215   57.2132 H   0  0  0  0  0  0  0  0  0  0  0  0
    1.9371  149.2431   52.6460 C   0  0  0  0  0  0  0  0  0  0  0  0
    2.7772  148.4017   51.9516 O   0  0  0  0  0  0  0  0  0  0  0  0
    2.1671  147.2955   51.2816 C   0  0  0  0  0  0  0  0  0  0  0  0
    1.6251  147.6335   50.3933 H   0  0  0  0  0  0  0  0  0  0  0  0
    1.4761  146.7668   51.9480 H   0  0  0  0  0  0  0  0  0  0  0  0
    2.9519  146.5960   50.9724 H   0  0  0  0  0  0  0  0  0  0  0  0
  1  2  1  0
  2  3  2  0
  3  4  1  0
  3  5  1  0
  5  6  1  0
  6  7  1  0
  7  8  1  0
  7  9  1  0
  7 10  1  0
  5 11  2  0
 11 12  1  0
 11 13  1  0
 13 14  1  0
 14 15  1  0
 14 16  1  0
 14 17  1  0
 17 18  2  0
 17 19  1  0
 19 20  1  0
 19 21  1  0
 21 22  2  0
 22 23  1  0
 23 24  1  0
 24 25  1  0
 24 26  1  0
 24 27  1  0
 27 28  3  0
 23 29  2  0
 29 30  1  0
 30 31  3  0
 29 32  1  0
 32 33  1  0
 33 34  1  0
 33 35  1  0
 32 36  2  0
 36 37  1  0
 13 38  2  0
 38 39  1  0
 39 40  1  0
 40 41  1  0
 40 42  1  0
 40 43  1  0
 38  2  1  0
 36 21  1  0
M  END
>  <score>  (95) 
6.93612

$$$$

     RDKit          3D

 47 48  0  0  0  0  0  0  0  0999 V2000
    0.2751  149.1661   51.2385 H   0  0  0  0  0  0  0  0  0  0  0  0
    0.6139  149.5746   52.1859 C   0  0  0  0  0  0  0  0  0  0  0  0
   -0.1902  150.4711   52.9100 C   0  0  0  0  0  0  0  0  0  0  0  0
   -1.9199  150.9654   52.2501 Br  0  0  0  0  0  0  0  0  0  0  0  0
    0.3062  151.0398   54.0940 C   0  0  0  0  0  0  0  0  0  0  0  0
   -0.3945  151.9793   54.7925 O   0  0  0  0  0  0  0  0  0  0  0  0
   -1.4263  151.4042   55.5929 C   0  0  0  0  0  0  0  0  0  0  0  0
   -1.0062  150.6863   56.3007 H   0  0  0  0  0  0  0  0  0  0  0  0
   -1.9342  152.1907   56.1588 H   0  0  0  0  0  0  0  0  0  0  0  0
   -2.1572  150.8895   54.9625 H   0  0  0  0  0  0  0  0  0  0  0  0
    1.5542  150.6603   54.5746 C   0  0  0  0  0  0  0  0  0  0  0  0
    1.9171  151.1112   55.4923 H   0  0  0  0  0  0  0  0  0  0  0  0
    2.3399  149.7476   53.8726 C   0  0  0  0  0  0  0  0  0  0  0  0
    3.6872  149.4058   54.4289 C   0  0  0  0  0  0  0  0  0  0  0  0
    4.4264  149.3927   53.6203 H   0  0  0  0  0  0  0  0  0  0  0  0
    3.9454  150.1758   55.1457 H   0  0  0  0  0  0  0  0  0  0  0  0
    3.6880  148.0875   55.1847 C   0  0  0  0  0  0  0  0  0  0  0  0
    3.7947  148.0902   56.3977 O   0  0  0  0  0  0  0  0  0  0  0  0
    3.6065  146.9096   54.5134 N   0  0  0  0  0  0  0  0  0  0  0  0
    3.3627  146.9222   53.5336 H   0  0  0  0  0  0  0  0  0  0  0  0
    3.5138  145.7087   55.1083 C   0  0  0  0  0  0  0  0  0  0  0  0
    3.0287  144.8545   54.2510 N   0  0  0  0  0  0  0  0  0  0  0  0
    2.9497  143.6261   54.6815 C   0  0  0  0  0  0  0  0  0  0  0  0
    2.3752  142.9000   53.7128 N   0  0  0  0  0  0  0  0  0  0  0  0
    2.0353  143.5955   53.0515 H   0  0  0  0  0  0  0  0  0  0  0  0
    3.1499  141.8237   53.0988 C   0  0  0  0  0  0  0  0  0  0  0  0
    3.9262  141.4401   53.7754 H   0  0  0  0  0  0  0  0  0  0  0  0
    2.4847  140.9920   52.8379 H   0  0  0  0  0  0  0  0  0  0  0  0
    3.7815  142.4004   51.8426 C   0  0  0  0  0  0  0  0  0  0  0  0
    4.3525  143.3045   52.0805 H   0  0  0  0  0  0  0  0  0  0  0  0
    2.9959  142.6678   51.1257 H   0  0  0  0  0  0  0  0  0  0  0  0
    4.4524  141.6587   51.3951 H   0  0  0  0  0  0  0  0  0  0  0  0
    3.3307  143.1664   55.8999 C   0  0  0  0  0  0  0  0  0  0  0  0
    3.2031  141.7824   56.2132 C   0  0  0  0  0  0  0  0  0  0  0  0
    3.0884  140.6464   56.4147 N   0  0  0  0  0  0  0  0  0  0  0  0
    3.7861  144.1039   56.7694 C   0  0  0  0  0  0  0  0  0  0  0  0
    4.1477  143.7638   58.0101 N   0  0  0  0  0  0  0  0  0  0  0  0
    4.4619  144.4939   58.6480 H   0  0  0  0  0  0  0  0  0  0  0  0
    4.0782  142.7860   58.2842 H   0  0  0  0  0  0  0  0  0  0  0  0
    3.8807  145.4091   56.3983 C   0  0  0  0  0  0  0  0  0  0  0  0
    4.2415  146.1607   57.0866 H   0  0  0  0  0  0  0  0  0  0  0  0
    1.8888  149.2182   52.6573 C   0  0  0  0  0  0  0  0  0  0  0  0
    2.7438  148.3940   51.9685 O   0  0  0  0  0  0  0  0  0  0  0  0
    2.1325  147.3101   51.2714 C   0  0  0  0  0  0  0  0  0  0  0  0
    1.5896  147.6697   50.3940 H   0  0  0  0  0  0  0  0  0  0  0  0
    2.9025  146.6053   50.9433 H   0  0  0  0  0  0  0  0  0  0  0  0
    1.4407  146.7840   51.9341 H   0  0  0  0  0  0  0  0  0  0  0  0
  1  2  1  0
  2  3  2  0
  3  4  1  0
  3  5  1  0
  5  6  1  0
  6  7  1  0
  7  8  1  0
  7  9  1  0
  7 10  1  0
  5 11  2  0
 11 12  1  0
 11 13  1  0
 13 14  1  0
 14 15  1  0
 14 16  1  0
 14 17  1  0
 17 18  2  0
 17 19  1  0
 19 20  1  0
 19 21  1  0
 21 22  2  0
 22 23  1  0
 23 24  1  0
 24 25  1  0
 24 26  1  0
 26 27  1  0
 26 28  1  0
 26 29  1  0
 29 30  1  0
 29 31  1  0
 29 32  1  0
 23 33  2  0
 33 34  1  0
 34 35  3  0
 33 36  1  0
 36 37  1  0
 37 38  1  0
 37 39  1  0
 36 40  2  0
 40 41  1  0
 13 42  2  0
 42 43  1  0
 43 44  1  0
 44 45  1  0
 44 46  1  0
 44 47  1  0
 42  2  1  0
 40 21  1  0
M  END
>  <score>  (96) 
6.93832

$$$$

     RDKit          3D

 48 50  0  0  0  0  0  0  0  0999 V2000
    3.0846  140.0819   51.7659 H   0  0  0  0  0  0  0  0  0  0  0  0
    2.4754  140.8948   52.1260 C   0  0  0  0  0  0  0  0  0  0  0  0
    1.3164  141.1793   51.5171 N   0  0  0  0  0  0  0  0  0  0  0  0
    0.6695  142.2838   51.9055 C   0  0  0  0  0  0  0  0  0  0  0  0
   -0.2514  142.5454   51.3992 H   0  0  0  0  0  0  0  0  0  0  0  0
    1.1563  143.1218   52.9132 C   0  0  0  0  0  0  0  0  0  0  0  0
    0.5917  144.0148   53.1416 H   0  0  0  0  0  0  0  0  0  0  0  0
    2.3390  142.8111   53.6086 C   0  0  0  0  0  0  0  0  0  0  0  0
    2.9015  143.6972   54.6699 C   0  0  0  0  0  0  0  0  0  0  0  0
    3.0391  144.9901   54.3606 N   0  0  0  0  0  0  0  0  0  0  0  0
    3.5469  145.8134   55.2514 C   0  0  0  0  0  0  0  0  0  0  0  0
    3.7136  147.0110   54.6580 N   0  0  0  0  0  0  0  0  0  0  0  0
    3.5321  146.9738   53.6658 H   0  0  0  0  0  0  0  0  0  0  0  0
    3.7550  148.2262   55.2764 C   0  0  0  0  0  0  0  0  0  0  0  0
    3.8520  148.2882   56.4922 O   0  0  0  0  0  0  0  0  0  0  0  0
    3.7323  149.4818   54.3992 C   0  0  0  0  0  0  0  0  0  0  0  0
    4.0063  150.3614   54.9690 H   0  0  0  0  0  0  0  0  0  0  0  0
    4.4183  149.3564   53.5582 H   0  0  0  0  0  0  0  0  0  0  0  0
    2.3847  149.7882   53.8583 C   0  0  0  0  0  0  0  0  0  0  0  0
    1.5982  150.6921   54.5738 C   0  0  0  0  0  0  0  0  0  0  0  0
    1.9917  151.1468   55.4737 H   0  0  0  0  0  0  0  0  0  0  0  0
    0.3344  151.0604   54.1327 C   0  0  0  0  0  0  0  0  0  0  0  0
   -0.3793  151.9761   54.8625 O   0  0  0  0  0  0  0  0  0  0  0  0
   -1.4274  151.4045   55.6501 C   0  0  0  0  0  0  0  0  0  0  0  0
   -1.0150  150.7038   56.3776 H   0  0  0  0  0  0  0  0  0  0  0  0
   -1.9445  152.2014   56.1944 H   0  0  0  0  0  0  0  0  0  0  0  0
   -2.1537  150.8752   55.0248 H   0  0  0  0  0  0  0  0  0  0  0  0
   -0.1431  150.5017   52.9360 C   0  0  0  0  0  0  0  0  0  0  0  0
   -1.8684  150.9834   52.2752 Br  0  0  0  0  0  0  0  0  0  0  0  0
    0.6607  149.6072   52.1967 C   0  0  0  0  0  0  0  0  0  0  0  0
    0.3067  149.2024   51.2524 H   0  0  0  0  0  0  0  0  0  0  0  0
    1.9372  149.2397   52.6507 C   0  0  0  0  0  0  0  0  0  0  0  0
    2.7759  148.4013   51.9502 O   0  0  0  0  0  0  0  0  0  0  0  0
    2.1658  147.2952   51.2811 C   0  0  0  0  0  0  0  0  0  0  0  0
    2.9507  146.5965   50.9713 H   0  0  0  0  0  0  0  0  0  0  0  0
    1.6236  147.6353   50.3943 H   0  0  0  0  0  0  0  0  0  0  0  0
    1.4762  146.7680   51.9493 H   0  0  0  0  0  0  0  0  0  0  0  0
    3.9084  145.4430   56.5214 C   0  0  0  0  0  0  0  0  0  0  0  0
    4.3258  146.1402   57.2382 H   0  0  0  0  0  0  0  0  0  0  0  0
    3.7719  144.1161   56.8220 C   0  0  0  0  0  0  0  0  0  0  0  0
    4.1582  143.7203   58.0461 N   0  0  0  0  0  0  0  0  0  0  0  0
    4.0676  142.7421   58.3125 H   0  0  0  0  0  0  0  0  0  0  0  0
    4.5070  144.4249   58.6902 H   0  0  0  0  0  0  0  0  0  0  0  0
    3.2892  143.2082   55.9117 C   0  0  0  0  0  0  0  0  0  0  0  0
    3.1588  141.8254   56.2341 C   0  0  0  0  0  0  0  0  0  0  0  0
    3.0372  140.6884   56.4509 N   0  0  0  0  0  0  0  0  0  0  0  0
    2.9841  141.6406   53.1859 C   0  0  0  0  0  0  0  0  0  0  0  0
    3.9186  141.3087   53.6166 H   0  0  0  0  0  0  0  0  0  0  0  0
  1  2  1  0
  2  3  2  0
  3  4  1  0
  4  5  1  0
  4  6  2  0
  6  7  1  0
  6  8  1  0
  8  9  1  0
  9 10  2  0
 10 11  1  0
 11 12  1  0
 12 13  1  0
 12 14  1  0
 14 15  2  0
 14 16  1  0
 16 17  1  0
 16 18  1  0
 16 19  1  0
 19 20  2  0
 20 21  1  0
 20 22  1  0
 22 23  1  0
 23 24  1  0
 24 25  1  0
 24 26  1  0
 24 27  1  0
 22 28  2  0
 28 29  1  0
 28 30  1  0
 30 31  1  0
 30 32  2  0
 32 33  1  0
 33 34  1  0
 34 35  1  0
 34 36  1  0
 34 37  1  0
 11 38  2  0
 38 39  1  0
 38 40  1  0
 40 41  1  0
 41 42  1  0
 41 43  1  0
 40 44  2  0
 44 45  1  0
 45 46  3  0
  8 47  2  0
 47 48  1  0
 47  2  1  0
 44  9  1  0
 32 19  1  0
M  END
>  <score>  (97) 
6.9395

$$$$

     RDKit          3D

 51 52  0  0  0  0  0  0  0  0999 V2000
    6.7841  140.9364   50.8811 H   0  0  0  0  0  0  0  0  0  0  0  0
    6.1383  141.2494   51.5488 O   0  0  0  0  0  0  0  0  0  0  0  0
    5.1260  141.8396   50.8716 C   0  0  0  0  0  0  0  0  0  0  0  0
    5.0813  141.8837   49.6555 O   0  0  0  0  0  0  0  0  0  0  0  0
    4.0407  142.6286   51.6323 C   0  0  0  0  0  0  0  0  0  0  0  0
    4.5114  143.5343   52.0211 H   0  0  0  0  0  0  0  0  0  0  0  0
    3.2903  142.9572   50.9104 H   0  0  0  0  0  0  0  0  0  0  0  0
    3.3340  141.8425   52.7647 C   0  0  0  0  0  0  0  0  0  0  0  0
    4.0670  141.3630   53.4229 H   0  0  0  0  0  0  0  0  0  0  0  0
    2.7392  141.0292   52.3327 H   0  0  0  0  0  0  0  0  0  0  0  0
    2.3810  142.7643   53.5558 C   0  0  0  0  0  0  0  0  0  0  0  0
    1.6606  142.1533   54.0963 H   0  0  0  0  0  0  0  0  0  0  0  0
    1.8202  143.3866   52.8554 H   0  0  0  0  0  0  0  0  0  0  0  0
    3.0188  143.6681   54.5765 C   0  0  0  0  0  0  0  0  0  0  0  0
    3.1637  144.9478   54.2493 N   0  0  0  0  0  0  0  0  0  0  0  0
    3.5992  145.7863   55.1621 C   0  0  0  0  0  0  0  0  0  0  0  0
    3.7071  146.9775   54.5669 N   0  0  0  0  0  0  0  0  0  0  0  0
    3.4258  146.9466   53.5971 H   0  0  0  0  0  0  0  0  0  0  0  0
    3.7385  148.1679   55.2214 C   0  0  0  0  0  0  0  0  0  0  0  0
    3.8141  148.2098   56.4380 O   0  0  0  0  0  0  0  0  0  0  0  0
    3.6964  149.4561   54.4287 C   0  0  0  0  0  0  0  0  0  0  0  0
    3.9814  150.2540   55.0971 H   0  0  0  0  0  0  0  0  0  0  0  0
    4.4122  149.4152   53.6108 H   0  0  0  0  0  0  0  0  0  0  0  0
    2.3385  149.7634   53.8775 C   0  0  0  0  0  0  0  0  0  0  0  0
    1.5562  150.6746   54.5804 C   0  0  0  0  0  0  0  0  0  0  0  0
    1.9411  151.1304   55.4916 H   0  0  0  0  0  0  0  0  0  0  0  0
    0.3039  151.0386   54.0994 C   0  0  0  0  0  0  0  0  0  0  0  0
   -0.3889  151.9781   54.8092 O   0  0  0  0  0  0  0  0  0  0  0  0
   -1.4221  151.4051   55.6070 C   0  0  0  0  0  0  0  0  0  0  0  0
   -1.9345  152.1961   56.1633 H   0  0  0  0  0  0  0  0  0  0  0  0
   -2.1468  150.8873   54.9735 H   0  0  0  0  0  0  0  0  0  0  0  0
   -1.0047  150.6869   56.3168 H   0  0  0  0  0  0  0  0  0  0  0  0
   -0.1863  150.4754   52.9023 C   0  0  0  0  0  0  0  0  0  0  0  0
   -1.9230  150.9772   52.2611 Br  0  0  0  0  0  0  0  0  0  0  0  0
    0.6148  149.5696   52.1771 C   0  0  0  0  0  0  0  0  0  0  0  0
    0.2787  149.1692   51.2218 H   0  0  0  0  0  0  0  0  0  0  0  0
    1.8892  149.2155   52.6619 C   0  0  0  0  0  0  0  0  0  0  0  0
    2.7532  148.4049   51.9644 O   0  0  0  0  0  0  0  0  0  0  0  0
    2.1443  147.3122   51.2762 C   0  0  0  0  0  0  0  0  0  0  0  0
    1.6006  147.6669   50.3956 H   0  0  0  0  0  0  0  0  0  0  0  0
    2.9142  146.6039   50.9526 H   0  0  0  0  0  0  0  0  0  0  0  0
    1.4522  146.7906   51.9451 H   0  0  0  0  0  0  0  0  0  0  0  0
    3.9024  145.4528   56.4591 C   0  0  0  0  0  0  0  0  0  0  0  0
    4.2667  146.1526   57.2014 H   0  0  0  0  0  0  0  0  0  0  0  0
    3.7639  144.1344   56.7734 C   0  0  0  0  0  0  0  0  0  0  0  0
    4.1041  143.7663   58.0276 N   0  0  0  0  0  0  0  0  0  0  0  0
    4.4818  144.4594   58.6703 H   0  0  0  0  0  0  0  0  0  0  0  0
    4.0782  142.7840   58.2806 H   0  0  0  0  0  0  0  0  0  0  0  0
    3.3170  143.2112   55.8502 C   0  0  0  0  0  0  0  0  0  0  0  0
    3.1677  141.8313   56.1809 C   0  0  0  0  0  0  0  0  0  0  0  0
    3.0604  140.7005   56.4347 N   0  0  0  0  0  0  0  0  0  0  0  0
  1  2  1  0
  2  3  1  0
  3  4  2  0
  3  5  1  0
  5  6  1  0
  5  7  1  0
  5  8  1  0
  8  9  1  0
  8 10  1  0
  8 11  1  0
 11 12  1  0
 11 13  1  0
 11 14  1  0
 14 15  2  0
 15 16  1  0
 16 17  1  0
 17 18  1  0
 17 19  1  0
 19 20  2  0
 19 21  1  0
 21 22  1  0
 21 23  1  0
 21 24  1  0
 24 25  2  0
 25 26  1  0
 25 27  1  0
 27 28  1  0
 28 29  1  0
 29 30  1  0
 29 31  1  0
 29 32  1  0
 27 33  2  0
 33 34  1  0
 33 35  1  0
 35 36  1  0
 35 37  2  0
 37 38  1  0
 38 39  1  0
 39 40  1  0
 39 41  1  0
 39 42  1  0
 16 43  2  0
 43 44  1  0
 43 45  1  0
 45 46  1  0
 46 47  1  0
 46 48  1  0
 45 49  2  0
 49 50  1  0
 50 51  3  0
 49 14  1  0
 37 24  1  0
M  END
>  <score>  (98) 
6.94243

$$$$

     RDKit          3D

 52 54  0  0  0  0  0  0  0  0999 V2000
    0.2537  149.1504   51.2329 H   0  0  0  0  0  0  0  0  0  0  0  0
    0.5953  149.5626   52.1783 C   0  0  0  0  0  0  0  0  0  0  0  0
   -0.2086  150.4664   52.8944 C   0  0  0  0  0  0  0  0  0  0  0  0
   -1.9434  150.9537   52.2349 Br  0  0  0  0  0  0  0  0  0  0  0  0
    0.2882  151.0399   54.0761 C   0  0  0  0  0  0  0  0  0  0  0  0
   -0.4110  151.9868   54.7657 O   0  0  0  0  0  0  0  0  0  0  0  0
   -1.4316  151.4044   55.5706 C   0  0  0  0  0  0  0  0  0  0  0  0
   -2.1649  150.8951   54.9396 H   0  0  0  0  0  0  0  0  0  0  0  0
   -1.9352  152.1840   56.1471 H   0  0  0  0  0  0  0  0  0  0  0  0
   -1.0029  150.6804   56.2669 H   0  0  0  0  0  0  0  0  0  0  0  0
    1.5292  150.6524   54.5705 C   0  0  0  0  0  0  0  0  0  0  0  0
    1.8823  151.0987   55.4938 H   0  0  0  0  0  0  0  0  0  0  0  0
    2.3234  149.7428   53.8742 C   0  0  0  0  0  0  0  0  0  0  0  0
    3.6723  149.4024   54.4439 C   0  0  0  0  0  0  0  0  0  0  0  0
    4.4282  149.4245   53.6515 H   0  0  0  0  0  0  0  0  0  0  0  0
    3.9126  150.1453   55.1960 H   0  0  0  0  0  0  0  0  0  0  0  0
    3.6864  148.0690   55.1678 C   0  0  0  0  0  0  0  0  0  0  0  0
    3.7888  148.0499   56.3819 O   0  0  0  0  0  0  0  0  0  0  0  0
    3.6206  146.9074   54.4693 N   0  0  0  0  0  0  0  0  0  0  0  0
    3.3211  146.9391   53.5068 H   0  0  0  0  0  0  0  0  0  0  0  0
    3.4744  145.7051   55.0626 C   0  0  0  0  0  0  0  0  0  0  0  0
    2.9397  144.8653   54.2200 N   0  0  0  0  0  0  0  0  0  0  0  0
    2.7943  143.6113   54.6250 C   0  0  0  0  0  0  0  0  0  0  0  0
    2.3090  142.7061   53.6815 N   0  0  0  0  0  0  0  0  0  0  0  0
    3.3659  141.9307   53.0041 C   0  0  0  0  0  0  0  0  0  0  0  0
    3.9659  142.6224   52.4040 H   0  0  0  0  0  0  0  0  0  0  0  0
    4.0134  141.4644   53.7497 H   0  0  0  0  0  0  0  0  0  0  0  0
    2.7849  140.8307   52.0988 C   0  0  0  0  0  0  0  0  0  0  0  0
    3.5810  140.3295   51.5388 H   0  0  0  0  0  0  0  0  0  0  0  0
    2.3029  140.0894   52.7439 H   0  0  0  0  0  0  0  0  0  0  0  0
    1.8350  141.3654   51.1673 O   0  0  0  0  0  0  0  0  0  0  0  0
    0.7356  141.9593   51.8629 C   0  0  0  0  0  0  0  0  0  0  0  0
    0.0227  142.3329   51.1294 H   0  0  0  0  0  0  0  0  0  0  0  0
    0.2161  141.2015   52.4658 H   0  0  0  0  0  0  0  0  0  0  0  0
    1.2131  143.1140   52.7649 C   0  0  0  0  0  0  0  0  0  0  0  0
    1.5568  143.9250   52.1215 H   0  0  0  0  0  0  0  0  0  0  0  0
    0.3557  143.4759   53.3336 H   0  0  0  0  0  0  0  0  0  0  0  0
    3.2152  143.1739   55.8640 C   0  0  0  0  0  0  0  0  0  0  0  0
    3.1530  141.7906   56.1988 C   0  0  0  0  0  0  0  0  0  0  0  0
    3.1168  140.6513   56.4090 N   0  0  0  0  0  0  0  0  0  0  0  0
    3.7213  144.0949   56.7301 C   0  0  0  0  0  0  0  0  0  0  0  0
    4.1534  143.7630   57.9679 N   0  0  0  0  0  0  0  0  0  0  0  0
    4.4345  144.5063   58.6056 H   0  0  0  0  0  0  0  0  0  0  0  0
    4.0725  142.7977   58.2814 H   0  0  0  0  0  0  0  0  0  0  0  0
    3.8410  145.3923   56.3484 C   0  0  0  0  0  0  0  0  0  0  0  0
    4.2433  146.1251   57.0243 H   0  0  0  0  0  0  0  0  0  0  0  0
    1.8720  149.2113   52.6576 C   0  0  0  0  0  0  0  0  0  0  0  0
    2.7298  148.3901   51.9701 O   0  0  0  0  0  0  0  0  0  0  0  0
    2.1173  147.3128   51.2671 C   0  0  0  0  0  0  0  0  0  0  0  0
    1.5742  147.6830   50.3942 H   0  0  0  0  0  0  0  0  0  0  0  0
    2.8850  146.6090   50.9317 H   0  0  0  0  0  0  0  0  0  0  0  0
    1.4262  146.7851   51.9295 H   0  0  0  0  0  0  0  0  0  0  0  0
  1  2  1  0
  2  3  2  0
  3  4  1  0
  3  5  1  0
  5  6  1  0
  6  7  1  0
  7  8  1  0
  7  9  1  0
  7 10  1  0
  5 11  2  0
 11 12  1  0
 11 13  1  0
 13 14  1  0
 14 15  1  0
 14 16  1  0
 14 17  1  0
 17 18  2  0
 17 19  1  0
 19 20  1  0
 19 21  1  0
 21 22  2  0
 22 23  1  0
 23 24  1  0
 24 25  1  0
 25 26  1  0
 25 27  1  0
 25 28  1  0
 28 29  1  0
 28 30  1  0
 28 31  1  0
 31 32  1  0
 32 33  1  0
 32 34  1  0
 32 35  1  0
 35 36  1  0
 35 37  1  0
 23 38  2  0
 38 39  1  0
 39 40  3  0
 38 41  1  0
 41 42  1  0
 42 43  1  0
 42 44  1  0
 41 45  2  0
 45 46  1  0
 13 47  2  0
 47 48  1  0
 48 49  1  0
 49 50  1  0
 49 51  1  0
 49 52  1  0
 47  2  1  0
 45 21  1  0
 35 24  1  0
M  END
>  <score>  (99) 
6.94386

$$$$

     RDKit          3D

 49 50  0  0  0  0  0  0  0  0999 V2000
    2.2250  140.6512   49.3442 H   0  0  0  0  0  0  0  0  0  0  0  0
    2.1427  141.6115   49.4477 O   0  0  0  0  0  0  0  0  0  0  0  0
    1.4105  141.7939   50.5828 C   0  0  0  0  0  0  0  0  0  0  0  0
    0.8810  140.8732   51.1766 O   0  0  0  0  0  0  0  0  0  0  0  0
    1.1700  143.1535   51.1628 C   0  0  0  0  0  0  0  0  0  0  0  0
    0.4851  144.1578   50.5176 O   0  0  0  0  0  0  0  0  0  0  0  0
    0.2979  144.8666   51.1630 H   0  0  0  0  0  0  0  0  0  0  0  0
    1.5683  143.5700   52.4171 C   0  0  0  0  0  0  0  0  0  0  0  0
    1.2959  144.5812   52.6769 H   0  0  0  0  0  0  0  0  0  0  0  0
    2.3461  142.8529   53.4581 C   0  0  0  0  0  0  0  0  0  0  0  0
    2.4951  141.6335   53.3592 O   0  0  0  0  0  0  0  0  0  0  0  0
    2.9450  143.6725   54.5944 C   0  0  0  0  0  0  0  0  0  0  0  0
    3.1263  144.9724   54.3092 N   0  0  0  0  0  0  0  0  0  0  0  0
    3.6047  145.8050   55.1921 C   0  0  0  0  0  0  0  0  0  0  0  0
    3.7019  147.0104   54.6089 N   0  0  0  0  0  0  0  0  0  0  0  0
    3.4432  147.0117   53.6337 H   0  0  0  0  0  0  0  0  0  0  0  0
    3.7148  148.1894   55.2773 C   0  0  0  0  0  0  0  0  0  0  0  0
    3.8200  148.2004   56.4913 O   0  0  0  0  0  0  0  0  0  0  0  0
    3.6704  149.4884   54.4833 C   0  0  0  0  0  0  0  0  0  0  0  0
    3.8944  150.3025   55.1615 H   0  0  0  0  0  0  0  0  0  0  0  0
    4.4344  149.4651   53.7055 H   0  0  0  0  0  0  0  0  0  0  0  0
    2.3304  149.7920   53.8737 C   0  0  0  0  0  0  0  0  0  0  0  0
    1.5179  150.7005   54.5577 C   0  0  0  0  0  0  0  0  0  0  0  0
    1.8593  151.1404   55.4902 H   0  0  0  0  0  0  0  0  0  0  0  0
    0.2692  151.0625   54.0640 C   0  0  0  0  0  0  0  0  0  0  0  0
   -0.4609  151.9935   54.7519 O   0  0  0  0  0  0  0  0  0  0  0  0
   -1.4697  151.4024   55.5703 C   0  0  0  0  0  0  0  0  0  0  0  0
   -1.0252  150.6759   56.2548 H   0  0  0  0  0  0  0  0  0  0  0  0
   -1.9700  152.1768   56.1597 H   0  0  0  0  0  0  0  0  0  0  0  0
   -2.2149  150.8942   54.9517 H   0  0  0  0  0  0  0  0  0  0  0  0
   -0.1989  150.4739   52.8778 C   0  0  0  0  0  0  0  0  0  0  0  0
   -1.9355  150.9136   52.1961 Br  0  0  0  0  0  0  0  0  0  0  0  0
    0.6150  149.5642   52.1835 C   0  0  0  0  0  0  0  0  0  0  0  0
    0.2528  149.1268   51.2595 H   0  0  0  0  0  0  0  0  0  0  0  0
    1.8926  149.2231   52.6627 C   0  0  0  0  0  0  0  0  0  0  0  0
    2.7326  148.3617   51.9971 O   0  0  0  0  0  0  0  0  0  0  0  0
    2.1032  147.3077   51.2576 C   0  0  0  0  0  0  0  0  0  0  0  0
    1.3892  146.7700   51.8890 H   0  0  0  0  0  0  0  0  0  0  0  0
    1.5773  147.6977   50.3813 H   0  0  0  0  0  0  0  0  0  0  0  0
    2.8654  146.5985   50.9199 H   0  0  0  0  0  0  0  0  0  0  0  0
    3.9271  145.4515   56.4677 C   0  0  0  0  0  0  0  0  0  0  0  0
    4.3007  146.1654   57.1778 H   0  0  0  0  0  0  0  0  0  0  0  0
    3.7719  144.1388   56.8037 C   0  0  0  0  0  0  0  0  0  0  0  0
    4.0737  143.7992   58.0797 N   0  0  0  0  0  0  0  0  0  0  0  0
    4.4896  144.5073   58.6800 H   0  0  0  0  0  0  0  0  0  0  0  0
    4.1401  142.8157   58.3294 H   0  0  0  0  0  0  0  0  0  0  0  0
    3.3059  143.2154   55.8768 C   0  0  0  0  0  0  0  0  0  0  0  0
    3.1863  141.8326   56.2201 C   0  0  0  0  0  0  0  0  0  0  0  0
    3.1039  140.7124   56.5074 N   0  0  0  0  0  0  0  0  0  0  0  0
  1  2  1  0
  2  3  1  0
  3  4  2  0
  3  5  1  0
  5  6  1  0
  6  7  1  0
  5  8  2  3
  8  9  1  0
  8 10  1  0
 10 11  2  0
 10 12  1  0
 12 13  2  0
 13 14  1  0
 14 15  1  0
 15 16  1  0
 15 17  1  0
 17 18  2  0
 17 19  1  0
 19 20  1  0
 19 21  1  0
 19 22  1  0
 22 23  2  0
 23 24  1  0
 23 25  1  0
 25 26  1  0
 26 27  1  0
 27 28  1  0
 27 29  1  0
 27 30  1  0
 25 31  2  0
 31 32  1  0
 31 33  1  0
 33 34  1  0
 33 35  2  0
 35 36  1  0
 36 37  1  0
 37 38  1  0
 37 39  1  0
 37 40  1  0
 14 41  2  0
 41 42  1  0
 41 43  1  0
 43 44  1  0
 44 45  1  0
 44 46  1  0
 43 47  2  0
 47 48  1  0
 48 49  3  0
 47 12  1  0
 35 22  1  0
M  END
>  <score>  (100) 
6.94916

$$$$

     RDKit          3D

 45 46  0  0  0  0  0  0  0  0999 V2000
    0.3043  149.1967   51.2469 H   0  0  0  0  0  0  0  0  0  0  0  0
    0.6535  149.5961   52.1927 C   0  0  0  0  0  0  0  0  0  0  0  0
   -0.1492  150.4937   52.9273 C   0  0  0  0  0  0  0  0  0  0  0  0
   -1.8801  150.9857   52.2768 Br  0  0  0  0  0  0  0  0  0  0  0  0
    0.3293  151.0498   54.1261 C   0  0  0  0  0  0  0  0  0  0  0  0
   -0.3770  151.9741   54.8514 O   0  0  0  0  0  0  0  0  0  0  0  0
   -1.4233  151.4045   55.6395 C   0  0  0  0  0  0  0  0  0  0  0  0
   -1.0130  150.7000   56.3636 H   0  0  0  0  0  0  0  0  0  0  0  0
   -2.1494  150.8775   55.0140 H   0  0  0  0  0  0  0  0  0  0  0  0
   -1.9388  152.2004   56.1849 H   0  0  0  0  0  0  0  0  0  0  0  0
    1.5881  150.6861   54.5752 C   0  0  0  0  0  0  0  0  0  0  0  0
    1.9836  151.1421   55.4757 H   0  0  0  0  0  0  0  0  0  0  0  0
    2.3700  149.7752   53.8629 C   0  0  0  0  0  0  0  0  0  0  0  0
    3.7148  149.4579   54.4057 C   0  0  0  0  0  0  0  0  0  0  0  0
    4.4066  149.3640   53.5699 H   0  0  0  0  0  0  0  0  0  0  0  0
    3.9878  150.3162   55.0009 H   0  0  0  0  0  0  0  0  0  0  0  0
    3.7439  148.1790   55.2420 C   0  0  0  0  0  0  0  0  0  0  0  0
    3.8387  148.2185   56.4606 O   0  0  0  0  0  0  0  0  0  0  0  0
    3.6979  146.9767   54.5955 N   0  0  0  0  0  0  0  0  0  0  0  0
    3.4962  146.9538   53.6083 H   0  0  0  0  0  0  0  0  0  0  0  0
    3.5564  145.7688   55.1601 C   0  0  0  0  0  0  0  0  0  0  0  0
    3.1178  144.9327   54.2475 N   0  0  0  0  0  0  0  0  0  0  0  0
    2.9643  143.6692   54.6030 C   0  0  0  0  0  0  0  0  0  0  0  0
    2.4770  142.8103   53.6828 N   0  0  0  0  0  0  0  0  0  0  0  0
    1.8450  142.0978   53.9988 H   0  0  0  0  0  0  0  0  0  0  0  0
    2.3574  143.1604   52.3906 C   0  0  0  0  0  0  0  0  0  0  0  0
    1.5745  142.5325   51.7231 O   0  0  0  0  0  0  0  0  0  0  0  0
    3.2613  143.9690   51.7866 N   0  0  0  0  0  0  0  0  0  0  0  0
    4.1545  144.0417   52.2588 H   0  0  0  0  0  0  0  0  0  0  0  0
    3.2792  143.8242   50.7887 H   0  0  0  0  0  0  0  0  0  0  0  0
    3.2453  143.1913   55.8581 C   0  0  0  0  0  0  0  0  0  0  0  0
    3.1181  141.8138   56.1943 C   0  0  0  0  0  0  0  0  0  0  0  0
    3.0297  140.6782   56.4414 N   0  0  0  0  0  0  0  0  0  0  0  0
    3.7233  144.0977   56.7617 C   0  0  0  0  0  0  0  0  0  0  0  0
    4.1198  143.7228   57.9882 N   0  0  0  0  0  0  0  0  0  0  0  0
    4.0551  142.7479   58.2752 H   0  0  0  0  0  0  0  0  0  0  0  0
    4.4795  144.4360   58.6179 H   0  0  0  0  0  0  0  0  0  0  0  0
    3.8721  145.4137   56.4433 C   0  0  0  0  0  0  0  0  0  0  0  0
    4.2730  146.1080   57.1668 H   0  0  0  0  0  0  0  0  0  0  0  0
    1.9234  149.2306   52.6530 C   0  0  0  0  0  0  0  0  0  0  0  0
    2.7735  148.4043   51.9522 O   0  0  0  0  0  0  0  0  0  0  0  0
    2.1623  147.3000   51.2810 C   0  0  0  0  0  0  0  0  0  0  0  0
    1.4868  146.7616   51.9551 H   0  0  0  0  0  0  0  0  0  0  0  0
    1.6018  147.6430   50.4063 H   0  0  0  0  0  0  0  0  0  0  0  0
    2.9447  146.6079   50.9513 H   0  0  0  0  0  0  0  0  0  0  0  0
  1  2  1  0
  2  3  2  0
  3  4  1  0
  3  5  1  0
  5  6  1  0
  6  7  1  0
  7  8  1  0
  7  9  1  0
  7 10  1  0
  5 11  2  0
 11 12  1  0
 11 13  1  0
 13 14  1  0
 14 15  1  0
 14 16  1  0
 14 17  1  0
 17 18  2  0
 17 19  1  0
 19 20  1  0
 19 21  1  0
 21 22  2  0
 22 23  1  0
 23 24  1  0
 24 25  1  0
 24 26  1  0
 26 27  2  0
 26 28  1  0
 28 29  1  0
 28 30  1  0
 23 31  2  0
 31 32  1  0
 32 33  3  0
 31 34  1  0
 34 35  1  0
 35 36  1  0
 35 37  1  0
 34 38  2  0
 38 39  1  0
 13 40  2  0
 40 41  1  0
 41 42  1  0
 42 43  1  0
 42 44  1  0
 42 45  1  0
 40  2  1  0
 38 21  1  0
M  END
>  <score>  (101) 
6.95014

$$$$

     RDKit          3D

 49 50  0  0  0  0  0  0  0  0999 V2000
    0.4157  142.6243   48.3986 H   0  0  0  0  0  0  0  0  0  0  0  0
    0.4965  142.0159   49.1613 O   0  0  0  0  0  0  0  0  0  0  0  0
    0.8207  142.8271   50.2175 C   0  0  0  0  0  0  0  0  0  0  0  0
    0.9280  144.0451   50.0818 O   0  0  0  0  0  0  0  0  0  0  0  0
    1.0693  142.2596   51.5923 C   0  0  0  0  0  0  0  0  0  0  0  0
    1.0321  141.0495   51.8354 O   0  0  0  0  0  0  0  0  0  0  0  0
    1.5180  143.1273   52.6915 C   0  0  0  0  0  0  0  0  0  0  0  0
    1.2082  144.1652   52.6649 H   0  0  0  0  0  0  0  0  0  0  0  0
    2.4230  142.7247   53.6511 C   0  0  0  0  0  0  0  0  0  0  0  0
    2.8165  141.4212   53.5070 O   0  0  0  0  0  0  0  0  0  0  0  0
    2.3402  141.0552   52.7346 H   0  0  0  0  0  0  0  0  0  0  0  0
    2.9886  143.6622   54.6918 C   0  0  0  0  0  0  0  0  0  0  0  0
    3.1259  144.9493   54.3449 N   0  0  0  0  0  0  0  0  0  0  0  0
    3.5952  145.8004   55.2182 C   0  0  0  0  0  0  0  0  0  0  0  0
    3.6923  146.9901   54.6066 N   0  0  0  0  0  0  0  0  0  0  0  0
    3.4065  146.9756   53.6395 H   0  0  0  0  0  0  0  0  0  0  0  0
    3.7118  148.1785   55.2604 C   0  0  0  0  0  0  0  0  0  0  0  0
    3.8161  148.1999   56.4739 O   0  0  0  0  0  0  0  0  0  0  0  0
    3.6793  149.4668   54.4517 C   0  0  0  0  0  0  0  0  0  0  0  0
    4.4403  149.4487   53.6636 H   0  0  0  0  0  0  0  0  0  0  0  0
    3.8996  150.2701   55.1430 H   0  0  0  0  0  0  0  0  0  0  0  0
    2.3331  149.7757   53.8639 C   0  0  0  0  0  0  0  0  0  0  0  0
    1.5245  150.6781   54.5597 C   0  0  0  0  0  0  0  0  0  0  0  0
    1.8692  151.1164   55.4899 H   0  0  0  0  0  0  0  0  0  0  0  0
    0.2772  151.0537   54.0746 C   0  0  0  0  0  0  0  0  0  0  0  0
   -0.4356  151.9932   54.7656 O   0  0  0  0  0  0  0  0  0  0  0  0
   -1.4508  151.4038   55.5730 C   0  0  0  0  0  0  0  0  0  0  0  0
   -2.1895  150.8935   54.9466 H   0  0  0  0  0  0  0  0  0  0  0  0
   -1.0099  150.6813   56.2641 H   0  0  0  0  0  0  0  0  0  0  0  0
   -1.9510  152.1823   56.1548 H   0  0  0  0  0  0  0  0  0  0  0  0
   -0.2012  150.4728   52.8911 C   0  0  0  0  0  0  0  0  0  0  0  0
   -1.9350  150.9338   52.2174 Br  0  0  0  0  0  0  0  0  0  0  0  0
    0.6084  149.5640   52.1886 C   0  0  0  0  0  0  0  0  0  0  0  0
    0.2504  149.1405   51.2589 H   0  0  0  0  0  0  0  0  0  0  0  0
    1.8897  149.2180   52.6551 C   0  0  0  0  0  0  0  0  0  0  0  0
    2.7343  148.3702   51.9793 O   0  0  0  0  0  0  0  0  0  0  0  0
    2.1065  147.3052   51.2626 C   0  0  0  0  0  0  0  0  0  0  0  0
    1.4030  146.7692   51.9101 H   0  0  0  0  0  0  0  0  0  0  0  0
    2.8766  146.6035   50.9282 H   0  0  0  0  0  0  0  0  0  0  0  0
    1.5737  147.6882   50.3866 H   0  0  0  0  0  0  0  0  0  0  0  0
    3.9339  145.4804   56.5079 C   0  0  0  0  0  0  0  0  0  0  0  0
    4.3105  146.2199   57.1965 H   0  0  0  0  0  0  0  0  0  0  0  0
    3.8130  144.1663   56.8741 C   0  0  0  0  0  0  0  0  0  0  0  0
    4.1368  143.8163   58.1493 N   0  0  0  0  0  0  0  0  0  0  0  0
    4.1617  142.8338   58.4221 H   0  0  0  0  0  0  0  0  0  0  0  0
    4.5127  144.5257   58.7738 H   0  0  0  0  0  0  0  0  0  0  0  0
    3.3596  143.2309   55.9665 C   0  0  0  0  0  0  0  0  0  0  0  0
    3.2398  141.8556   56.3189 C   0  0  0  0  0  0  0  0  0  0  0  0
    3.1447  140.7181   56.5444 N   0  0  0  0  0  0  0  0  0  0  0  0
  1  2  1  0
  2  3  1  0
  3  4  2  0
  3  5  1  0
  5  6  2  0
  5  7  1  0
  7  8  1  0
  7  9  2  3
  9 10  1  0
 10 11  1  0
  9 12  1  0
 12 13  2  0
 13 14  1  0
 14 15  1  0
 15 16  1  0
 15 17  1  0
 17 18  2  0
 17 19  1  0
 19 20  1  0
 19 21  1  0
 19 22  1  0
 22 23  2  0
 23 24  1  0
 23 25  1  0
 25 26  1  0
 26 27  1  0
 27 28  1  0
 27 29  1  0
 27 30  1  0
 25 31  2  0
 31 32  1  0
 31 33  1  0
 33 34  1  0
 33 35  2  0
 35 36  1  0
 36 37  1  0
 37 38  1  0
 37 39  1  0
 37 40  1  0
 14 41  2  0
 41 42  1  0
 41 43  1  0
 43 44  1  0
 44 45  1  0
 44 46  1  0
 43 47  2  0
 47 48  1  0
 48 49  3  0
 47 12  1  0
 35 22  1  0
M  END
>  <score>  (102) 
6.95087

$$$$

     RDKit          3D

 46 48  0  0  0  0  0  0  0  0999 V2000
    0.4215  142.2312   50.9987 H   0  0  0  0  0  0  0  0  0  0  0  0
    1.1320  142.2169   51.8177 C   0  0  0  0  0  0  0  0  0  0  0  0
    1.3746  143.2409   52.6883 O   0  0  0  0  0  0  0  0  0  0  0  0
    2.3592  142.8245   53.5720 C   0  0  0  0  0  0  0  0  0  0  0  0
    2.9216  143.6881   54.6508 C   0  0  0  0  0  0  0  0  0  0  0  0
    3.0674  144.9901   54.3668 N   0  0  0  0  0  0  0  0  0  0  0  0
    3.5591  145.8158   55.2636 C   0  0  0  0  0  0  0  0  0  0  0  0
    3.7220  147.0081   54.6653 N   0  0  0  0  0  0  0  0  0  0  0  0
    3.5245  146.9618   53.6788 H   0  0  0  0  0  0  0  0  0  0  0  0
    3.7553  148.2253   55.2759 C   0  0  0  0  0  0  0  0  0  0  0  0
    3.8546  148.2893   56.4907 O   0  0  0  0  0  0  0  0  0  0  0  0
    3.7297  149.4812   54.3980 C   0  0  0  0  0  0  0  0  0  0  0  0
    4.0003  150.3599   54.9685 H   0  0  0  0  0  0  0  0  0  0  0  0
    4.4191  149.3595   53.5591 H   0  0  0  0  0  0  0  0  0  0  0  0
    2.3833  149.7910   53.8566 C   0  0  0  0  0  0  0  0  0  0  0  0
    1.5975  150.6936   54.5733 C   0  0  0  0  0  0  0  0  0  0  0  0
    1.9907  151.1468   55.4741 H   0  0  0  0  0  0  0  0  0  0  0  0
    0.3338  151.0600   54.1324 C   0  0  0  0  0  0  0  0  0  0  0  0
   -0.3801  151.9761   54.8617 O   0  0  0  0  0  0  0  0  0  0  0  0
   -1.4274  151.4046   55.6494 C   0  0  0  0  0  0  0  0  0  0  0  0
   -1.9442  152.2006   56.1938 H   0  0  0  0  0  0  0  0  0  0  0  0
   -2.1530  150.8755   55.0244 H   0  0  0  0  0  0  0  0  0  0  0  0
   -1.0149  150.7038   56.3759 H   0  0  0  0  0  0  0  0  0  0  0  0
   -0.1437  150.5014   52.9350 C   0  0  0  0  0  0  0  0  0  0  0  0
   -1.8700  150.9835   52.2749 Br  0  0  0  0  0  0  0  0  0  0  0  0
    0.6602  149.6067   52.1960 C   0  0  0  0  0  0  0  0  0  0  0  0
    0.3061  149.2015   51.2526 H   0  0  0  0  0  0  0  0  0  0  0  0
    1.9362  149.2411   52.6499 C   0  0  0  0  0  0  0  0  0  0  0  0
    2.7756  148.4027   51.9502 O   0  0  0  0  0  0  0  0  0  0  0  0
    2.1655  147.2958   51.2820 C   0  0  0  0  0  0  0  0  0  0  0  0
    2.9497  146.5966   50.9724 H   0  0  0  0  0  0  0  0  0  0  0  0
    1.4758  146.7685   51.9498 H   0  0  0  0  0  0  0  0  0  0  0  0
    1.6234  147.6349   50.3950 H   0  0  0  0  0  0  0  0  0  0  0  0
    3.9116  145.4438   56.5320 C   0  0  0  0  0  0  0  0  0  0  0  0
    4.3256  146.1386   57.2523 H   0  0  0  0  0  0  0  0  0  0  0  0
    3.7729  144.1149   56.8227 C   0  0  0  0  0  0  0  0  0  0  0  0
    4.1585  143.7229   58.0491 N   0  0  0  0  0  0  0  0  0  0  0  0
    4.0701  142.7454   58.3170 H   0  0  0  0  0  0  0  0  0  0  0  0
    4.5072  144.4260   58.6953 H   0  0  0  0  0  0  0  0  0  0  0  0
    3.2955  143.2028   55.9051 C   0  0  0  0  0  0  0  0  0  0  0  0
    3.1637  141.8226   56.2384 C   0  0  0  0  0  0  0  0  0  0  0  0
    3.0401  140.6867   56.4605 N   0  0  0  0  0  0  0  0  0  0  0  0
    2.7258  141.5326   53.2695 C   0  0  0  0  0  0  0  0  0  0  0  0
    3.4741  140.9214   53.7725 H   0  0  0  0  0  0  0  0  0  0  0  0
    1.9347  141.1664   52.1251 C   0  0  0  0  0  0  0  0  0  0  0  0
    1.9609  140.2425   51.5834 H   0  0  0  0  0  0  0  0  0  0  0  0
  1  2  1  0
  2  3  1  0
  3  4  1  0
  4  5  1  0
  5  6  2  0
  6  7  1  0
  7  8  1  0
  8  9  1  0
  8 10  1  0
 10 11  2  0
 10 12  1  0
 12 13  1  0
 12 14  1  0
 12 15  1  0
 15 16  2  0
 16 17  1  0
 16 18  1  0
 18 19  1  0
 19 20  1  0
 20 21  1  0
 20 22  1  0
 20 23  1  0
 18 24  2  0
 24 25  1  0
 24 26  1  0
 26 27  1  0
 26 28  2  0
 28 29  1  0
 29 30  1  0
 30 31  1  0
 30 32  1  0
 30 33  1  0
  7 34  2  0
 34 35  1  0
 34 36  1  0
 36 37  1  0
 37 38  1  0
 37 39  1  0
 36 40  2  0
 40 41  1  0
 41 42  3  0
  4 43  2  0
 43 44  1  0
 43 45  1  0
 45 46  1  0
 45  2  2  0
 40  5  1  0
 28 15  1  0
M  END
>  <score>  (103) 
6.95408

$$$$

     RDKit          3D

 51 53  0  0  0  0  0  0  0  0999 V2000
    3.5037  142.5960   49.6298 H   0  0  0  0  0  0  0  0  0  0  0  0
    2.9480  142.4793   50.5616 C   0  0  0  0  0  0  0  0  0  0  0  0
    3.4191  143.0952   51.7319 C   0  0  0  0  0  0  0  0  0  0  0  0
    4.3317  143.6844   51.7050 H   0  0  0  0  0  0  0  0  0  0  0  0
    2.7379  142.9673   52.9622 C   0  0  0  0  0  0  0  0  0  0  0  0
    3.1614  143.7425   54.1579 C   0  0  0  0  0  0  0  0  0  0  0  0
    3.3716  145.0377   53.9097 N   0  0  0  0  0  0  0  0  0  0  0  0
    3.6668  145.8356   54.8977 C   0  0  0  0  0  0  0  0  0  0  0  0
    3.7393  147.0884   54.4312 N   0  0  0  0  0  0  0  0  0  0  0  0
    3.5527  147.1822   53.4470 H   0  0  0  0  0  0  0  0  0  0  0  0
    3.6870  148.2018   55.2084 C   0  0  0  0  0  0  0  0  0  0  0  0
    3.7706  148.1241   56.4193 O   0  0  0  0  0  0  0  0  0  0  0  0
    3.6450  149.5480   54.5163 C   0  0  0  0  0  0  0  0  0  0  0  0
    4.4316  149.5776   53.7622 H   0  0  0  0  0  0  0  0  0  0  0  0
    3.8304  150.3344   55.2474 H   0  0  0  0  0  0  0  0  0  0  0  0
    2.3098  149.8193   53.8865 C   0  0  0  0  0  0  0  0  0  0  0  0
    1.4798  150.7177   54.5571 C   0  0  0  0  0  0  0  0  0  0  0  0
    1.8066  151.1604   55.4935 H   0  0  0  0  0  0  0  0  0  0  0  0
    0.2397  151.0724   54.0352 C   0  0  0  0  0  0  0  0  0  0  0  0
   -0.5119  151.9978   54.7056 O   0  0  0  0  0  0  0  0  0  0  0  0
   -1.5030  151.3985   55.5430 C   0  0  0  0  0  0  0  0  0  0  0  0
   -2.2637  150.9010   54.9367 H   0  0  0  0  0  0  0  0  0  0  0  0
   -1.9907  152.1648   56.1516 H   0  0  0  0  0  0  0  0  0  0  0  0
   -1.0515  150.6622   56.2122 H   0  0  0  0  0  0  0  0  0  0  0  0
   -0.2124  150.4668   52.8505 C   0  0  0  0  0  0  0  0  0  0  0  0
   -1.9481  150.8769   52.1509 Br  0  0  0  0  0  0  0  0  0  0  0  0
    0.6060  149.5446   52.1803 C   0  0  0  0  0  0  0  0  0  0  0  0
    0.2496  149.0774   51.2652 H   0  0  0  0  0  0  0  0  0  0  0  0
    1.8808  149.2195   52.6810 C   0  0  0  0  0  0  0  0  0  0  0  0
    2.7125  148.3331   52.0319 O   0  0  0  0  0  0  0  0  0  0  0  0
    2.0759  147.3051   51.2525 C   0  0  0  0  0  0  0  0  0  0  0  0
    1.3671  146.7496   51.8711 H   0  0  0  0  0  0  0  0  0  0  0  0
    2.8228  146.5976   50.8764 H   0  0  0  0  0  0  0  0  0  0  0  0
    1.5380  147.7211   50.3954 H   0  0  0  0  0  0  0  0  0  0  0  0
    3.8237  145.4365   56.1871 C   0  0  0  0  0  0  0  0  0  0  0  0
    4.1193  146.1395   56.9442 H   0  0  0  0  0  0  0  0  0  0  0  0
    3.6237  144.1207   56.4565 C   0  0  0  0  0  0  0  0  0  0  0  0
    3.7905  143.7541   57.7408 N   0  0  0  0  0  0  0  0  0  0  0  0
    4.2793  144.4317   58.3240 H   0  0  0  0  0  0  0  0  0  0  0  0
    3.9667  142.7658   57.8917 H   0  0  0  0  0  0  0  0  0  0  0  0
    3.2736  143.2311   55.4587 C   0  0  0  0  0  0  0  0  0  0  0  0
    3.0816  141.8497   55.7635 C   0  0  0  0  0  0  0  0  0  0  0  0
    2.9827  140.7248   56.0468 N   0  0  0  0  0  0  0  0  0  0  0  0
    1.5344  142.2549   52.9513 C   0  0  0  0  0  0  0  0  0  0  0  0
    0.9328  142.2158   53.8406 H   0  0  0  0  0  0  0  0  0  0  0  0
    1.0667  141.6137   51.8182 C   0  0  0  0  0  0  0  0  0  0  0  0
   -0.0893  140.8670   51.9013 N   0  0  0  0  0  0  0  0  0  0  0  0
   -0.4043  140.5627   52.8251 H   0  0  0  0  0  0  0  0  0  0  0  0
   -0.3679  140.3455   51.0802 H   0  0  0  0  0  0  0  0  0  0  0  0
    1.7700  141.7119   50.6212 C   0  0  0  0  0  0  0  0  0  0  0  0
    1.3953  141.1840   49.7534 H   0  0  0  0  0  0  0  0  0  0  0  0
  1  2  1  0
  2  3  2  0
  3  4  1  0
  3  5  1  0
  5  6  1  0
  6  7  2  0
  7  8  1  0
  8  9  1  0
  9 10  1  0
  9 11  1  0
 11 12  2  0
 11 13  1  0
 13 14  1  0
 13 15  1  0
 13 16  1  0
 16 17  2  0
 17 18  1  0
 17 19  1  0
 19 20  1  0
 20 21  1  0
 21 22  1  0
 21 23  1  0
 21 24  1  0
 19 25  2  0
 25 26  1  0
 25 27  1  0
 27 28  1  0
 27 29  2  0
 29 30  1  0
 30 31  1  0
 31 32  1  0
 31 33  1  0
 31 34  1  0
  8 35  2  0
 35 36  1  0
 35 37  1  0
 37 38  1  0
 38 39  1  0
 38 40  1  0
 37 41  2  0
 41 42  1  0
 42 43  3  0
  5 44  2  0
 44 45  1  0
 44 46  1  0
 46 47  1  0
 47 48  1  0
 47 49  1  0
 46 50  2  0
 50 51  1  0
 50  2  1  0
 41  6  1  0
 29 16  1  0
M  END
>  <score>  (104) 
6.95417

$$$$

     RDKit          3D

 54 55  0  0  0  0  0  0  0  0999 V2000
    0.3051  149.1984   51.2476 H   0  0  0  0  0  0  0  0  0  0  0  0
    0.6570  149.6018   52.1935 C   0  0  0  0  0  0  0  0  0  0  0  0
   -0.1471  150.4970   52.9330 C   0  0  0  0  0  0  0  0  0  0  0  0
   -1.8742  150.9856   52.2778 Br  0  0  0  0  0  0  0  0  0  0  0  0
    0.3320  151.0568   54.1300 C   0  0  0  0  0  0  0  0  0  0  0  0
   -0.3794  151.9758   54.8578 O   0  0  0  0  0  0  0  0  0  0  0  0
   -1.4255  151.4034   55.6447 C   0  0  0  0  0  0  0  0  0  0  0  0
   -1.9390  152.2018   56.1876 H   0  0  0  0  0  0  0  0  0  0  0  0
   -1.0127  150.7014   56.3701 H   0  0  0  0  0  0  0  0  0  0  0  0
   -2.1512  150.8759   55.0182 H   0  0  0  0  0  0  0  0  0  0  0  0
    1.5931  150.6864   54.5740 C   0  0  0  0  0  0  0  0  0  0  0  0
    1.9870  151.1441   55.4709 H   0  0  0  0  0  0  0  0  0  0  0  0
    2.3765  149.7804   53.8619 C   0  0  0  0  0  0  0  0  0  0  0  0
    3.7204  149.4645   54.4043 C   0  0  0  0  0  0  0  0  0  0  0  0
    4.4072  149.3597   53.5624 H   0  0  0  0  0  0  0  0  0  0  0  0
    3.9926  150.3344   54.9886 H   0  0  0  0  0  0  0  0  0  0  0  0
    3.7458  148.1893   55.2563 C   0  0  0  0  0  0  0  0  0  0  0  0
    3.8460  148.2389   56.4731 O   0  0  0  0  0  0  0  0  0  0  0  0
    3.7103  146.9768   54.6237 N   0  0  0  0  0  0  0  0  0  0  0  0
    3.5005  146.9261   53.6409 H   0  0  0  0  0  0  0  0  0  0  0  0
    3.5489  145.7838   55.2068 C   0  0  0  0  0  0  0  0  0  0  0  0
    3.0628  144.9560   54.3058 N   0  0  0  0  0  0  0  0  0  0  0  0
    2.9004  143.6809   54.6582 C   0  0  0  0  0  0  0  0  0  0  0  0
    2.3453  142.7741   53.7894 O   0  0  0  0  0  0  0  0  0  0  0  0
    2.1447  143.1047   52.3940 C   0  0  0  0  0  0  0  0  0  0  0  0
    1.6389  144.0706   52.2797 H   0  0  0  0  0  0  0  0  0  0  0  0
    1.4845  142.3333   51.9883 H   0  0  0  0  0  0  0  0  0  0  0  0
    3.4436  143.0846   51.5648 C   0  0  0  0  0  0  0  0  0  0  0  0
    3.9783  144.0249   51.7408 H   0  0  0  0  0  0  0  0  0  0  0  0
    4.0628  142.2602   51.9385 H   0  0  0  0  0  0  0  0  0  0  0  0
    3.2245  142.8939   50.1033 N   0  0  0  0  0  0  0  0  0  0  0  0
    2.6634  144.0580   49.3934 C   0  0  0  0  0  0  0  0  0  0  0  0
    1.7537  144.4134   49.8849 H   0  0  0  0  0  0  0  0  0  0  0  0
    2.4172  143.7984   48.3590 H   0  0  0  0  0  0  0  0  0  0  0  0
    3.3927  144.8735   49.3745 H   0  0  0  0  0  0  0  0  0  0  0  0
    4.4018  142.3276   49.4172 C   0  0  0  0  0  0  0  0  0  0  0  0
    4.2022  142.1585   48.3564 H   0  0  0  0  0  0  0  0  0  0  0  0
    4.6967  141.3770   49.8678 H   0  0  0  0  0  0  0  0  0  0  0  0
    5.2420  143.0140   49.4981 H   0  0  0  0  0  0  0  0  0  0  0  0
    3.2590  143.2172   55.9032 C   0  0  0  0  0  0  0  0  0  0  0  0
    3.1386  141.8379   56.2351 C   0  0  0  0  0  0  0  0  0  0  0  0
    3.0378  140.6995   56.4476 N   0  0  0  0  0  0  0  0  0  0  0  0
    3.7471  144.1232   56.7916 C   0  0  0  0  0  0  0  0  0  0  0  0
    4.1463  143.7329   58.0055 N   0  0  0  0  0  0  0  0  0  0  0  0
    4.4917  144.4380   58.6498 H   0  0  0  0  0  0  0  0  0  0  0  0
    4.0536  142.7557   58.2700 H   0  0  0  0  0  0  0  0  0  0  0  0
    3.8891  145.4346   56.4828 C   0  0  0  0  0  0  0  0  0  0  0  0
    4.3011  146.1262   57.2039 H   0  0  0  0  0  0  0  0  0  0  0  0
    1.9325  149.2351   52.6517 C   0  0  0  0  0  0  0  0  0  0  0  0
    2.7748  148.4018   51.9491 O   0  0  0  0  0  0  0  0  0  0  0  0
    2.1649  147.2957   51.2819 C   0  0  0  0  0  0  0  0  0  0  0  0
    1.4582  146.7840   51.9446 H   0  0  0  0  0  0  0  0  0  0  0  0
    2.9477  146.5863   50.9923 H   0  0  0  0  0  0  0  0  0  0  0  0
    1.6418  147.6358   50.3837 H   0  0  0  0  0  0  0  0  0  0  0  0
  1  2  1  0
  2  3  2  0
  3  4  1  0
  3  5  1  0
  5  6  1  0
  6  7  1  0
  7  8  1  0
  7  9  1  0
  7 10  1  0
  5 11  2  0
 11 12  1  0
 11 13  1  0
 13 14  1  0
 14 15  1  0
 14 16  1  0
 14 17  1  0
 17 18  2  0
 17 19  1  0
 19 20  1  0
 19 21  1  0
 21 22  2  0
 22 23  1  0
 23 24  1  0
 24 25  1  0
 25 26  1  0
 25 27  1  0
 25 28  1  0
 28 29  1  0
 28 30  1  0
 28 31  1  0
 31 32  1  0
 32 33  1  0
 32 34  1  0
 32 35  1  0
 31 36  1  0
 36 37  1  0
 36 38  1  0
 36 39  1  0
 23 40  2  0
 40 41  1  0
 41 42  3  0
 40 43  1  0
 43 44  1  0
 44 45  1  0
 44 46  1  0
 43 47  2  0
 47 48  1  0
 13 49  2  0
 49 50  1  0
 50 51  1  0
 51 52  1  0
 51 53  1  0
 51 54  1  0
 49  2  1  0
 47 21  1  0
M  END
>  <score>  (105) 
6.95797

$$$$

     RDKit          3D

 57 59  0  0  0  0  0  0  0  0999 V2000
    7.1053  137.9384   49.6820 H   0  0  0  0  0  0  0  0  0  0  0  0
    6.3646  138.5938   50.1270 C   0  0  0  0  0  0  0  0  0  0  0  0
    5.9723  139.7548   49.4571 C   0  0  0  0  0  0  0  0  0  0  0  0
    6.3921  139.9896   48.4856 H   0  0  0  0  0  0  0  0  0  0  0  0
    5.0285  140.6084   50.0289 C   0  0  0  0  0  0  0  0  0  0  0  0
    4.7491  141.5238   49.5155 H   0  0  0  0  0  0  0  0  0  0  0  0
    4.4306  140.2853   51.2541 C   0  0  0  0  0  0  0  0  0  0  0  0
    3.3162  141.1466   51.7726 C   0  0  0  0  0  0  0  0  0  0  0  0
    2.4769  140.5010   52.0479 H   0  0  0  0  0  0  0  0  0  0  0  0
    2.9882  141.8052   50.9566 H   0  0  0  0  0  0  0  0  0  0  0  0
    3.7279  141.9532   52.9351 N   0  0  0  0  0  0  0  0  0  0  0  0
    4.5582  142.5068   52.6942 H   0  0  0  0  0  0  0  0  0  0  0  0
    2.6386  142.8009   53.5179 C   0  0  0  0  0  0  0  0  0  0  0  0
    1.8788  142.1415   53.9480 H   0  0  0  0  0  0  0  0  0  0  0  0
    2.1549  143.3724   52.7153 H   0  0  0  0  0  0  0  0  0  0  0  0
    3.0376  143.8021   54.6069 C   0  0  0  0  0  0  0  0  0  0  0  0
    3.1064  145.0983   54.2610 N   0  0  0  0  0  0  0  0  0  0  0  0
    3.5030  145.9752   55.1521 C   0  0  0  0  0  0  0  0  0  0  0  0
    3.5667  147.2039   54.6115 N   0  0  0  0  0  0  0  0  0  0  0  0
    3.3443  147.2628   53.6294 H   0  0  0  0  0  0  0  0  0  0  0  0
    3.5957  148.3472   55.3400 C   0  0  0  0  0  0  0  0  0  0  0  0
    3.7068  148.3055   56.5504 O   0  0  0  0  0  0  0  0  0  0  0  0
    3.5187  149.6835   54.6407 C   0  0  0  0  0  0  0  0  0  0  0  0
    4.3431  149.7730   53.9371 H   0  0  0  0  0  0  0  0  0  0  0  0
    3.6446  150.4603   55.3973 H   0  0  0  0  0  0  0  0  0  0  0  0
    2.2030  149.8772   53.9270 C   0  0  0  0  0  0  0  0  0  0  0  0
    1.3297  150.8234   54.4720 C   0  0  0  0  0  0  0  0  0  0  0  0
    1.6085  151.3754   55.3601 H   0  0  0  0  0  0  0  0  0  0  0  0
    0.0813  151.0817   53.9126 C   0  0  0  0  0  0  0  0  0  0  0  0
   -0.7448  151.9871   54.5239 O   0  0  0  0  0  0  0  0  0  0  0  0
   -1.6678  151.3697   55.4321 C   0  0  0  0  0  0  0  0  0  0  0  0
   -1.1712  150.5973   56.0283 H   0  0  0  0  0  0  0  0  0  0  0  0
   -2.0889  152.1176   56.1146 H   0  0  0  0  0  0  0  0  0  0  0  0
   -2.4910  150.9049   54.8809 H   0  0  0  0  0  0  0  0  0  0  0  0
   -0.3016  150.4000   52.7532 C   0  0  0  0  0  0  0  0  0  0  0  0
   -2.0018  150.7236   51.9370 Br  0  0  0  0  0  0  0  0  0  0  0  0
    0.5708  149.4661   52.1905 C   0  0  0  0  0  0  0  0  0  0  0  0
    0.2819  148.9464   51.2865 H   0  0  0  0  0  0  0  0  0  0  0  0
    1.8162  149.1657   52.7655 C   0  0  0  0  0  0  0  0  0  0  0  0
    2.6196  148.1901   52.2089 O   0  0  0  0  0  0  0  0  0  0  0  0
    1.9743  147.3288   51.2423 C   0  0  0  0  0  0  0  0  0  0  0  0
    1.4975  147.9196   50.4536 H   0  0  0  0  0  0  0  0  0  0  0  0
    2.6937  146.6562   50.7653 H   0  0  0  0  0  0  0  0  0  0  0  0
    1.2035  146.7150   51.7227 H   0  0  0  0  0  0  0  0  0  0  0  0
    3.8282  145.6524   56.4354 C   0  0  0  0  0  0  0  0  0  0  0  0
    4.1978  146.3776   57.1382 H   0  0  0  0  0  0  0  0  0  0  0  0
    3.6893  144.3612   56.8086 C   0  0  0  0  0  0  0  0  0  0  0  0
    3.9778  144.1257   58.0965 N   0  0  0  0  0  0  0  0  0  0  0  0
    4.2414  143.1732   58.3368 H   0  0  0  0  0  0  0  0  0  0  0  0
    4.4237  144.9120   58.5704 H   0  0  0  0  0  0  0  0  0  0  0  0
    3.3025  143.3948   55.9149 C   0  0  0  0  0  0  0  0  0  0  0  0
    3.2029  142.0257   56.3090 C   0  0  0  0  0  0  0  0  0  0  0  0
    3.1262  140.9057   56.6057 N   0  0  0  0  0  0  0  0  0  0  0  0
    4.8300  139.1139   51.9198 C   0  0  0  0  0  0  0  0  0  0  0  0
    4.3658  138.8363   52.8595 H   0  0  0  0  0  0  0  0  0  0  0  0
    5.8022  138.2771   51.3631 C   0  0  0  0  0  0  0  0  0  0  0  0
    6.0758  137.3476   51.8568 H   0  0  0  0  0  0  0  0  0  0  0  0
  1  2  1  0
  2  3  2  0
  3  4  1  0
  3  5  1  0
  5  6  1  0
  5  7  2  0
  7  8  1  0
  8  9  1  0
  8 10  1  0
  8 11  1  0
 11 12  1  0
 11 13  1  0
 13 14  1  0
 13 15  1  0
 13 16  1  0
 16 17  2  0
 17 18  1  0
 18 19  1  0
 19 20  1  0
 19 21  1  0
 21 22  2  0
 21 23  1  0
 23 24  1  0
 23 25  1  0
 23 26  1  0
 26 27  2  0
 27 28  1  0
 27 29  1  0
 29 30  1  0
 30 31  1  0
 31 32  1  0
 31 33  1  0
 31 34  1  0
 29 35  2  0
 35 36  1  0
 35 37  1  0
 37 38  1  0
 37 39  2  0
 39 40  1  0
 40 41  1  0
 41 42  1  0
 41 43  1  0
 41 44  1  0
 18 45  2  0
 45 46  1  0
 45 47  1  0
 47 48  1  0
 48 49  1  0
 48 50  1  0
 47 51  2  0
 51 52  1  0
 52 53  3  0
  7 54  1  0
 54 55  1  0
 54 56  2  0
 56 57  1  0
 56  2  1  0
 51 16  1  0
 39 26  1  0
M  END
>  <score>  (106) 
6.96043

$$$$

     RDKit          3D

 41 42  0  0  0  0  0  0  0  0999 V2000
    0.3084  149.2071   51.2593 H   0  0  0  0  0  0  0  0  0  0  0  0
    0.6636  149.6138   52.1987 C   0  0  0  0  0  0  0  0  0  0  0  0
   -0.1389  150.5055   52.9380 C   0  0  0  0  0  0  0  0  0  0  0  0
   -1.8632  150.9818   52.2735 Br  0  0  0  0  0  0  0  0  0  0  0  0
    0.3376  151.0627   54.1343 C   0  0  0  0  0  0  0  0  0  0  0  0
   -0.3783  151.9766   54.8651 O   0  0  0  0  0  0  0  0  0  0  0  0
   -1.4289  151.4057   55.6545 C   0  0  0  0  0  0  0  0  0  0  0  0
   -1.9491  152.2001   56.2004 H   0  0  0  0  0  0  0  0  0  0  0  0
   -2.1560  150.8743   55.0310 H   0  0  0  0  0  0  0  0  0  0  0  0
   -1.0172  150.7063   56.3832 H   0  0  0  0  0  0  0  0  0  0  0  0
    1.6045  150.6955   54.5714 C   0  0  0  0  0  0  0  0  0  0  0  0
    1.9952  151.1477   55.4760 H   0  0  0  0  0  0  0  0  0  0  0  0
    2.3886  149.7872   53.8540 C   0  0  0  0  0  0  0  0  0  0  0  0
    3.7347  149.4688   54.3915 C   0  0  0  0  0  0  0  0  0  0  0  0
    4.0027  150.3459   54.9606 H   0  0  0  0  0  0  0  0  0  0  0  0
    4.4257  149.3437   53.5574 H   0  0  0  0  0  0  0  0  0  0  0  0
    3.7490  148.2145   55.2718 C   0  0  0  0  0  0  0  0  0  0  0  0
    3.8548  148.2670   56.4832 O   0  0  0  0  0  0  0  0  0  0  0  0
    3.7006  147.0000   54.6553 N   0  0  0  0  0  0  0  0  0  0  0  0
    3.5374  146.9573   53.6640 H   0  0  0  0  0  0  0  0  0  0  0  0
    3.5460  145.8004   55.2406 C   0  0  0  0  0  0  0  0  0  0  0  0
    3.0644  144.9940   54.3418 N   0  0  0  0  0  0  0  0  0  0  0  0
    2.9227  143.7211   54.6825 C   0  0  0  0  0  0  0  0  0  0  0  0
    2.4030  142.9554   53.6961 N   0  0  0  0  0  0  0  0  0  0  0  0
    2.0342  143.1508   52.5862 C   0  0  0  0  0  0  0  0  0  0  0  0
    1.5438  143.4490   51.1208 S   0  0  0  0  0  0  0  0  0  0  0  0
    3.2622  143.2017   55.9070 C   0  0  0  0  0  0  0  0  0  0  0  0
    3.1262  141.8158   56.2074 C   0  0  0  0  0  0  0  0  0  0  0  0
    3.0268  140.6804   56.4426 N   0  0  0  0  0  0  0  0  0  0  0  0
    3.7508  144.0952   56.8094 C   0  0  0  0  0  0  0  0  0  0  0  0
    4.1480  143.7087   58.0279 N   0  0  0  0  0  0  0  0  0  0  0  0
    4.4983  144.4240   58.6593 H   0  0  0  0  0  0  0  0  0  0  0  0
    4.0604  142.7312   58.3028 H   0  0  0  0  0  0  0  0  0  0  0  0
    3.8920  145.4162   56.5028 C   0  0  0  0  0  0  0  0  0  0  0  0
    4.3078  146.1127   57.2050 H   0  0  0  0  0  0  0  0  0  0  0  0
    1.9397  149.2440   52.6463 C   0  0  0  0  0  0  0  0  0  0  0  0
    2.7776  148.4011   51.9514 O   0  0  0  0  0  0  0  0  0  0  0  0
    2.1683  147.2930   51.2817 C   0  0  0  0  0  0  0  0  0  0  0  0
    2.9518  146.5926   50.9729 H   0  0  0  0  0  0  0  0  0  0  0  0
    1.6268  147.6292   50.3930 H   0  0  0  0  0  0  0  0  0  0  0  0
    1.4776  146.7642   51.9473 H   0  0  0  0  0  0  0  0  0  0  0  0
  1  2  1  0
  2  3  2  0
  3  4  1  0
  3  5  1  0
  5  6  1  0
  6  7  1  0
  7  8  1  0
  7  9  1  0
  7 10  1  0
  5 11  2  0
 11 12  1  0
 11 13  1  0
 13 14  1  0
 14 15  1  0
 14 16  1  0
 14 17  1  0
 17 18  2  0
 17 19  1  0
 19 20  1  0
 19 21  1  0
 21 22  2  0
 22 23  1  0
 23 24  1  0
 24 25  2  0
 25 26  2  0
 23 27  2  0
 27 28  1  0
 28 29  3  0
 27 30  1  0
 30 31  1  0
 31 32  1  0
 31 33  1  0
 30 34  2  0
 34 35  1  0
 13 36  2  0
 36 37  1  0
 37 38  1  0
 38 39  1  0
 38 40  1  0
 38 41  1  0
 36  2  1  0
 34 21  1  0
M  END
>  <score>  (107) 
6.96563

$$$$

     RDKit          3D

 53 55  0  0  0  0  0  0  0  0999 V2000
    1.0848  141.2556   49.9612 H   0  0  0  0  0  0  0  0  0  0  0  0
    1.4962  141.7227   50.8521 C   0  0  0  0  0  0  0  0  0  0  0  0
    0.8295  141.6310   52.0700 C   0  0  0  0  0  0  0  0  0  0  0  0
   -0.0937  141.0670   52.1266 H   0  0  0  0  0  0  0  0  0  0  0  0
    1.3915  142.2199   53.2171 C   0  0  0  0  0  0  0  0  0  0  0  0
    0.9504  142.1104   54.1803 H   0  0  0  0  0  0  0  0  0  0  0  0
    2.5637  142.9360   53.1827 C   0  0  0  0  0  0  0  0  0  0  0  0
    3.0710  143.7192   54.3173 C   0  0  0  0  0  0  0  0  0  0  0  0
    3.3093  144.9913   54.0092 N   0  0  0  0  0  0  0  0  0  0  0  0
    3.6886  145.8115   54.9535 C   0  0  0  0  0  0  0  0  0  0  0  0
    3.7765  147.0552   54.4482 N   0  0  0  0  0  0  0  0  0  0  0  0
    3.5152  147.1351   53.4742 H   0  0  0  0  0  0  0  0  0  0  0  0
    3.7109  148.1805   55.2084 C   0  0  0  0  0  0  0  0  0  0  0  0
    3.7783  148.1266   56.4253 O   0  0  0  0  0  0  0  0  0  0  0  0
    3.6457  149.5227   54.5051 C   0  0  0  0  0  0  0  0  0  0  0  0
    3.8415  150.3118   55.2287 H   0  0  0  0  0  0  0  0  0  0  0  0
    4.4233  149.5572   53.7425 H   0  0  0  0  0  0  0  0  0  0  0  0
    2.3055  149.7954   53.8832 C   0  0  0  0  0  0  0  0  0  0  0  0
    1.4853  150.6971   54.5577 C   0  0  0  0  0  0  0  0  0  0  0  0
    1.8158  151.1335   55.4960 H   0  0  0  0  0  0  0  0  0  0  0  0
    0.2486  151.0606   54.0401 C   0  0  0  0  0  0  0  0  0  0  0  0
   -0.4819  151.9952   54.7159 O   0  0  0  0  0  0  0  0  0  0  0  0
   -1.4817  151.4014   55.5424 C   0  0  0  0  0  0  0  0  0  0  0  0
   -2.2337  150.9012   54.9265 H   0  0  0  0  0  0  0  0  0  0  0  0
   -1.0317  150.6652   56.2133 H   0  0  0  0  0  0  0  0  0  0  0  0
   -1.9739  152.1715   56.1446 H   0  0  0  0  0  0  0  0  0  0  0  0
   -0.2150  150.4631   52.8581 C   0  0  0  0  0  0  0  0  0  0  0  0
   -1.9518  150.8913   52.1761 Br  0  0  0  0  0  0  0  0  0  0  0  0
    0.5991  149.5436   52.1809 C   0  0  0  0  0  0  0  0  0  0  0  0
    0.2402  149.0915   51.2623 H   0  0  0  0  0  0  0  0  0  0  0  0
    1.8769  149.2133   52.6724 C   0  0  0  0  0  0  0  0  0  0  0  0
    2.7206  148.3506   52.0107 O   0  0  0  0  0  0  0  0  0  0  0  0
    2.0854  147.3077   51.2585 C   0  0  0  0  0  0  0  0  0  0  0  0
    1.5444  147.7110   50.3975 H   0  0  0  0  0  0  0  0  0  0  0  0
    2.8392  146.6022   50.8962 H   0  0  0  0  0  0  0  0  0  0  0  0
    1.3800  146.7591   51.8892 H   0  0  0  0  0  0  0  0  0  0  0  0
    3.8780  145.4558   56.2615 C   0  0  0  0  0  0  0  0  0  0  0  0
    4.1894  146.1791   57.0047 H   0  0  0  0  0  0  0  0  0  0  0  0
    3.6545  144.1476   56.5732 C   0  0  0  0  0  0  0  0  0  0  0  0
    3.8571  143.7880   57.8561 N   0  0  0  0  0  0  0  0  0  0  0  0
    4.3577  144.4677   58.4285 H   0  0  0  0  0  0  0  0  0  0  0  0
    4.0379  142.8006   58.0078 H   0  0  0  0  0  0  0  0  0  0  0  0
    3.2568  143.2397   55.6088 C   0  0  0  0  0  0  0  0  0  0  0  0
    3.0928  141.8586   55.9184 C   0  0  0  0  0  0  0  0  0  0  0  0
    3.0050  140.7214   56.1474 N   0  0  0  0  0  0  0  0  0  0  0  0
    3.1978  143.0379   51.9674 C   0  0  0  0  0  0  0  0  0  0  0  0
    4.3001  143.8035   51.9908 O   0  0  0  0  0  0  0  0  0  0  0  0
    4.7840  144.1257   50.7267 C   0  0  0  0  0  0  0  0  0  0  0  0
    3.9973  144.2785   49.9809 H   0  0  0  0  0  0  0  0  0  0  0  0
    5.4348  143.2975   50.4004 H   0  0  0  0  0  0  0  0  0  0  0  0
    5.3283  145.0682   50.8457 H   0  0  0  0  0  0  0  0  0  0  0  0
    2.7071  142.4102   50.8121 C   0  0  0  0  0  0  0  0  0  0  0  0
    3.2639  142.5010   49.8851 H   0  0  0  0  0  0  0  0  0  0  0  0
  1  2  1  0
  2  3  2  0
  3  4  1  0
  3  5  1  0
  5  6  1  0
  5  7  2  0
  7  8  1  0
  8  9  2  0
  9 10  1  0
 10 11  1  0
 11 12  1  0
 11 13  1  0
 13 14  2  0
 13 15  1  0
 15 16  1  0
 15 17  1  0
 15 18  1  0
 18 19  2  0
 19 20  1  0
 19 21  1  0
 21 22  1  0
 22 23  1  0
 23 24  1  0
 23 25  1  0
 23 26  1  0
 21 27  2  0
 27 28  1  0
 27 29  1  0
 29 30  1  0
 29 31  2  0
 31 32  1  0
 32 33  1  0
 33 34  1  0
 33 35  1  0
 33 36  1  0
 10 37  2  0
 37 38  1  0
 37 39  1  0
 39 40  1  0
 40 41  1  0
 40 42  1  0
 39 43  2  0
 43 44  1  0
 44 45  3  0
  7 46  1  0
 46 47  1  0
 47 48  1  0
 48 49  1  0
 48 50  1  0
 48 51  1  0
 46 52  2  0
 52 53  1  0
 52  2  1  0
 43  8  1  0
 31 18  1  0
M  END
>  <score>  (108) 
6.96763

$$$$

     RDKit          3D

 48 49  0  0  0  0  0  0  0  0999 V2000
    0.3087  149.2032   51.2543 H   0  0  0  0  0  0  0  0  0  0  0  0
    0.6600  149.6079   52.1972 C   0  0  0  0  0  0  0  0  0  0  0  0
   -0.1436  150.5008   52.9361 C   0  0  0  0  0  0  0  0  0  0  0  0
   -1.8687  150.9845   52.2770 Br  0  0  0  0  0  0  0  0  0  0  0  0
    0.3350  151.0583   54.1326 C   0  0  0  0  0  0  0  0  0  0  0  0
   -0.3784  151.9761   54.8601 O   0  0  0  0  0  0  0  0  0  0  0  0
   -1.4261  151.4040   55.6482 C   0  0  0  0  0  0  0  0  0  0  0  0
   -2.1533  150.8747   55.0233 H   0  0  0  0  0  0  0  0  0  0  0  0
   -1.9422  152.2014   56.1924 H   0  0  0  0  0  0  0  0  0  0  0  0
   -1.0136  150.7030   56.3756 H   0  0  0  0  0  0  0  0  0  0  0  0
    1.5980  150.6889   54.5742 C   0  0  0  0  0  0  0  0  0  0  0  0
    1.9930  151.1420   55.4742 H   0  0  0  0  0  0  0  0  0  0  0  0
    2.3818  149.7838   53.8576 C   0  0  0  0  0  0  0  0  0  0  0  0
    3.7273  149.4755   54.3997 C   0  0  0  0  0  0  0  0  0  0  0  0
    3.9961  150.3531   54.9741 H   0  0  0  0  0  0  0  0  0  0  0  0
    4.4151  149.3567   53.5598 H   0  0  0  0  0  0  0  0  0  0  0  0
    3.7471  148.2156   55.2682 C   0  0  0  0  0  0  0  0  0  0  0  0
    3.8505  148.2741   56.4846 O   0  0  0  0  0  0  0  0  0  0  0  0
    3.7109  147.0008   54.6486 N   0  0  0  0  0  0  0  0  0  0  0  0
    3.5246  146.9631   53.6581 H   0  0  0  0  0  0  0  0  0  0  0  0
    3.5448  145.8030   55.2342 C   0  0  0  0  0  0  0  0  0  0  0  0
    3.0628  144.9764   54.3304 N   0  0  0  0  0  0  0  0  0  0  0  0
    2.9282  143.6895   54.6454 C   0  0  0  0  0  0  0  0  0  0  0  0
    2.3905  142.7837   53.5715 C   0  0  0  0  0  0  0  0  0  0  0  0
    1.7759  143.3778   52.8879 H   0  0  0  0  0  0  0  0  0  0  0  0
    1.7516  142.0493   54.0586 H   0  0  0  0  0  0  0  0  0  0  0  0
    3.5105  142.0833   52.7794 C   0  0  0  0  0  0  0  0  0  0  0  0
    4.1502  142.8415   52.3097 H   0  0  0  0  0  0  0  0  0  0  0  0
    4.1238  141.4879   53.4668 H   0  0  0  0  0  0  0  0  0  0  0  0
    2.9567  141.1633   51.6874 C   0  0  0  0  0  0  0  0  0  0  0  0
    2.3355  140.3767   52.1269 H   0  0  0  0  0  0  0  0  0  0  0  0
    3.7872  140.6932   51.1487 H   0  0  0  0  0  0  0  0  0  0  0  0
    2.3546  141.7271   50.9664 H   0  0  0  0  0  0  0  0  0  0  0  0
    3.2653  143.2090   55.9024 C   0  0  0  0  0  0  0  0  0  0  0  0
    3.1400  141.8241   56.2272 C   0  0  0  0  0  0  0  0  0  0  0  0
    3.0380  140.6879   56.4503 N   0  0  0  0  0  0  0  0  0  0  0  0
    3.7474  144.1147   56.8129 C   0  0  0  0  0  0  0  0  0  0  0  0
    4.1492  143.7222   58.0320 N   0  0  0  0  0  0  0  0  0  0  0  0
    4.0625  142.7438   58.2991 H   0  0  0  0  0  0  0  0  0  0  0  0
    4.5012  144.4282   58.6733 H   0  0  0  0  0  0  0  0  0  0  0  0
    3.8928  145.4352   56.5071 C   0  0  0  0  0  0  0  0  0  0  0  0
    4.3140  146.1271   57.2223 H   0  0  0  0  0  0  0  0  0  0  0  0
    1.9353  149.2395   52.6489 C   0  0  0  0  0  0  0  0  0  0  0  0
    2.7765  148.4028   51.9480 O   0  0  0  0  0  0  0  0  0  0  0  0
    2.1658  147.2959   51.2810 C   0  0  0  0  0  0  0  0  0  0  0  0
    1.4753  146.7695   51.9496 H   0  0  0  0  0  0  0  0  0  0  0  0
    1.6233  147.6349   50.3935 H   0  0  0  0  0  0  0  0  0  0  0  0
    2.9503  146.5962   50.9723 H   0  0  0  0  0  0  0  0  0  0  0  0
  1  2  1  0
  2  3  2  0
  3  4  1  0
  3  5  1  0
  5  6  1  0
  6  7  1  0
  7  8  1  0
  7  9  1  0
  7 10  1  0
  5 11  2  0
 11 12  1  0
 11 13  1  0
 13 14  1  0
 14 15  1  0
 14 16  1  0
 14 17  1  0
 17 18  2  0
 17 19  1  0
 19 20  1  0
 19 21  1  0
 21 22  2  0
 22 23  1  0
 23 24  1  0
 24 25  1  0
 24 26  1  0
 24 27  1  0
 27 28  1  0
 27 29  1  0
 27 30  1  0
 30 31  1  0
 30 32  1  0
 30 33  1  0
 23 34  2  0
 34 35  1  0
 35 36  3  0
 34 37  1  0
 37 38  1  0
 38 39  1  0
 38 40  1  0
 37 41  2  0
 41 42  1  0
 13 43  2  0
 43 44  1  0
 44 45  1  0
 45 46  1  0
 45 47  1  0
 45 48  1  0
 43  2  1  0
 41 21  1  0
M  END
>  <score>  (109) 
6.96827

$$$$

     RDKit          3D

 51 53  0  0  0  0  0  0  0  0999 V2000
    0.3058  149.1985   51.2485 H   0  0  0  0  0  0  0  0  0  0  0  0
    0.6560  149.6034   52.1927 C   0  0  0  0  0  0  0  0  0  0  0  0
   -0.1473  150.4967   52.9340 C   0  0  0  0  0  0  0  0  0  0  0  0
   -1.8722  150.9859   52.2795 Br  0  0  0  0  0  0  0  0  0  0  0  0
    0.3325  151.0561   54.1296 C   0  0  0  0  0  0  0  0  0  0  0  0
   -0.3785  151.9756   54.8572 O   0  0  0  0  0  0  0  0  0  0  0  0
   -1.4247  151.4031   55.6440 C   0  0  0  0  0  0  0  0  0  0  0  0
   -2.1516  150.8749   55.0176 H   0  0  0  0  0  0  0  0  0  0  0  0
   -1.0119  150.7008   56.3706 H   0  0  0  0  0  0  0  0  0  0  0  0
   -1.9378  152.2024   56.1870 H   0  0  0  0  0  0  0  0  0  0  0  0
    1.5930  150.6846   54.5725 C   0  0  0  0  0  0  0  0  0  0  0  0
    1.9877  151.1424   55.4695 H   0  0  0  0  0  0  0  0  0  0  0  0
    2.3756  149.7773   53.8606 C   0  0  0  0  0  0  0  0  0  0  0  0
    3.7196  149.4648   54.4045 C   0  0  0  0  0  0  0  0  0  0  0  0
    3.9890  150.3393   54.9905 H   0  0  0  0  0  0  0  0  0  0  0  0
    4.4049  149.3598   53.5614 H   0  0  0  0  0  0  0  0  0  0  0  0
    3.7437  148.1878   55.2575 C   0  0  0  0  0  0  0  0  0  0  0  0
    3.8473  148.2365   56.4745 O   0  0  0  0  0  0  0  0  0  0  0  0
    3.6974  146.9736   54.6255 N   0  0  0  0  0  0  0  0  0  0  0  0
    3.5052  146.9342   53.6379 H   0  0  0  0  0  0  0  0  0  0  0  0
    3.5188  145.7703   55.2011 C   0  0  0  0  0  0  0  0  0  0  0  0
    3.0190  144.9431   54.3064 N   0  0  0  0  0  0  0  0  0  0  0  0
    2.9012  143.6596   54.6304 C   0  0  0  0  0  0  0  0  0  0  0  0
    2.3657  142.8099   53.6569 N   0  0  0  0  0  0  0  0  0  0  0  0
    1.3490  143.2713   52.6924 C   0  0  0  0  0  0  0  0  0  0  0  0
    0.3736  143.4339   53.1671 H   0  0  0  0  0  0  0  0  0  0  0  0
    1.6626  144.1995   52.1989 H   0  0  0  0  0  0  0  0  0  0  0  0
    1.2447  142.1399   51.6744 C   0  0  0  0  0  0  0  0  0  0  0  0
    1.0789  142.5165   50.6604 H   0  0  0  0  0  0  0  0  0  0  0  0
    0.4162  141.4695   51.9284 H   0  0  0  0  0  0  0  0  0  0  0  0
    2.5600  141.3880   51.7816 C   0  0  0  0  0  0  0  0  0  0  0  0
    3.2722  141.7832   51.0480 H   0  0  0  0  0  0  0  0  0  0  0  0
    2.4036  140.3309   51.5851 H   0  0  0  0  0  0  0  0  0  0  0  0
    3.0790  141.6030   53.2029 C   0  0  0  0  0  0  0  0  0  0  0  0
    2.8275  140.7447   53.8384 H   0  0  0  0  0  0  0  0  0  0  0  0
    4.1723  141.7124   53.1844 H   0  0  0  0  0  0  0  0  0  0  0  0
    3.2832  143.1835   55.8697 C   0  0  0  0  0  0  0  0  0  0  0  0
    3.1533  141.8066   56.2017 C   0  0  0  0  0  0  0  0  0  0  0  0
    3.0328  140.6736   56.4354 N   0  0  0  0  0  0  0  0  0  0  0  0
    3.7534  144.0954   56.7740 C   0  0  0  0  0  0  0  0  0  0  0  0
    4.1406  143.7187   57.9989 N   0  0  0  0  0  0  0  0  0  0  0  0
    4.0538  142.7420   58.2701 H   0  0  0  0  0  0  0  0  0  0  0  0
    4.4855  144.4320   58.6375 H   0  0  0  0  0  0  0  0  0  0  0  0
    3.8802  145.4136   56.4720 C   0  0  0  0  0  0  0  0  0  0  0  0
    4.2940  146.1074   57.1907 H   0  0  0  0  0  0  0  0  0  0  0  0
    1.9314  149.2368   52.6485 C   0  0  0  0  0  0  0  0  0  0  0  0
    2.7738  148.4028   51.9486 O   0  0  0  0  0  0  0  0  0  0  0  0
    2.1622  147.2983   51.2820 C   0  0  0  0  0  0  0  0  0  0  0  0
    2.9470  146.5950   50.9829 H   0  0  0  0  0  0  0  0  0  0  0  0
    1.6291  147.6401   50.3899 H   0  0  0  0  0  0  0  0  0  0  0  0
    1.4633  146.7786   51.9477 H   0  0  0  0  0  0  0  0  0  0  0  0
  1  2  1  0
  2  3  2  0
  3  4  1  0
  3  5  1  0
  5  6  1  0
  6  7  1  0
  7  8  1  0
  7  9  1  0
  7 10  1  0
  5 11  2  0
 11 12  1  0
 11 13  1  0
 13 14  1  0
 14 15  1  0
 14 16  1  0
 14 17  1  0
 17 18  2  0
 17 19  1  0
 19 20  1  0
 19 21  1  0
 21 22  2  0
 22 23  1  0
 23 24  1  0
 24 25  1  0
 25 26  1  0
 25 27  1  0
 25 28  1  0
 28 29  1  0
 28 30  1  0
 28 31  1  0
 31 32  1  0
 31 33  1  0
 31 34  1  0
 34 35  1  0
 34 36  1  0
 23 37  2  0
 37 38  1  0
 38 39  3  0
 37 40  1  0
 40 41  1  0
 41 42  1  0
 41 43  1  0
 40 44  2  0
 44 45  1  0
 13 46  2  0
 46 47  1  0
 47 48  1  0
 48 49  1  0
 48 50  1  0
 48 51  1  0
 46  2  1  0
 44 21  1  0
 34 24  1  0
M  END
>  <score>  (110) 
6.96881

$$$$

     RDKit          3D

 46 47  0  0  0  0  0  0  0  0999 V2000
    0.3068  149.2030   51.2526 H   0  0  0  0  0  0  0  0  0  0  0  0
    0.6602  149.6074   52.1962 C   0  0  0  0  0  0  0  0  0  0  0  0
   -0.1435  150.5015   52.9355 C   0  0  0  0  0  0  0  0  0  0  0  0
   -1.8698  150.9844   52.2758 Br  0  0  0  0  0  0  0  0  0  0  0  0
    0.3355  151.0593   54.1332 C   0  0  0  0  0  0  0  0  0  0  0  0
   -0.3796  151.9762   54.8613 O   0  0  0  0  0  0  0  0  0  0  0  0
   -1.4266  151.4043   55.6490 C   0  0  0  0  0  0  0  0  0  0  0  0
   -1.0137  150.7033   56.3759 H   0  0  0  0  0  0  0  0  0  0  0  0
   -2.1530  150.8751   55.0239 H   0  0  0  0  0  0  0  0  0  0  0  0
   -1.9431  152.2011   56.1930 H   0  0  0  0  0  0  0  0  0  0  0  0
    1.5987  150.6893   54.5752 C   0  0  0  0  0  0  0  0  0  0  0  0
    1.9934  151.1419   55.4752 H   0  0  0  0  0  0  0  0  0  0  0  0
    2.3835  149.7861   53.8588 C   0  0  0  0  0  0  0  0  0  0  0  0
    3.7284  149.4745   54.3996 C   0  0  0  0  0  0  0  0  0  0  0  0
    4.4174  149.3552   53.5615 H   0  0  0  0  0  0  0  0  0  0  0  0
    4.0023  150.3490   54.9759 H   0  0  0  0  0  0  0  0  0  0  0  0
    3.7478  148.2147   55.2679 C   0  0  0  0  0  0  0  0  0  0  0  0
    3.8510  148.2743   56.4838 O   0  0  0  0  0  0  0  0  0  0  0  0
    3.7115  147.0013   54.6457 N   0  0  0  0  0  0  0  0  0  0  0  0
    3.5236  146.9609   53.6555 H   0  0  0  0  0  0  0  0  0  0  0  0
    3.5472  145.8040   55.2384 C   0  0  0  0  0  0  0  0  0  0  0  0
    3.0498  144.9724   54.3500 N   0  0  0  0  0  0  0  0  0  0  0  0
    2.8935  143.6913   54.6840 C   0  0  0  0  0  0  0  0  0  0  0  0
    2.2322  142.6222   53.4409 S   0  0  0  0  0  0  0  0  0  0  0  0
    3.8191  142.1653   52.6230 C   0  0  0  0  0  0  0  0  0  0  0  0
    4.3232  143.0771   52.2802 H   0  0  0  0  0  0  0  0  0  0  0  0
    4.4491  141.6428   53.3483 H   0  0  0  0  0  0  0  0  0  0  0  0
    3.6489  141.2231   51.4460 C   0  0  0  0  0  0  0  0  0  0  0  0
    4.6323  141.0046   51.0164 H   0  0  0  0  0  0  0  0  0  0  0  0
    3.2094  140.2870   51.7938 H   0  0  0  0  0  0  0  0  0  0  0  0
    3.0156  141.6627   50.6699 H   0  0  0  0  0  0  0  0  0  0  0  0
    3.2564  143.2078   55.9290 C   0  0  0  0  0  0  0  0  0  0  0  0
    3.1381  141.8236   56.2493 C   0  0  0  0  0  0  0  0  0  0  0  0
    3.0401  140.6817   56.4541 N   0  0  0  0  0  0  0  0  0  0  0  0
    3.7521  144.1184   56.8240 C   0  0  0  0  0  0  0  0  0  0  0  0
    4.1611  143.7229   58.0376 N   0  0  0  0  0  0  0  0  0  0  0  0
    4.0623  142.7456   58.3055 H   0  0  0  0  0  0  0  0  0  0  0  0
    4.5040  144.4284   58.6838 H   0  0  0  0  0  0  0  0  0  0  0  0
    3.8989  145.4389   56.5114 C   0  0  0  0  0  0  0  0  0  0  0  0
    4.3183  146.1337   57.2225 H   0  0  0  0  0  0  0  0  0  0  0  0
    1.9364  149.2391   52.6500 C   0  0  0  0  0  0  0  0  0  0  0  0
    2.7761  148.4022   51.9470 O   0  0  0  0  0  0  0  0  0  0  0  0
    2.1658  147.2949   51.2806 C   0  0  0  0  0  0  0  0  0  0  0  0
    1.4752  146.7694   51.9497 H   0  0  0  0  0  0  0  0  0  0  0  0
    1.6241  147.6342   50.3930 H   0  0  0  0  0  0  0  0  0  0  0  0
    2.9502  146.5950   50.9723 H   0  0  0  0  0  0  0  0  0  0  0  0
  1  2  1  0
  2  3  2  0
  3  4  1  0
  3  5  1  0
  5  6  1  0
  6  7  1  0
  7  8  1  0
  7  9  1  0
  7 10  1  0
  5 11  2  0
 11 12  1  0
 11 13  1  0
 13 14  1  0
 14 15  1  0
 14 16  1  0
 14 17  1  0
 17 18  2  0
 17 19  1  0
 19 20  1  0
 19 21  1  0
 21 22  2  0
 22 23  1  0
 23 24  1  0
 24 25  1  0
 25 26  1  0
 25 27  1  0
 25 28  1  0
 28 29  1  0
 28 30  1  0
 28 31  1  0
 23 32  2  0
 32 33  1  0
 33 34  3  0
 32 35  1  0
 35 36  1  0
 36 37  1  0
 36 38  1  0
 35 39  2  0
 39 40  1  0
 13 41  2  0
 41 42  1  0
 42 43  1  0
 43 44  1  0
 43 45  1  0
 43 46  1  0
 41  2  1  0
 39 21  1  0
M  END
>  <score>  (111) 
6.97083

$$$$

     RDKit          3D

 49 51  0  0  0  0  0  0  0  0999 V2000
    0.3055  149.2026   51.2524 H   0  0  0  0  0  0  0  0  0  0  0  0
    0.6601  149.6068   52.1958 C   0  0  0  0  0  0  0  0  0  0  0  0
   -0.1438  150.5015   52.9344 C   0  0  0  0  0  0  0  0  0  0  0  0
   -1.8703  150.9835   52.2747 Br  0  0  0  0  0  0  0  0  0  0  0  0
    0.3342  151.0596   54.1324 C   0  0  0  0  0  0  0  0  0  0  0  0
   -0.3801  151.9761   54.8618 O   0  0  0  0  0  0  0  0  0  0  0  0
   -1.4274  151.4048   55.6496 C   0  0  0  0  0  0  0  0  0  0  0  0
   -1.0152  150.7041   56.3760 H   0  0  0  0  0  0  0  0  0  0  0  0
   -2.1530  150.8756   55.0250 H   0  0  0  0  0  0  0  0  0  0  0  0
   -1.9446  152.2004   56.1942 H   0  0  0  0  0  0  0  0  0  0  0  0
    1.5982  150.6928   54.5735 C   0  0  0  0  0  0  0  0  0  0  0  0
    1.9909  151.1461   55.4742 H   0  0  0  0  0  0  0  0  0  0  0  0
    2.3835  149.7891   53.8575 C   0  0  0  0  0  0  0  0  0  0  0  0
    3.7290  149.4744   54.3983 C   0  0  0  0  0  0  0  0  0  0  0  0
    4.0013  150.3507   54.9707 H   0  0  0  0  0  0  0  0  0  0  0  0
    4.4193  149.3570   53.5603 H   0  0  0  0  0  0  0  0  0  0  0  0
    3.7532  148.2147   55.2704 C   0  0  0  0  0  0  0  0  0  0  0  0
    3.8524  148.2753   56.4852 O   0  0  0  0  0  0  0  0  0  0  0  0
    3.7123  146.9998   54.6534 N   0  0  0  0  0  0  0  0  0  0  0  0
    3.5260  146.9587   53.6650 H   0  0  0  0  0  0  0  0  0  0  0  0
    3.5517  145.8023   55.2421 C   0  0  0  0  0  0  0  0  0  0  0  0
    3.0657  144.9766   54.3426 N   0  0  0  0  0  0  0  0  0  0  0  0
    2.9106  143.6884   54.6539 C   0  0  0  0  0  0  0  0  0  0  0  0
    2.3551  142.7787   53.5729 C   0  0  0  0  0  0  0  0  0  0  0  0
    2.2617  141.7724   53.9930 H   0  0  0  0  0  0  0  0  0  0  0  0
    1.0915  143.2731   52.8333 C   0  0  0  0  0  0  0  0  0  0  0  0
    0.7229  144.2534   53.1641 H   0  0  0  0  0  0  0  0  0  0  0  0
    0.2590  142.5714   52.8081 H   0  0  0  0  0  0  0  0  0  0  0  0
    1.8388  143.2842   51.5095 C   0  0  0  0  0  0  0  0  0  0  0  0
    1.4300  142.5949   50.7611 H   0  0  0  0  0  0  0  0  0  0  0  0
    1.9390  144.2783   51.0654 H   0  0  0  0  0  0  0  0  0  0  0  0
    3.0926  142.7765   52.2199 C   0  0  0  0  0  0  0  0  0  0  0  0
    3.4153  141.7809   51.8897 H   0  0  0  0  0  0  0  0  0  0  0  0
    3.9450  143.4661   52.1658 H   0  0  0  0  0  0  0  0  0  0  0  0
    3.2616  143.2034   55.9112 C   0  0  0  0  0  0  0  0  0  0  0  0
    3.1388  141.8198   56.2358 C   0  0  0  0  0  0  0  0  0  0  0  0
    3.0359  140.6808   56.4553 N   0  0  0  0  0  0  0  0  0  0  0  0
    3.7520  144.1108   56.8188 C   0  0  0  0  0  0  0  0  0  0  0  0
    4.1534  143.7197   58.0390 N   0  0  0  0  0  0  0  0  0  0  0  0
    4.5040  144.4240   58.6817 H   0  0  0  0  0  0  0  0  0  0  0  0
    4.0656  142.7433   58.3091 H   0  0  0  0  0  0  0  0  0  0  0  0
    3.8990  145.4328   56.5130 C   0  0  0  0  0  0  0  0  0  0  0  0
    4.3156  146.1272   57.2268 H   0  0  0  0  0  0  0  0  0  0  0  0
    1.9360  149.2404   52.6503 C   0  0  0  0  0  0  0  0  0  0  0  0
    2.7756  148.4024   51.9497 O   0  0  0  0  0  0  0  0  0  0  0  0
    2.1663  147.2951   51.2814 C   0  0  0  0  0  0  0  0  0  0  0  0
    1.6179  147.6350   50.3987 H   0  0  0  0  0  0  0  0  0  0  0  0
    2.9511  146.5995   50.9652 H   0  0  0  0  0  0  0  0  0  0  0  0
    1.4827  146.7631   51.9515 H   0  0  0  0  0  0  0  0  0  0  0  0
  1  2  1  0
  2  3  2  0
  3  4  1  0
  3  5  1  0
  5  6  1  0
  6  7  1  0
  7  8  1  0
  7  9  1  0
  7 10  1  0
  5 11  2  0
 11 12  1  0
 11 13  1  0
 13 14  1  0
 14 15  1  0
 14 16  1  0
 14 17  1  0
 17 18  2  0
 17 19  1  0
 19 20  1  0
 19 21  1  0
 21 22  2  0
 22 23  1  0
 23 24  1  0
 24 25  1  0
 24 26  1  0
 26 27  1  0
 26 28  1  0
 26 29  1  0
 29 30  1  0
 29 31  1  0
 29 32  1  0
 32 33  1  0
 32 34  1  0
 23 35  2  0
 35 36  1  0
 36 37  3  0
 35 38  1  0
 38 39  1  0
 39 40  1  0
 39 41  1  0
 38 42  2  0
 42 43  1  0
 13 44  2  0
 44 45  1  0
 45 46  1  0
 46 47  1  0
 46 48  1  0
 46 49  1  0
 44  2  1  0
 42 21  1  0
 32 24  1  0
M  END
>  <score>  (112) 
6.97447

$$$$

     RDKit          3D

 56 58  0  0  0  0  0  0  0  0999 V2000
    3.4171  145.4457   46.6427 H   0  0  0  0  0  0  0  0  0  0  0  0
    3.2642  145.0780   47.6631 C   0  0  0  0  0  0  0  0  0  0  0  0
    2.0902  144.4171   48.0238 C   0  0  0  0  0  0  0  0  0  0  0  0
    1.2980  144.3163   47.3062 H   0  0  0  0  0  0  0  0  0  0  0  0
    1.9469  143.8209   49.2774 C   0  0  0  0  0  0  0  0  0  0  0  0
    1.0298  143.2787   49.4904 H   0  0  0  0  0  0  0  0  0  0  0  0
    3.0103  143.8810   50.1932 C   0  0  0  0  0  0  0  0  0  0  0  0
    3.0590  143.1042   51.4135 C   0  0  0  0  0  0  0  0  0  0  0  0
    4.0966  142.5376   51.7398 O   0  0  0  0  0  0  0  0  0  0  0  0
    2.0107  143.1308   52.3001 N   0  0  0  0  0  0  0  0  0  0  0  0
    1.2217  143.7250   52.0562 H   0  0  0  0  0  0  0  0  0  0  0  0
    2.1904  142.7047   53.7022 C   0  0  0  0  0  0  0  0  0  0  0  0
    2.8077  141.8019   53.7376 H   0  0  0  0  0  0  0  0  0  0  0  0
    1.2207  142.3921   54.0606 H   0  0  0  0  0  0  0  0  0  0  0  0
    2.8051  143.7010   54.7007 C   0  0  0  0  0  0  0  0  0  0  0  0
    2.9880  144.9785   54.3578 N   0  0  0  0  0  0  0  0  0  0  0  0
    3.5448  145.7992   55.2141 C   0  0  0  0  0  0  0  0  0  0  0  0
    3.7215  146.9780   54.5977 N   0  0  0  0  0  0  0  0  0  0  0  0
    3.4262  146.9726   53.6353 H   0  0  0  0  0  0  0  0  0  0  0  0
    3.7337  148.1732   55.2371 C   0  0  0  0  0  0  0  0  0  0  0  0
    3.8092  148.2141   56.4504 O   0  0  0  0  0  0  0  0  0  0  0  0
    3.6944  149.4537   54.4242 C   0  0  0  0  0  0  0  0  0  0  0  0
    4.4311  149.4172   53.6174 H   0  0  0  0  0  0  0  0  0  0  0  0
    3.9346  150.2649   55.0982 H   0  0  0  0  0  0  0  0  0  0  0  0
    2.3435  149.7624   53.8685 C   0  0  0  0  0  0  0  0  0  0  0  0
    1.5538  150.6666   54.5729 C   0  0  0  0  0  0  0  0  0  0  0  0
    1.9217  151.1178   55.4890 H   0  0  0  0  0  0  0  0  0  0  0  0
    0.3054  151.0385   54.0958 C   0  0  0  0  0  0  0  0  0  0  0  0
   -0.3946  151.9777   54.7959 O   0  0  0  0  0  0  0  0  0  0  0  0
   -1.4260  151.4044   55.5973 C   0  0  0  0  0  0  0  0  0  0  0  0
   -1.9359  152.1886   56.1629 H   0  0  0  0  0  0  0  0  0  0  0  0
   -2.1565  150.8880   54.9700 H   0  0  0  0  0  0  0  0  0  0  0  0
   -1.0073  150.6877   56.3054 H   0  0  0  0  0  0  0  0  0  0  0  0
   -0.1856  150.4734   52.9080 C   0  0  0  0  0  0  0  0  0  0  0  0
   -1.9180  150.9663   52.2535 Br  0  0  0  0  0  0  0  0  0  0  0  0
    0.6197  149.5753   52.1880 C   0  0  0  0  0  0  0  0  0  0  0  0
    0.2799  149.1684   51.2426 H   0  0  0  0  0  0  0  0  0  0  0  0
    1.8948  149.2204   52.6574 C   0  0  0  0  0  0  0  0  0  0  0  0
    2.7515  148.3995   51.9652 O   0  0  0  0  0  0  0  0  0  0  0  0
    2.1428  147.3089   51.2717 C   0  0  0  0  0  0  0  0  0  0  0  0
    1.4619  146.7737   51.9381 H   0  0  0  0  0  0  0  0  0  0  0  0
    1.5865  147.6628   50.4003 H   0  0  0  0  0  0  0  0  0  0  0  0
    2.9131  146.6100   50.9332 H   0  0  0  0  0  0  0  0  0  0  0  0
    3.9035  145.4542   56.4910 C   0  0  0  0  0  0  0  0  0  0  0  0
    4.3304  146.1516   57.1897 H   0  0  0  0  0  0  0  0  0  0  0  0
    3.7460  144.1496   56.8322 C   0  0  0  0  0  0  0  0  0  0  0  0
    4.1642  143.7651   58.0525 N   0  0  0  0  0  0  0  0  0  0  0  0
    4.0897  142.7861   58.3214 H   0  0  0  0  0  0  0  0  0  0  0  0
    4.4981  144.4738   58.7005 H   0  0  0  0  0  0  0  0  0  0  0  0
    3.2160  143.2483   55.9484 C   0  0  0  0  0  0  0  0  0  0  0  0
    3.1335  141.8645   56.2691 C   0  0  0  0  0  0  0  0  0  0  0  0
    3.0755  140.7224   56.4723 N   0  0  0  0  0  0  0  0  0  0  0  0
    4.1253  144.6678   49.9051 C   0  0  0  0  0  0  0  0  0  0  0  0
    4.9217  144.7609   50.6517 H   0  0  0  0  0  0  0  0  0  0  0  0
    4.2466  145.2372   48.6409 C   0  0  0  0  0  0  0  0  0  0  0  0
    5.1514  145.7624   48.4035 H   0  0  0  0  0  0  0  0  0  0  0  0
  1  2  1  0
  2  3  2  0
  3  4  1  0
  3  5  1  0
  5  6  1  0
  5  7  2  0
  7  8  1  0
  8  9  2  0
  8 10  1  0
 10 11  1  0
 10 12  1  0
 12 13  1  0
 12 14  1  0
 12 15  1  0
 15 16  2  0
 16 17  1  0
 17 18  1  0
 18 19  1  0
 18 20  1  0
 20 21  2  0
 20 22  1  0
 22 23  1  0
 22 24  1  0
 22 25  1  0
 25 26  2  0
 26 27  1  0
 26 28  1  0
 28 29  1  0
 29 30  1  0
 30 31  1  0
 30 32  1  0
 30 33  1  0
 28 34  2  0
 34 35  1  0
 34 36  1  0
 36 37  1  0
 36 38  2  0
 38 39  1  0
 39 40  1  0
 40 41  1  0
 40 42  1  0
 40 43  1  0
 17 44  2  0
 44 45  1  0
 44 46  1  0
 46 47  1  0
 47 48  1  0
 47 49  1  0
 46 50  2  0
 50 51  1  0
 51 52  3  0
  7 53  1  0
 53 54  1  0
 53 55  2  0
 55 56  1  0
 55  2  1  0
 50 15  1  0
 38 25  1  0
M  END
>  <score>  (113) 
6.97545

$$$$

     RDKit          3D

 50 51  0  0  0  0  0  0  0  0999 V2000
    0.2868  149.1646   51.2355 H   0  0  0  0  0  0  0  0  0  0  0  0
    0.6165  149.5697   52.1857 C   0  0  0  0  0  0  0  0  0  0  0  0
   -0.1881  150.4658   52.9106 C   0  0  0  0  0  0  0  0  0  0  0  0
   -1.9180  150.9747   52.2656 Br  0  0  0  0  0  0  0  0  0  0  0  0
    0.3081  151.0326   54.0960 C   0  0  0  0  0  0  0  0  0  0  0  0
   -0.3851  151.9743   54.7960 O   0  0  0  0  0  0  0  0  0  0  0  0
   -1.4192  151.4022   55.5933 C   0  0  0  0  0  0  0  0  0  0  0  0
   -1.0036  150.6837   56.3034 H   0  0  0  0  0  0  0  0  0  0  0  0
   -1.9247  152.1945   56.1525 H   0  0  0  0  0  0  0  0  0  0  0  0
   -2.1484  150.8872   54.9615 H   0  0  0  0  0  0  0  0  0  0  0  0
    1.5555  150.6615   54.5753 C   0  0  0  0  0  0  0  0  0  0  0  0
    1.9281  151.1217   55.4862 H   0  0  0  0  0  0  0  0  0  0  0  0
    2.3325  149.7443   53.8767 C   0  0  0  0  0  0  0  0  0  0  0  0
    3.6773  149.4127   54.4259 C   0  0  0  0  0  0  0  0  0  0  0  0
    3.9244  150.2005   55.1267 H   0  0  0  0  0  0  0  0  0  0  0  0
    4.4055  149.4126   53.6134 H   0  0  0  0  0  0  0  0  0  0  0  0
    3.7018  148.0893   55.1796 C   0  0  0  0  0  0  0  0  0  0  0  0
    3.7923  148.0929   56.3935 O   0  0  0  0  0  0  0  0  0  0  0  0
    3.6200  146.9050   54.5106 N   0  0  0  0  0  0  0  0  0  0  0  0
    3.3640  146.9019   53.5378 H   0  0  0  0  0  0  0  0  0  0  0  0
    3.4887  145.7088   55.1141 C   0  0  0  0  0  0  0  0  0  0  0  0
    2.9940  144.8464   54.2633 N   0  0  0  0  0  0  0  0  0  0  0  0
    2.9155  143.6033   54.6786 C   0  0  0  0  0  0  0  0  0  0  0  0
    2.4089  142.8146   53.7073 N   0  0  0  0  0  0  0  0  0  0  0  0
    1.9778  143.4441   53.0420 H   0  0  0  0  0  0  0  0  0  0  0  0
    3.3120  141.8550   53.0795 C   0  0  0  0  0  0  0  0  0  0  0  0
    4.1537  141.5869   53.7348 H   0  0  0  0  0  0  0  0  0  0  0  0
    2.5591  140.6081   52.6770 C   0  0  0  0  0  0  0  0  0  0  0  0
    2.4764  139.9009   53.5149 H   0  0  0  0  0  0  0  0  0  0  0  0
    1.5685  140.8668   52.2781 H   0  0  0  0  0  0  0  0  0  0  0  0
    3.1148  140.1459   51.8609 H   0  0  0  0  0  0  0  0  0  0  0  0
    3.8289  142.4845   51.7981 C   0  0  0  0  0  0  0  0  0  0  0  0
    4.5058  141.7797   51.3071 H   0  0  0  0  0  0  0  0  0  0  0  0
    4.3611  143.4162   51.9961 H   0  0  0  0  0  0  0  0  0  0  0  0
    2.9819  142.6961   51.1369 H   0  0  0  0  0  0  0  0  0  0  0  0
    3.2958  143.1523   55.9083 C   0  0  0  0  0  0  0  0  0  0  0  0
    3.1890  141.7700   56.2348 C   0  0  0  0  0  0  0  0  0  0  0  0
    3.0826  140.6294   56.4350 N   0  0  0  0  0  0  0  0  0  0  0  0
    3.7599  144.1023   56.7679 C   0  0  0  0  0  0  0  0  0  0  0  0
    4.1540  143.7632   57.9990 N   0  0  0  0  0  0  0  0  0  0  0  0
    4.0740  142.7878   58.2776 H   0  0  0  0  0  0  0  0  0  0  0  0
    4.4652  144.4951   58.6360 H   0  0  0  0  0  0  0  0  0  0  0  0
    3.8587  145.4102   56.4020 C   0  0  0  0  0  0  0  0  0  0  0  0
    4.2524  146.1458   57.0893 H   0  0  0  0  0  0  0  0  0  0  0  0
    1.8898  149.2153   52.6599 C   0  0  0  0  0  0  0  0  0  0  0  0
    2.7514  148.4020   51.9687 O   0  0  0  0  0  0  0  0  0  0  0  0
    2.1373  147.3168   51.2770 C   0  0  0  0  0  0  0  0  0  0  0  0
    2.9066  146.6113   50.9514 H   0  0  0  0  0  0  0  0  0  0  0  0
    1.4445  146.7933   51.9418 H   0  0  0  0  0  0  0  0  0  0  0  0
    1.5918  147.6742   50.3996 H   0  0  0  0  0  0  0  0  0  0  0  0
  1  2  1  0
  2  3  2  0
  3  4  1  0
  3  5  1  0
  5  6  1  0
  6  7  1  0
  7  8  1  0
  7  9  1  0
  7 10  1  0
  5 11  2  0
 11 12  1  0
 11 13  1  0
 13 14  1  0
 14 15  1  0
 14 16  1  0
 14 17  1  0
 17 18  2  0
 17 19  1  0
 19 20  1  0
 19 21  1  0
 21 22  2  0
 22 23  1  0
 23 24  1  0
 24 25  1  0
 24 26  1  0
 26 27  1  0
 26 28  1  0
 28 29  1  0
 28 30  1  0
 28 31  1  0
 26 32  1  0
 32 33  1  0
 32 34  1  0
 32 35  1  0
 23 36  2  0
 36 37  1  0
 37 38  3  0
 36 39  1  0
 39 40  1  0
 40 41  1  0
 40 42  1  0
 39 43  2  0
 43 44  1  0
 13 45  2  0
 45 46  1  0
 46 47  1  0
 47 48  1  0
 47 49  1  0
 47 50  1  0
 45  2  1  0
 43 21  1  0
M  END
>  <score>  (114) 
6.9755

$$$$

     RDKit          3D

 55 56  0  0  0  0  0  0  0  0999 V2000
    0.2631  149.1610   51.2425 H   0  0  0  0  0  0  0  0  0  0  0  0
    0.6100  149.5700   52.1847 C   0  0  0  0  0  0  0  0  0  0  0  0
   -0.1950  150.4712   52.9004 C   0  0  0  0  0  0  0  0  0  0  0  0
   -1.9297  150.9564   52.2381 Br  0  0  0  0  0  0  0  0  0  0  0  0
    0.2973  151.0416   54.0848 C   0  0  0  0  0  0  0  0  0  0  0  0
   -0.4047  151.9819   54.7809 O   0  0  0  0  0  0  0  0  0  0  0  0
   -1.4326  151.4048   55.5843 C   0  0  0  0  0  0  0  0  0  0  0  0
   -1.9399  152.1865   56.1569 H   0  0  0  0  0  0  0  0  0  0  0  0
   -1.0069  150.6842   56.2857 H   0  0  0  0  0  0  0  0  0  0  0  0
   -2.1649  150.8927   54.9539 H   0  0  0  0  0  0  0  0  0  0  0  0
    1.5451  150.6635   54.5696 C   0  0  0  0  0  0  0  0  0  0  0  0
    1.9017  151.1044   55.4958 H   0  0  0  0  0  0  0  0  0  0  0  0
    2.3370  149.7546   53.8687 C   0  0  0  0  0  0  0  0  0  0  0  0
    3.6820  149.4012   54.4351 C   0  0  0  0  0  0  0  0  0  0  0  0
    3.9361  150.1538   55.1694 H   0  0  0  0  0  0  0  0  0  0  0  0
    4.4339  149.4020   53.6388 H   0  0  0  0  0  0  0  0  0  0  0  0
    3.6781  148.0781   55.1817 C   0  0  0  0  0  0  0  0  0  0  0  0
    3.7897  148.0722   56.3963 O   0  0  0  0  0  0  0  0  0  0  0  0
    3.5913  146.9030   54.5098 N   0  0  0  0  0  0  0  0  0  0  0  0
    3.3335  146.9069   53.5355 H   0  0  0  0  0  0  0  0  0  0  0  0
    3.4982  145.7085   55.1150 C   0  0  0  0  0  0  0  0  0  0  0  0
    3.0042  144.8555   54.2668 N   0  0  0  0  0  0  0  0  0  0  0  0
    2.9328  143.6265   54.6954 C   0  0  0  0  0  0  0  0  0  0  0  0
    2.3910  142.9004   53.6989 N   0  0  0  0  0  0  0  0  0  0  0  0
    1.9865  143.5972   53.0823 H   0  0  0  0  0  0  0  0  0  0  0  0
    3.2354  141.9000   53.0039 C   0  0  0  0  0  0  0  0  0  0  0  0
    2.6003  141.0618   52.6990 H   0  0  0  0  0  0  0  0  0  0  0  0
    4.0053  141.5013   53.6769 H   0  0  0  0  0  0  0  0  0  0  0  0
    3.8966  142.5164   51.7426 C   0  0  0  0  0  0  0  0  0  0  0  0
    4.4592  143.3993   52.0561 H   0  0  0  0  0  0  0  0  0  0  0  0
    3.1005  142.8694   51.0780 H   0  0  0  0  0  0  0  0  0  0  0  0
    4.7889  141.5728   51.0029 N   0  0  0  0  0  0  0  0  0  0  0  0
    4.1526  140.3720   50.4709 C   0  0  0  0  0  0  0  0  0  0  0  0
    3.6304  139.8949   51.3022 H   0  0  0  0  0  0  0  0  0  0  0  0
    3.4452  140.6343   49.6656 H   0  0  0  0  0  0  0  0  0  0  0  0
    4.9041  139.6768   50.0677 H   0  0  0  0  0  0  0  0  0  0  0  0
    5.7212  142.1391   50.0175 C   0  0  0  0  0  0  0  0  0  0  0  0
    5.1976  142.5484   49.1468 H   0  0  0  0  0  0  0  0  0  0  0  0
    6.4219  141.3782   49.6605 H   0  0  0  0  0  0  0  0  0  0  0  0
    6.2880  142.9202   50.4956 H   0  0  0  0  0  0  0  0  0  0  0  0
    3.3165  143.1703   55.9198 C   0  0  0  0  0  0  0  0  0  0  0  0
    3.2053  141.7858   56.2340 C   0  0  0  0  0  0  0  0  0  0  0  0
    3.1036  140.6477   56.4312 N   0  0  0  0  0  0  0  0  0  0  0  0
    3.7849  144.1110   56.7877 C   0  0  0  0  0  0  0  0  0  0  0  0
    4.1759  143.7696   58.0329 N   0  0  0  0  0  0  0  0  0  0  0  0
    4.4635  144.5024   58.6812 H   0  0  0  0  0  0  0  0  0  0  0  0
    4.0944  142.7997   58.3297 H   0  0  0  0  0  0  0  0  0  0  0  0
    3.8782  145.4152   56.4030 C   0  0  0  0  0  0  0  0  0  0  0  0
    4.2520  146.1703   57.0761 H   0  0  0  0  0  0  0  0  0  0  0  0
    1.8873  149.2183   52.6556 C   0  0  0  0  0  0  0  0  0  0  0  0
    2.7397  148.3886   51.9715 O   0  0  0  0  0  0  0  0  0  0  0  0
    2.1237  147.3097   51.2678 C   0  0  0  0  0  0  0  0  0  0  0  0
    1.4304  146.7787   51.9266 H   0  0  0  0  0  0  0  0  0  0  0  0
    2.8920  146.6053   50.9355 H   0  0  0  0  0  0  0  0  0  0  0  0
    1.5813  147.6740   50.3909 H   0  0  0  0  0  0  0  0  0  0  0  0
  1  2  1  0
  2  3  2  0
  3  4  1  0
  3  5  1  0
  5  6  1  0
  6  7  1  0
  7  8  1  0
  7  9  1  0
  7 10  1  0
  5 11  2  0
 11 12  1  0
 11 13  1  0
 13 14  1  0
 14 15  1  0
 14 16  1  0
 14 17  1  0
 17 18  2  0
 17 19  1  0
 19 20  1  0
 19 21  1  0
 21 22  2  0
 22 23  1  0
 23 24  1  0
 24 25  1  0
 24 26  1  0
 26 27  1  0
 26 28  1  0
 26 29  1  0
 29 30  1  0
 29 31  1  0
 29 32  1  0
 32 33  1  0
 33 34  1  0
 33 35  1  0
 33 36  1  0
 32 37  1  0
 37 38  1  0
 37 39  1  0
 37 40  1  0
 23 41  2  0
 41 42  1  0
 42 43  3  0
 41 44  1  0
 44 45  1  0
 45 46  1  0
 45 47  1  0
 44 48  2  0
 48 49  1  0
 13 50  2  0
 50 51  1  0
 51 52  1  0
 52 53  1  0
 52 54  1  0
 52 55  1  0
 50  2  1  0
 48 21  1  0
M  END
>  <score>  (115) 
6.97761

$$$$

     RDKit          3D

 46 48  0  0  0  0  0  0  0  0999 V2000
    2.2090  140.3039   51.6304 H   0  0  0  0  0  0  0  0  0  0  0  0
    2.1043  141.2156   52.1988 C   0  0  0  0  0  0  0  0  0  0  0  0
    1.1708  142.1978   51.9280 N   0  0  0  0  0  0  0  0  0  0  0  0
    1.3862  143.1645   52.7849 C   0  0  0  0  0  0  0  0  0  0  0  0
    0.7929  144.0751   52.7876 H   0  0  0  0  0  0  0  0  0  0  0  0
    2.4163  142.8275   53.6467 N   0  0  0  0  0  0  0  0  0  0  0  0
    2.8947  143.6747   54.6458 C   0  0  0  0  0  0  0  0  0  0  0  0
    2.9891  144.9657   54.3308 N   0  0  0  0  0  0  0  0  0  0  0  0
    3.5056  145.7899   55.2236 C   0  0  0  0  0  0  0  0  0  0  0  0
    3.6971  146.9849   54.6397 N   0  0  0  0  0  0  0  0  0  0  0  0
    3.5152  146.9457   53.6492 H   0  0  0  0  0  0  0  0  0  0  0  0
    3.7479  148.2008   55.2641 C   0  0  0  0  0  0  0  0  0  0  0  0
    3.8482  148.2568   56.4817 O   0  0  0  0  0  0  0  0  0  0  0  0
    3.7290  149.4700   54.4019 C   0  0  0  0  0  0  0  0  0  0  0  0
    4.0008  150.3455   54.9798 H   0  0  0  0  0  0  0  0  0  0  0  0
    4.4146  149.3560   53.5586 H   0  0  0  0  0  0  0  0  0  0  0  0
    2.3809  149.7813   53.8587 C   0  0  0  0  0  0  0  0  0  0  0  0
    1.5969  150.6901   54.5733 C   0  0  0  0  0  0  0  0  0  0  0  0
    1.9901  151.1461   55.4732 H   0  0  0  0  0  0  0  0  0  0  0  0
    0.3332  151.0604   54.1314 C   0  0  0  0  0  0  0  0  0  0  0  0
   -0.3798  151.9775   54.8610 O   0  0  0  0  0  0  0  0  0  0  0  0
   -1.4273  151.4038   55.6486 C   0  0  0  0  0  0  0  0  0  0  0  0
   -1.9427  152.2025   56.1922 H   0  0  0  0  0  0  0  0  0  0  0  0
   -1.0133  150.7021   56.3757 H   0  0  0  0  0  0  0  0  0  0  0  0
   -2.1538  150.8749   55.0214 H   0  0  0  0  0  0  0  0  0  0  0  0
   -0.1449  150.5000   52.9350 C   0  0  0  0  0  0  0  0  0  0  0  0
   -1.8700  150.9843   52.2762 Br  0  0  0  0  0  0  0  0  0  0  0  0
    0.6582  149.6062   52.1944 C   0  0  0  0  0  0  0  0  0  0  0  0
    0.3066  149.2005   51.2505 H   0  0  0  0  0  0  0  0  0  0  0  0
    1.9341  149.2387   52.6480 C   0  0  0  0  0  0  0  0  0  0  0  0
    2.7755  148.4008   51.9501 O   0  0  0  0  0  0  0  0  0  0  0  0
    2.1644  147.2957   51.2810 C   0  0  0  0  0  0  0  0  0  0  0  0
    1.6230  147.6380   50.3936 H   0  0  0  0  0  0  0  0  0  0  0  0
    1.4736  146.7693   51.9501 H   0  0  0  0  0  0  0  0  0  0  0  0
    2.9505  146.5972   50.9720 H   0  0  0  0  0  0  0  0  0  0  0  0
    3.8829  145.4231   56.4858 C   0  0  0  0  0  0  0  0  0  0  0  0
    4.3102  146.1151   57.2003 H   0  0  0  0  0  0  0  0  0  0  0  0
    3.7507  144.1049   56.7927 C   0  0  0  0  0  0  0  0  0  0  0  0
    4.1497  143.7221   58.0152 N   0  0  0  0  0  0  0  0  0  0  0  0
    4.0597  142.7455   58.2886 H   0  0  0  0  0  0  0  0  0  0  0  0
    4.4944  144.4338   58.6555 H   0  0  0  0  0  0  0  0  0  0  0  0
    3.2723  143.1945   55.8867 C   0  0  0  0  0  0  0  0  0  0  0  0
    3.1510  141.8107   56.2172 C   0  0  0  0  0  0  0  0  0  0  0  0
    3.0396  140.6787   56.4512 N   0  0  0  0  0  0  0  0  0  0  0  0
    2.8711  141.5654   53.2681 C   0  0  0  0  0  0  0  0  0  0  0  0
    3.6801  140.9591   53.6693 H   0  0  0  0  0  0  0  0  0  0  0  0
  1  2  1  0
  2  3  1  0
  3  4  2  0
  4  5  1  0
  4  6  1  0
  6  7  1  0
  7  8  2  0
  8  9  1  0
  9 10  1  0
 10 11  1  0
 10 12  1  0
 12 13  2  0
 12 14  1  0
 14 15  1  0
 14 16  1  0
 14 17  1  0
 17 18  2  0
 18 19  1  0
 18 20  1  0
 20 21  1  0
 21 22  1  0
 22 23  1  0
 22 24  1  0
 22 25  1  0
 20 26  2  0
 26 27  1  0
 26 28  1  0
 28 29  1  0
 28 30  2  0
 30 31  1  0
 31 32  1  0
 32 33  1  0
 32 34  1  0
 32 35  1  0
  9 36  2  0
 36 37  1  0
 36 38  1  0
 38 39  1  0
 39 40  1  0
 39 41  1  0
 38 42  2  0
 42 43  1  0
 43 44  3  0
  6 45  1  0
 45 46  1  0
 45  2  2  0
 42  7  1  0
 30 17  1  0
M  END
>  <score>  (116) 
6.97861

$$$$

     RDKit          3D

 48 49  0  0  0  0  0  0  0  0999 V2000
    0.2852  149.1742   51.2294 H   0  0  0  0  0  0  0  0  0  0  0  0
    0.6195  149.5736   52.1807 C   0  0  0  0  0  0  0  0  0  0  0  0
   -0.1806  150.4770   52.9043 C   0  0  0  0  0  0  0  0  0  0  0  0
   -1.9170  150.9798   52.2653 Br  0  0  0  0  0  0  0  0  0  0  0  0
    0.3091  151.0360   54.1020 C   0  0  0  0  0  0  0  0  0  0  0  0
   -0.3843  151.9750   54.8109 O   0  0  0  0  0  0  0  0  0  0  0  0
   -1.4207  151.4055   55.6092 C   0  0  0  0  0  0  0  0  0  0  0  0
   -1.0063  150.6887   56.3206 H   0  0  0  0  0  0  0  0  0  0  0  0
   -2.1460  150.8861   54.9786 H   0  0  0  0  0  0  0  0  0  0  0  0
   -1.9351  152.1948   56.1657 H   0  0  0  0  0  0  0  0  0  0  0  0
    1.5632  150.6763   54.5791 C   0  0  0  0  0  0  0  0  0  0  0  0
    1.9466  151.1296   55.4943 H   0  0  0  0  0  0  0  0  0  0  0  0
    2.3386  149.7617   53.8707 C   0  0  0  0  0  0  0  0  0  0  0  0
    3.6909  149.4311   54.4154 C   0  0  0  0  0  0  0  0  0  0  0  0
    3.9689  150.2198   55.0992 H   0  0  0  0  0  0  0  0  0  0  0  0
    4.4134  149.4042   53.6010 H   0  0  0  0  0  0  0  0  0  0  0  0
    3.7243  148.1228   55.1816 C   0  0  0  0  0  0  0  0  0  0  0  0
    3.8089  148.1370   56.3956 O   0  0  0  0  0  0  0  0  0  0  0  0
    3.6532  146.9433   54.5111 N   0  0  0  0  0  0  0  0  0  0  0  0
    3.3931  146.9464   53.5352 H   0  0  0  0  0  0  0  0  0  0  0  0
    3.5021  145.7593   55.1040 C   0  0  0  0  0  0  0  0  0  0  0  0
    3.0288  144.9104   54.2216 N   0  0  0  0  0  0  0  0  0  0  0  0
    2.8981  143.6554   54.6137 C   0  0  0  0  0  0  0  0  0  0  0  0
    2.4589  142.6645   53.6625 C   0  0  0  0  0  0  0  0  0  0  0  0
    3.3062  142.1410   53.2355 H   0  0  0  0  0  0  0  0  0  0  0  0
    1.7894  141.9800   54.1591 H   0  0  0  0  0  0  0  0  0  0  0  0
    1.5854  143.5729   52.4400 S   0  0  0  0  0  0  0  0  0  0  0  0
    2.5266  144.2638   51.5536 O   0  0  0  0  0  0  0  0  0  0  0  0
    0.6024  144.4521   53.0802 O   0  0  0  0  0  0  0  0  0  0  0  0
    0.7431  142.2525   51.5624 C   0  0  0  0  0  0  0  0  0  0  0  0
    0.2664  142.6482   50.6726 H   0  0  0  0  0  0  0  0  0  0  0  0
   -0.0071  141.8011   52.2076 H   0  0  0  0  0  0  0  0  0  0  0  0
    1.4696  141.4961   51.2716 H   0  0  0  0  0  0  0  0  0  0  0  0
    3.2267  143.2068   55.8647 C   0  0  0  0  0  0  0  0  0  0  0  0
    3.1352  141.8186   56.2027 C   0  0  0  0  0  0  0  0  0  0  0  0
    3.0692  140.6844   56.4484 N   0  0  0  0  0  0  0  0  0  0  0  0
    3.7068  144.1369   56.7429 C   0  0  0  0  0  0  0  0  0  0  0  0
    4.1174  143.7724   57.9705 N   0  0  0  0  0  0  0  0  0  0  0  0
    4.0578  142.7987   58.2495 H   0  0  0  0  0  0  0  0  0  0  0  0
    4.4626  144.4800   58.6113 H   0  0  0  0  0  0  0  0  0  0  0  0
    3.8435  145.4449   56.3970 C   0  0  0  0  0  0  0  0  0  0  0  0
    4.2534  146.1528   57.1068 H   0  0  0  0  0  0  0  0  0  0  0  0
    1.8902  149.2165   52.6577 C   0  0  0  0  0  0  0  0  0  0  0  0
    2.7554  148.4044   51.9641 O   0  0  0  0  0  0  0  0  0  0  0  0
    2.1480  147.3060   51.2800 C   0  0  0  0  0  0  0  0  0  0  0  0
    2.9194  146.6122   50.9329 H   0  0  0  0  0  0  0  0  0  0  0  0
    1.4777  146.7675   51.9569 H   0  0  0  0  0  0  0  0  0  0  0  0
    1.5790  147.6513   50.4124 H   0  0  0  0  0  0  0  0  0  0  0  0
  1  2  1  0
  2  3  2  0
  3  4  1  0
  3  5  1  0
  5  6  1  0
  6  7  1  0
  7  8  1  0
  7  9  1  0
  7 10  1  0
  5 11  2  0
 11 12  1  0
 11 13  1  0
 13 14  1  0
 14 15  1  0
 14 16  1  0
 14 17  1  0
 17 18  2  0
 17 19  1  0
 19 20  1  0
 19 21  1  0
 21 22  2  0
 22 23  1  0
 23 24  1  0
 24 25  1  0
 24 26  1  0
 24 27  1  0
 27 28  2  0
 27 29  2  0
 27 30  1  0
 30 31  1  0
 30 32  1  0
 30 33  1  0
 23 34  2  0
 34 35  1  0
 35 36  3  0
 34 37  1  0
 37 38  1  0
 38 39  1  0
 38 40  1  0
 37 41  2  0
 41 42  1  0
 13 43  2  0
 43 44  1  0
 44 45  1  0
 45 46  1  0
 45 47  1  0
 45 48  1  0
 43  2  1  0
 41 21  1  0
M  END
>  <score>  (117) 
6.98127

$$$$

     RDKit          3D

 48 50  0  0  0  0  0  0  0  0999 V2000
   -0.9213  144.6058   51.3258 H   0  0  0  0  0  0  0  0  0  0  0  0
    0.0305  144.1539   51.5374 C   0  0  0  0  0  0  0  0  0  0  0  0
    0.9993  144.0596   50.5543 N   0  0  0  0  0  0  0  0  0  0  0  0
    2.0047  143.5554   51.2077 C   0  0  0  0  0  0  0  0  0  0  0  0
    2.9953  143.3576   50.8133 H   0  0  0  0  0  0  0  0  0  0  0  0
    1.6274  143.3218   52.5207 N   0  0  0  0  0  0  0  0  0  0  0  0
    2.4745  142.7557   53.5788 C   0  0  0  0  0  0  0  0  0  0  0  0
    1.8934  141.9945   54.0822 H   0  0  0  0  0  0  0  0  0  0  0  0
    3.3719  142.2976   53.1599 H   0  0  0  0  0  0  0  0  0  0  0  0
    2.9140  143.7194   54.6398 C   0  0  0  0  0  0  0  0  0  0  0  0
    3.1114  144.9871   54.3053 N   0  0  0  0  0  0  0  0  0  0  0  0
    3.5947  145.8072   55.2059 C   0  0  0  0  0  0  0  0  0  0  0  0
    3.7428  146.9826   54.5888 N   0  0  0  0  0  0  0  0  0  0  0  0
    3.4352  146.9550   53.6302 H   0  0  0  0  0  0  0  0  0  0  0  0
    3.7481  148.1778   55.2285 C   0  0  0  0  0  0  0  0  0  0  0  0
    3.8219  148.2220   56.4419 O   0  0  0  0  0  0  0  0  0  0  0  0
    3.6942  149.4546   54.4179 C   0  0  0  0  0  0  0  0  0  0  0  0
    4.4200  149.4122   53.6072 H   0  0  0  0  0  0  0  0  0  0  0  0
    3.9554  150.2627   55.0769 H   0  0  0  0  0  0  0  0  0  0  0  0
    2.3392  149.7651   53.8704 C   0  0  0  0  0  0  0  0  0  0  0  0
    1.5611  150.6792   54.5771 C   0  0  0  0  0  0  0  0  0  0  0  0
    1.9417  151.1339   55.4931 H   0  0  0  0  0  0  0  0  0  0  0  0
    0.3072  151.0379   54.1001 C   0  0  0  0  0  0  0  0  0  0  0  0
   -0.3868  151.9760   54.8079 O   0  0  0  0  0  0  0  0  0  0  0  0
   -1.4221  151.4056   55.6083 C   0  0  0  0  0  0  0  0  0  0  0  0
   -2.1484  150.8860   54.9789 H   0  0  0  0  0  0  0  0  0  0  0  0
   -1.0074  150.6891   56.3196 H   0  0  0  0  0  0  0  0  0  0  0  0
   -1.9364  152.1939   56.1666 H   0  0  0  0  0  0  0  0  0  0  0  0
   -0.1835  150.4776   52.9058 C   0  0  0  0  0  0  0  0  0  0  0  0
   -1.9169  150.9762   52.2616 Br  0  0  0  0  0  0  0  0  0  0  0  0
    0.6187  149.5752   52.1828 C   0  0  0  0  0  0  0  0  0  0  0  0
    0.2846  149.1723   51.2321 H   0  0  0  0  0  0  0  0  0  0  0  0
    1.8908  149.2187   52.6595 C   0  0  0  0  0  0  0  0  0  0  0  0
    2.7531  148.4010   51.9689 O   0  0  0  0  0  0  0  0  0  0  0  0
    2.1422  147.3076   51.2794 C   0  0  0  0  0  0  0  0  0  0  0  0
    2.9085  146.5970   50.9572 H   0  0  0  0  0  0  0  0  0  0  0  0
    1.4488  146.7849   51.9431 H   0  0  0  0  0  0  0  0  0  0  0  0
    1.5989  147.6543   50.3968 H   0  0  0  0  0  0  0  0  0  0  0  0
    3.9041  145.4666   56.4969 C   0  0  0  0  0  0  0  0  0  0  0  0
    4.2933  146.1601   57.2280 H   0  0  0  0  0  0  0  0  0  0  0  0
    3.7438  144.1543   56.8137 C   0  0  0  0  0  0  0  0  0  0  0  0
    4.1426  143.7670   58.0415 N   0  0  0  0  0  0  0  0  0  0  0  0
    4.0699  142.7885   58.3021 H   0  0  0  0  0  0  0  0  0  0  0  0
    4.4873  144.4631   58.6984 H   0  0  0  0  0  0  0  0  0  0  0  0
    3.2446  143.2500   55.9035 C   0  0  0  0  0  0  0  0  0  0  0  0
    3.1430  141.8633   56.2208 C   0  0  0  0  0  0  0  0  0  0  0  0
    3.0752  140.7241   56.4477 N   0  0  0  0  0  0  0  0  0  0  0  0
    0.3624  143.7244   52.7316 N   0  0  0  0  0  0  0  0  0  0  0  0
  1  2  1  0
  2  3  1  0
  3  4  2  0
  4  5  1  0
  4  6  1  0
  6  7  1  0
  7  8  1  0
  7  9  1  0
  7 10  1  0
 10 11  2  0
 11 12  1  0
 12 13  1  0
 13 14  1  0
 13 15  1  0
 15 16  2  0
 15 17  1  0
 17 18  1  0
 17 19  1  0
 17 20  1  0
 20 21  2  0
 21 22  1  0
 21 23  1  0
 23 24  1  0
 24 25  1  0
 25 26  1  0
 25 27  1  0
 25 28  1  0
 23 29  2  0
 29 30  1  0
 29 31  1  0
 31 32  1  0
 31 33  2  0
 33 34  1  0
 34 35  1  0
 35 36  1  0
 35 37  1  0
 35 38  1  0
 12 39  2  0
 39 40  1  0
 39 41  1  0
 41 42  1  0
 42 43  1  0
 42 44  1  0
 41 45  2  0
 45 46  1  0
 46 47  3  0
  6 48  1  0
 48  2  2  0
 45 10  1  0
 33 20  1  0
M  END
>  <score>  (118) 
6.98155

$$$$

     RDKit          3D

 48 49  0  0  0  0  0  0  0  0999 V2000
    0.3090  149.2038   51.2570 H   0  0  0  0  0  0  0  0  0  0  0  0
    0.6608  149.6106   52.1976 C   0  0  0  0  0  0  0  0  0  0  0  0
   -0.1419  150.5027   52.9374 C   0  0  0  0  0  0  0  0  0  0  0  0
   -1.8652  150.9831   52.2757 Br  0  0  0  0  0  0  0  0  0  0  0  0
    0.3345  151.0609   54.1327 C   0  0  0  0  0  0  0  0  0  0  0  0
   -0.3786  151.9765   54.8625 O   0  0  0  0  0  0  0  0  0  0  0  0
   -1.4277  151.4048   55.6512 C   0  0  0  0  0  0  0  0  0  0  0  0
   -2.1551  150.8742   55.0266 H   0  0  0  0  0  0  0  0  0  0  0  0
   -1.9457  152.2011   56.1963 H   0  0  0  0  0  0  0  0  0  0  0  0
   -1.0156  150.7043   56.3796 H   0  0  0  0  0  0  0  0  0  0  0  0
    1.5986  150.6942   54.5706 C   0  0  0  0  0  0  0  0  0  0  0  0
    1.9922  151.1476   55.4732 H   0  0  0  0  0  0  0  0  0  0  0  0
    2.3837  149.7885   53.8532 C   0  0  0  0  0  0  0  0  0  0  0  0
    3.7323  149.4867   54.3943 C   0  0  0  0  0  0  0  0  0  0  0  0
    3.9975  150.3712   54.9621 H   0  0  0  0  0  0  0  0  0  0  0  0
    4.4192  149.3565   53.5548 H   0  0  0  0  0  0  0  0  0  0  0  0
    3.7557  148.2376   55.2819 C   0  0  0  0  0  0  0  0  0  0  0  0
    3.8574  148.2959   56.4948 O   0  0  0  0  0  0  0  0  0  0  0  0
    3.7364  147.0194   54.6758 N   0  0  0  0  0  0  0  0  0  0  0  0
    3.5340  146.9708   53.6884 H   0  0  0  0  0  0  0  0  0  0  0  0
    3.5618  145.8328   55.2763 C   0  0  0  0  0  0  0  0  0  0  0  0
    3.0683  145.0302   54.3626 N   0  0  0  0  0  0  0  0  0  0  0  0
    2.9154  143.7143   54.5997 C   0  0  0  0  0  0  0  0  0  0  0  0
    2.4355  142.8386   53.4428 C   0  0  0  0  0  0  0  0  0  0  0  0
    2.5733  141.6184   53.5314 O   0  0  0  0  0  0  0  0  0  0  0  0
    1.8835  143.4750   52.3520 O   0  0  0  0  0  0  0  0  0  0  0  0
    1.4298  142.6742   51.2407 C   0  0  0  0  0  0  0  0  0  0  0  0
    0.9184  143.3296   50.5225 H   0  0  0  0  0  0  0  0  0  0  0  0
    0.7024  141.9267   51.5755 H   0  0  0  0  0  0  0  0  0  0  0  0
    2.5752  141.9741   50.5019 C   0  0  0  0  0  0  0  0  0  0  0  0
    3.3208  142.7093   50.1794 H   0  0  0  0  0  0  0  0  0  0  0  0
    2.1898  141.4639   49.6097 H   0  0  0  0  0  0  0  0  0  0  0  0
    3.0571  141.2292   51.1453 H   0  0  0  0  0  0  0  0  0  0  0  0
    3.2554  143.2210   55.8806 C   0  0  0  0  0  0  0  0  0  0  0  0
    3.1364  141.8391   56.2131 C   0  0  0  0  0  0  0  0  0  0  0  0
    3.0432  140.7072   56.4729 N   0  0  0  0  0  0  0  0  0  0  0  0
    3.7481  144.1158   56.8168 C   0  0  0  0  0  0  0  0  0  0  0  0
    4.1516  143.7163   58.0365 N   0  0  0  0  0  0  0  0  0  0  0  0
    4.5030  144.4249   58.6754 H   0  0  0  0  0  0  0  0  0  0  0  0
    4.0642  142.7374   58.3070 H   0  0  0  0  0  0  0  0  0  0  0  0
    3.9077  145.4418   56.5363 C   0  0  0  0  0  0  0  0  0  0  0  0
    4.3307  146.1269   57.2573 H   0  0  0  0  0  0  0  0  0  0  0  0
    1.9364  149.2428   52.6455 C   0  0  0  0  0  0  0  0  0  0  0  0
    2.7768  148.4017   51.9517 O   0  0  0  0  0  0  0  0  0  0  0  0
    2.1669  147.2949   51.2824 C   0  0  0  0  0  0  0  0  0  0  0  0
    1.6251  147.6327   50.3940 H   0  0  0  0  0  0  0  0  0  0  0  0
    2.9510  146.5949   50.9737 H   0  0  0  0  0  0  0  0  0  0  0  0
    1.4755  146.7665   51.9485 H   0  0  0  0  0  0  0  0  0  0  0  0
  1  2  1  0
  2  3  2  0
  3  4  1  0
  3  5  1  0
  5  6  1  0
  6  7  1  0
  7  8  1  0
  7  9  1  0
  7 10  1  0
  5 11  2  0
 11 12  1  0
 11 13  1  0
 13 14  1  0
 14 15  1  0
 14 16  1  0
 14 17  1  0
 17 18  2  0
 17 19  1  0
 19 20  1  0
 19 21  1  0
 21 22  2  0
 22 23  1  0
 23 24  1  0
 24 25  2  0
 24 26  1  0
 26 27  1  0
 27 28  1  0
 27 29  1  0
 27 30  1  0
 30 31  1  0
 30 32  1  0
 30 33  1  0
 23 34  2  0
 34 35  1  0
 35 36  3  0
 34 37  1  0
 37 38  1  0
 38 39  1  0
 38 40  1  0
 37 41  2  0
 41 42  1  0
 13 43  2  0
 43 44  1  0
 44 45  1  0
 45 46  1  0
 45 47  1  0
 45 48  1  0
 43  2  1  0
 41 21  1  0
M  END
>  <score>  (119) 
6.98434

$$$$

     RDKit          3D

 50 52  0  0  0  0  0  0  0  0999 V2000
    0.2379  149.1403   51.2603 H   0  0  0  0  0  0  0  0  0  0  0  0
    0.6026  149.5673   52.1855 C   0  0  0  0  0  0  0  0  0  0  0  0
   -0.2101  150.4774   52.8824 C   0  0  0  0  0  0  0  0  0  0  0  0
   -1.9453  150.9217   52.2020 Br  0  0  0  0  0  0  0  0  0  0  0  0
    0.2604  151.0631   54.0673 C   0  0  0  0  0  0  0  0  0  0  0  0
   -0.4587  152.0019   54.7563 O   0  0  0  0  0  0  0  0  0  0  0  0
   -1.4639  151.4040   55.5691 C   0  0  0  0  0  0  0  0  0  0  0  0
   -1.9633  152.1774   56.1583 H   0  0  0  0  0  0  0  0  0  0  0  0
   -1.0114  150.6805   56.2525 H   0  0  0  0  0  0  0  0  0  0  0  0
   -2.2051  150.8926   54.9455 H   0  0  0  0  0  0  0  0  0  0  0  0
    1.5097  150.6903   54.5528 C   0  0  0  0  0  0  0  0  0  0  0  0
    1.8454  151.1230   55.4884 H   0  0  0  0  0  0  0  0  0  0  0  0
    2.3313  149.7964   53.8581 C   0  0  0  0  0  0  0  0  0  0  0  0
    3.6813  149.5015   54.4643 C   0  0  0  0  0  0  0  0  0  0  0  0
    4.4524  149.4754   53.6824 H   0  0  0  0  0  0  0  0  0  0  0  0
    3.8897  150.3044   55.1607 H   0  0  0  0  0  0  0  0  0  0  0  0
    3.7285  148.2134   55.2631 C   0  0  0  0  0  0  0  0  0  0  0  0
    3.8253  148.2149   56.4806 O   0  0  0  0  0  0  0  0  0  0  0  0
    3.7652  147.0570   54.5627 N   0  0  0  0  0  0  0  0  0  0  0  0
    3.4686  147.0880   53.6001 H   0  0  0  0  0  0  0  0  0  0  0  0
    3.6432  145.8480   55.1157 C   0  0  0  0  0  0  0  0  0  0  0  0
    3.1957  145.0437   54.1846 N   0  0  0  0  0  0  0  0  0  0  0  0
    3.0049  143.7554   54.4713 C   0  0  0  0  0  0  0  0  0  0  0  0
    2.5413  142.8513   53.3170 C   0  0  1  0  0  0  0  0  0  0  0  0
    3.2162  141.9938   53.2845 H   0  0  0  0  0  0  0  0  0  0  0  0
    1.1822  142.4076   53.4806 O   0  0  0  0  0  0  0  0  0  0  0  0
    0.3044  143.0677   52.5583 C   0  0  0  0  0  0  0  0  0  0  0  0
   -0.1432  142.3529   51.8553 H   0  0  0  0  0  0  0  0  0  0  0  0
   -0.5041  143.5646   53.0982 H   0  0  0  0  0  0  0  0  0  0  0  0
    1.1537  144.0780   51.8216 C   0  0  0  0  0  0  0  0  0  0  0  0
    0.8493  144.2082   50.7788 H   0  0  0  0  0  0  0  0  0  0  0  0
    1.1077  145.0387   52.3389 H   0  0  0  0  0  0  0  0  0  0  0  0
    2.5485  143.5242   51.9351 C   0  0  0  0  0  0  0  0  0  0  0  0
    2.7259  142.7783   51.1534 H   0  0  0  0  0  0  0  0  0  0  0  0
    3.2942  144.3216   51.8428 H   0  0  0  0  0  0  0  0  0  0  0  0
    3.2904  143.2784   55.7636 C   0  0  0  0  0  0  0  0  0  0  0  0
    3.1536  141.8990   56.0929 C   0  0  0  0  0  0  0  0  0  0  0  0
    3.0918  140.7688   56.3551 N   0  0  0  0  0  0  0  0  0  0  0  0
    3.7338  144.1673   56.7293 C   0  0  0  0  0  0  0  0  0  0  0  0
    3.9970  143.7941   58.0220 N   0  0  0  0  0  0  0  0  0  0  0  0
    4.4464  144.4796   58.6220 H   0  0  0  0  0  0  0  0  0  0  0  0
    4.0930  142.8070   58.2635 H   0  0  0  0  0  0  0  0  0  0  0  0
    3.9127  145.4845   56.4112 C   0  0  0  0  0  0  0  0  0  0  0  0
    4.2580  146.1835   57.1599 H   0  0  0  0  0  0  0  0  0  0  0  0
    1.8879  149.2296   52.6502 C   0  0  0  0  0  0  0  0  0  0  0  0
    2.7306  148.3790   51.9748 O   0  0  0  0  0  0  0  0  0  0  0  0
    2.1021  147.3112   51.2615 C   0  0  0  0  0  0  0  0  0  0  0  0
    1.3898  146.7869   51.9090 H   0  0  0  0  0  0  0  0  0  0  0  0
    1.5782  147.6914   50.3778 H   0  0  0  0  0  0  0  0  0  0  0  0
    2.8715  146.6016   50.9387 H   0  0  0  0  0  0  0  0  0  0  0  0
  1  2  1  0
  2  3  2  0
  3  4  1  0
  3  5  1  0
  5  6  1  0
  6  7  1  0
  7  8  1  0
  7  9  1  0
  7 10  1  0
  5 11  2  0
 11 12  1  0
 11 13  1  0
 13 14  1  0
 14 15  1  0
 14 16  1  0
 14 17  1  0
 17 18  2  0
 17 19  1  0
 19 20  1  0
 19 21  1  0
 21 22  2  0
 22 23  1  0
 23 24  1  0
 24 25  1  6
 24 26  1  0
 26 27  1  0
 27 28  1  0
 27 29  1  0
 27 30  1  0
 30 31  1  0
 30 32  1  0
 30 33  1  0
 33 34  1  0
 33 35  1  0
 23 36  2  0
 36 37  1  0
 37 38  3  0
 36 39  1  0
 39 40  1  0
 40 41  1  0
 40 42  1  0
 39 43  2  0
 43 44  1  0
 13 45  2  0
 45 46  1  0
 46 47  1  0
 47 48  1  0
 47 49  1  0
 47 50  1  0
 45  2  1  0
 43 21  1  0
 33 24  1  0
M  END
>  <score>  (120) 
6.98543

$$$$

     RDKit          3D

 47 48  0  0  0  0  0  0  0  0999 V2000
   -0.5096  145.1942   51.2300 H   0  0  0  0  0  0  0  0  0  0  0  0
    0.2804  144.4508   51.3147 C   0  0  0  0  0  0  0  0  0  0  0  0
    0.6934  144.1043   50.3711 H   0  0  0  0  0  0  0  0  0  0  0  0
    0.7816  143.9799   52.5209 C   0  0  0  0  0  0  0  0  0  0  0  0
    0.3591  144.3243   53.4585 H   0  0  0  0  0  0  0  0  0  0  0  0
    1.8511  142.9846   52.6251 C   0  0  0  0  0  0  0  0  0  0  0  0
    1.9648  142.0760   51.8164 O   0  0  0  0  0  0  0  0  0  0  0  0
    2.4860  142.7142   53.7938 N   0  0  0  0  0  0  0  0  0  0  0  0
    2.9668  141.8330   53.8251 H   0  0  0  0  0  0  0  0  0  0  0  0
    2.8702  143.6330   54.7145 C   0  0  0  0  0  0  0  0  0  0  0  0
    2.9632  144.8762   54.2978 N   0  0  0  0  0  0  0  0  0  0  0  0
    3.4648  145.7464   55.1393 C   0  0  0  0  0  0  0  0  0  0  0  0
    3.5780  146.9454   54.5386 N   0  0  0  0  0  0  0  0  0  0  0  0
    3.3370  146.9558   53.5596 H   0  0  0  0  0  0  0  0  0  0  0  0
    3.6765  148.1237   55.2051 C   0  0  0  0  0  0  0  0  0  0  0  0
    3.7865  148.1180   56.4177 O   0  0  0  0  0  0  0  0  0  0  0  0
    3.6766  149.4433   54.4568 C   0  0  0  0  0  0  0  0  0  0  0  0
    3.9298  150.2255   55.1624 H   0  0  0  0  0  0  0  0  0  0  0  0
    4.4356  149.4202   53.6777 H   0  0  0  0  0  0  0  0  0  0  0  0
    2.3399  149.7785   53.8680 C   0  0  0  0  0  0  0  0  0  0  0  0
    1.5410  150.6838   54.5626 C   0  0  0  0  0  0  0  0  0  0  0  0
    1.8955  151.1180   55.4926 H   0  0  0  0  0  0  0  0  0  0  0  0
    0.2920  151.0503   54.0745 C   0  0  0  0  0  0  0  0  0  0  0  0
   -0.4238  151.9812   54.7728 O   0  0  0  0  0  0  0  0  0  0  0  0
   -1.4512  151.4040   55.5818 C   0  0  0  0  0  0  0  0  0  0  0  0
   -2.1912  150.8941   54.9614 H   0  0  0  0  0  0  0  0  0  0  0  0
   -1.9594  152.1789   56.1639 H   0  0  0  0  0  0  0  0  0  0  0  0
   -1.0247  150.6783   56.2749 H   0  0  0  0  0  0  0  0  0  0  0  0
   -0.1846  150.4790   52.8836 C   0  0  0  0  0  0  0  0  0  0  0  0
   -1.9217  150.9349   52.2205 Br  0  0  0  0  0  0  0  0  0  0  0  0
    0.6193  149.5691   52.1821 C   0  0  0  0  0  0  0  0  0  0  0  0
    0.2591  149.1436   51.2530 H   0  0  0  0  0  0  0  0  0  0  0  0
    1.8936  149.2187   52.6595 C   0  0  0  0  0  0  0  0  0  0  0  0
    2.7355  148.3696   51.9813 O   0  0  0  0  0  0  0  0  0  0  0  0
    2.1097  147.2987   51.2628 C   0  0  0  0  0  0  0  0  0  0  0  0
    2.8676  146.5853   50.9262 H   0  0  0  0  0  0  0  0  0  0  0  0
    1.5723  147.6689   50.3863 H   0  0  0  0  0  0  0  0  0  0  0  0
    1.4059  146.7640   51.9056 H   0  0  0  0  0  0  0  0  0  0  0  0
    3.8615  145.4500   56.4221 C   0  0  0  0  0  0  0  0  0  0  0  0
    4.2797  146.1996   57.0701 H   0  0  0  0  0  0  0  0  0  0  0  0
    3.7556  144.1501   56.8170 C   0  0  0  0  0  0  0  0  0  0  0  0
    4.1986  143.8108   58.0499 N   0  0  0  0  0  0  0  0  0  0  0  0
    4.0909  142.8453   58.3559 H   0  0  0  0  0  0  0  0  0  0  0  0
    4.4654  144.5415   58.7038 H   0  0  0  0  0  0  0  0  0  0  0  0
    3.2667  143.2033   55.9595 C   0  0  0  0  0  0  0  0  0  0  0  0
    3.1983  141.8175   56.2913 C   0  0  0  0  0  0  0  0  0  0  0  0
    3.1287  140.6742   56.4880 N   0  0  0  0  0  0  0  0  0  0  0  0
  1  2  1  0
  2  3  1  0
  2  4  2  0
  4  5  1  0
  4  6  1  0
  6  7  2  0
  6  8  1  0
  8  9  1  0
  8 10  1  0
 10 11  2  0
 11 12  1  0
 12 13  1  0
 13 14  1  0
 13 15  1  0
 15 16  2  0
 15 17  1  0
 17 18  1  0
 17 19  1  0
 17 20  1  0
 20 21  2  0
 21 22  1  0
 21 23  1  0
 23 24  1  0
 24 25  1  0
 25 26  1  0
 25 27  1  0
 25 28  1  0
 23 29  2  0
 29 30  1  0
 29 31  1  0
 31 32  1  0
 31 33  2  0
 33 34  1  0
 34 35  1  0
 35 36  1  0
 35 37  1  0
 35 38  1  0
 12 39  2  0
 39 40  1  0
 39 41  1  0
 41 42  1  0
 42 43  1  0
 42 44  1  0
 41 45  2  0
 45 46  1  0
 46 47  3  0
 45 10  1  0
 33 20  1  0
M  END
>  <score>  (121) 
6.98562

$$$$

     RDKit          3D

 56 58  0  0  0  0  0  0  0  0999 V2000
    6.9380  137.9965   49.6648 H   0  0  0  0  0  0  0  0  0  0  0  0
    6.2383  138.6700   50.1526 C   0  0  0  0  0  0  0  0  0  0  0  0
    5.7020  138.3407   51.3983 C   0  0  0  0  0  0  0  0  0  0  0  0
    5.9501  137.3867   51.8530 H   0  0  0  0  0  0  0  0  0  0  0  0
    4.7807  139.1909   52.0117 C   0  0  0  0  0  0  0  0  0  0  0  0
    4.3246  138.9039   52.9534 H   0  0  0  0  0  0  0  0  0  0  0  0
    4.4165  140.3938   51.3940 C   0  0  0  0  0  0  0  0  0  0  0  0
    3.2909  141.2221   51.9313 C   0  0  0  0  0  0  0  0  0  0  0  0
    2.4139  140.5765   52.0333 H   0  0  0  0  0  0  0  0  0  0  0  0
    3.0545  141.9979   51.1955 H   0  0  0  0  0  0  0  0  0  0  0  0
    3.6039  141.8281   53.1917 O   0  0  0  0  0  0  0  0  0  0  0  0
    2.5636  142.7414   53.5969 C   0  0  0  0  0  0  0  0  0  0  0  0
    1.7318  142.1672   54.0152 H   0  0  0  0  0  0  0  0  0  0  0  0
    2.2006  143.2985   52.7248 H   0  0  0  0  0  0  0  0  0  0  0  0
    3.0089  143.7474   54.6331 C   0  0  0  0  0  0  0  0  0  0  0  0
    3.0917  145.0320   54.2562 N   0  0  0  0  0  0  0  0  0  0  0  0
    3.4994  145.9248   55.1271 C   0  0  0  0  0  0  0  0  0  0  0  0
    3.5699  147.1544   54.5837 N   0  0  0  0  0  0  0  0  0  0  0  0
    3.3578  147.2072   53.5983 H   0  0  0  0  0  0  0  0  0  0  0  0
    3.6033  148.2975   55.3102 C   0  0  0  0  0  0  0  0  0  0  0  0
    3.6957  148.2567   56.5246 O   0  0  0  0  0  0  0  0  0  0  0  0
    3.5387  149.6335   54.6158 C   0  0  0  0  0  0  0  0  0  0  0  0
    4.3674  149.7160   53.9228 H   0  0  0  0  0  0  0  0  0  0  0  0
    3.6788  150.4018   55.3685 H   0  0  0  0  0  0  0  0  0  0  0  0
    2.2296  149.8533   53.9116 C   0  0  0  0  0  0  0  0  0  0  0  0
    1.3690  150.7908   54.4899 C   0  0  0  0  0  0  0  0  0  0  0  0
    1.6543  151.3068   55.3985 H   0  0  0  0  0  0  0  0  0  0  0  0
    0.1236  151.0700   53.9420 C   0  0  0  0  0  0  0  0  0  0  0  0
   -0.6867  151.9768   54.5690 O   0  0  0  0  0  0  0  0  0  0  0  0
   -1.6332  151.3696   55.4548 C   0  0  0  0  0  0  0  0  0  0  0  0
   -2.4441  150.9044   54.8855 H   0  0  0  0  0  0  0  0  0  0  0  0
   -2.0619  152.1262   56.1250 H   0  0  0  0  0  0  0  0  0  0  0  0
   -1.1490  150.5989   56.0611 H   0  0  0  0  0  0  0  0  0  0  0  0
   -0.2706  150.4127   52.7734 C   0  0  0  0  0  0  0  0  0  0  0  0
   -1.9773  150.7624   51.9813 Br  0  0  0  0  0  0  0  0  0  0  0  0
    0.5943  149.4835   52.1871 C   0  0  0  0  0  0  0  0  0  0  0  0
    0.2981  148.9772   51.2811 H   0  0  0  0  0  0  0  0  0  0  0  0
    1.8403  149.1651   52.7408 C   0  0  0  0  0  0  0  0  0  0  0  0
    2.6488  148.2092   52.1569 O   0  0  0  0  0  0  0  0  0  0  0  0
    1.9887  147.3161   51.2344 C   0  0  0  0  0  0  0  0  0  0  0  0
    2.7064  146.6351   50.7695 H   0  0  0  0  0  0  0  0  0  0  0  0
    1.4953  147.8758   50.4346 H   0  0  0  0  0  0  0  0  0  0  0  0
    1.2335  146.7116   51.7503 H   0  0  0  0  0  0  0  0  0  0  0  0
    3.8390  145.6153   56.4101 C   0  0  0  0  0  0  0  0  0  0  0  0
    4.2271  146.3465   57.0964 H   0  0  0  0  0  0  0  0  0  0  0  0
    3.6934  144.3326   56.8052 C   0  0  0  0  0  0  0  0  0  0  0  0
    3.9962  144.1046   58.0903 N   0  0  0  0  0  0  0  0  0  0  0  0
    4.2540  143.1577   58.3327 H   0  0  0  0  0  0  0  0  0  0  0  0
    4.4681  144.8851   58.5485 H   0  0  0  0  0  0  0  0  0  0  0  0
    3.2896  143.3519   55.9363 C   0  0  0  0  0  0  0  0  0  0  0  0
    3.1947  141.9896   56.3460 C   0  0  0  0  0  0  0  0  0  0  0  0
    3.1100  140.8636   56.6283 N   0  0  0  0  0  0  0  0  0  0  0  0
    5.0148  140.7566   50.1815 C   0  0  0  0  0  0  0  0  0  0  0  0
    4.7577  141.7067   49.7234 H   0  0  0  0  0  0  0  0  0  0  0  0
    5.8847  139.8738   49.5389 C   0  0  0  0  0  0  0  0  0  0  0  0
    6.3007  140.1436   48.5761 H   0  0  0  0  0  0  0  0  0  0  0  0
  1  2  1  0
  2  3  2  0
  3  4  1  0
  3  5  1  0
  5  6  1  0
  5  7  2  0
  7  8  1  0
  8  9  1  0
  8 10  1  0
  8 11  1  0
 11 12  1  0
 12 13  1  0
 12 14  1  0
 12 15  1  0
 15 16  2  0
 16 17  1  0
 17 18  1  0
 18 19  1  0
 18 20  1  0
 20 21  2  0
 20 22  1  0
 22 23  1  0
 22 24  1  0
 22 25  1  0
 25 26  2  0
 26 27  1  0
 26 28  1  0
 28 29  1  0
 29 30  1  0
 30 31  1  0
 30 32  1  0
 30 33  1  0
 28 34  2  0
 34 35  1  0
 34 36  1  0
 36 37  1  0
 36 38  2  0
 38 39  1  0
 39 40  1  0
 40 41  1  0
 40 42  1  0
 40 43  1  0
 17 44  2  0
 44 45  1  0
 44 46  1  0
 46 47  1  0
 47 48  1  0
 47 49  1  0
 46 50  2  0
 50 51  1  0
 51 52  3  0
  7 53  1  0
 53 54  1  0
 53 55  2  0
 55 56  1  0
 55  2  1  0
 50 15  1  0
 38 25  1  0
M  END
>  <score>  (122) 
6.98579

$$$$

     RDKit          3D

 49 51  0  0  0  0  0  0  0  0999 V2000
    0.2384  149.1192   51.2620 H   0  0  0  0  0  0  0  0  0  0  0  0
    0.5986  149.5562   52.1879 C   0  0  0  0  0  0  0  0  0  0  0  0
   -0.2190  150.4729   52.8719 C   0  0  0  0  0  0  0  0  0  0  0  0
   -1.9572  150.9129   52.1972 Br  0  0  0  0  0  0  0  0  0  0  0  0
    0.2441  151.0629   54.0578 C   0  0  0  0  0  0  0  0  0  0  0  0
   -0.4704  152.0025   54.7445 O   0  0  0  0  0  0  0  0  0  0  0  0
   -1.4685  151.4052   55.5646 C   0  0  0  0  0  0  0  0  0  0  0  0
   -1.9680  152.1753   56.1581 H   0  0  0  0  0  0  0  0  0  0  0  0
   -2.2092  150.8945   54.9430 H   0  0  0  0  0  0  0  0  0  0  0  0
   -1.0139  150.6781   56.2418 H   0  0  0  0  0  0  0  0  0  0  0  0
    1.4887  150.7079   54.5541 C   0  0  0  0  0  0  0  0  0  0  0  0
    1.8279  151.1456   55.4860 H   0  0  0  0  0  0  0  0  0  0  0  0
    2.3216  149.8300   53.8690 C   0  0  0  0  0  0  0  0  0  0  0  0
    3.6769  149.6199   54.4821 C   0  0  0  0  0  0  0  0  0  0  0  0
    3.8789  150.4803   55.1095 H   0  0  0  0  0  0  0  0  0  0  0  0
    4.4345  149.5613   53.6975 H   0  0  0  0  0  0  0  0  0  0  0  0
    3.7694  148.3722   55.3351 C   0  0  0  0  0  0  0  0  0  0  0  0
    3.8220  148.3878   56.5508 O   0  0  0  0  0  0  0  0  0  0  0  0
    3.9187  147.2193   54.6573 N   0  0  0  0  0  0  0  0  0  0  0  0
    3.6156  147.2142   53.6946 H   0  0  0  0  0  0  0  0  0  0  0  0
    3.9302  146.0055   55.1999 C   0  0  0  0  0  0  0  0  0  0  0  0
    3.6459  145.2290   54.1949 N   0  0  0  0  0  0  0  0  0  0  0  0
    3.3996  143.9415   54.4037 C   0  0  0  0  0  0  0  0  0  0  0  0
    2.8023  143.1924   53.2535 C   0  0  0  0  0  0  0  0  0  0  0  0
    2.9337  143.2800   51.9306 N   0  0  0  0  0  0  0  0  0  0  0  0
    1.9792  142.4772   51.3781 N   0  0  0  0  0  0  0  0  0  0  0  0
    1.8087  142.1684   49.9558 C   0  0  0  0  0  0  0  0  0  0  0  0
    1.6780  141.0948   49.8232 H   0  0  0  0  0  0  0  0  0  0  0  0
    2.6801  142.4799   49.3703 H   0  0  0  0  0  0  0  0  0  0  0  0
    0.9083  142.6625   49.5908 H   0  0  0  0  0  0  0  0  0  0  0  0
    1.1896  141.9162   52.3501 C   0  0  0  0  0  0  0  0  0  0  0  0
    0.3582  141.2561   52.1562 H   0  0  0  0  0  0  0  0  0  0  0  0
    1.7212  142.3037   53.5405 C   0  0  0  0  0  0  0  0  0  0  0  0
    1.4183  142.0146   54.5387 H   0  0  0  0  0  0  0  0  0  0  0  0
    3.5084  143.4168   55.7088 C   0  0  0  0  0  0  0  0  0  0  0  0
    3.2646  142.0345   55.9688 C   0  0  0  0  0  0  0  0  0  0  0  0
    3.0428  140.9078   56.1630 N   0  0  0  0  0  0  0  0  0  0  0  0
    3.8308  144.2795   56.7454 C   0  0  0  0  0  0  0  0  0  0  0  0
    3.9253  143.8410   58.0254 N   0  0  0  0  0  0  0  0  0  0  0  0
    4.1014  142.8474   58.1327 H   0  0  0  0  0  0  0  0  0  0  0  0
    4.4375  144.4468   58.6570 H   0  0  0  0  0  0  0  0  0  0  0  0
    4.0413  145.6120   56.5103 C   0  0  0  0  0  0  0  0  0  0  0  0
    4.2309  146.3049   57.3207 H   0  0  0  0  0  0  0  0  0  0  0  0
    1.8860  149.2326   52.6672 C   0  0  0  0  0  0  0  0  0  0  0  0
    2.7340  148.3852   51.9916 O   0  0  0  0  0  0  0  0  0  0  0  0
    2.1074  147.3166   51.2703 C   0  0  0  0  0  0  0  0  0  0  0  0
    2.8744  146.6149   50.9258 H   0  0  0  0  0  0  0  0  0  0  0  0
    1.5663  147.7007   50.3993 H   0  0  0  0  0  0  0  0  0  0  0  0
    1.4082  146.7736   51.9171 H   0  0  0  0  0  0  0  0  0  0  0  0
  1  2  1  0
  2  3  2  0
  3  4  1  0
  3  5  1  0
  5  6  1  0
  6  7  1  0
  7  8  1  0
  7  9  1  0
  7 10  1  0
  5 11  2  0
 11 12  1  0
 11 13  1  0
 13 14  1  0
 14 15  1  0
 14 16  1  0
 14 17  1  0
 17 18  2  0
 17 19  1  0
 19 20  1  0
 19 21  1  0
 21 22  2  0
 22 23  1  0
 23 24  1  0
 24 25  2  0
 25 26  1  0
 26 27  1  0
 27 28  1  0
 27 29  1  0
 27 30  1  0
 26 31  1  0
 31 32  1  0
 31 33  2  0
 33 34  1  0
 23 35  2  0
 35 36  1  0
 36 37  3  0
 35 38  1  0
 38 39  1  0
 39 40  1  0
 39 41  1  0
 38 42  2  0
 42 43  1  0
 13 44  2  0
 44 45  1  0
 45 46  1  0
 46 47  1  0
 46 48  1  0
 46 49  1  0
 44  2  1  0
 42 21  1  0
 33 24  1  0
M  END
>  <score>  (123) 
6.98585

$$$$

     RDKit          3D

 55 57  0  0  0  0  0  0  0  0999 V2000
    0.3023  149.1990   51.2471 H   0  0  0  0  0  0  0  0  0  0  0  0
    0.6560  149.6029   52.1927 C   0  0  0  0  0  0  0  0  0  0  0  0
   -0.1455  150.4984   52.9323 C   0  0  0  0  0  0  0  0  0  0  0  0
   -1.8748  150.9852   52.2758 Br  0  0  0  0  0  0  0  0  0  0  0  0
    0.3299  151.0584   54.1307 C   0  0  0  0  0  0  0  0  0  0  0  0
   -0.3803  151.9754   54.8585 O   0  0  0  0  0  0  0  0  0  0  0  0
   -1.4265  151.4041   55.6466 C   0  0  0  0  0  0  0  0  0  0  0  0
   -2.1515  150.8761   55.0205 H   0  0  0  0  0  0  0  0  0  0  0  0
   -1.9415  152.2008   56.1901 H   0  0  0  0  0  0  0  0  0  0  0  0
   -1.0132  150.7024   56.3713 H   0  0  0  0  0  0  0  0  0  0  0  0
    1.5941  150.6905   54.5747 C   0  0  0  0  0  0  0  0  0  0  0  0
    1.9889  151.1435   55.4736 H   0  0  0  0  0  0  0  0  0  0  0  0
    2.3805  149.7897   53.8581 C   0  0  0  0  0  0  0  0  0  0  0  0
    3.7261  149.4789   54.4017 C   0  0  0  0  0  0  0  0  0  0  0  0
    4.4140  149.3652   53.5644 H   0  0  0  0  0  0  0  0  0  0  0  0
    3.9952  150.3540   54.9754 H   0  0  0  0  0  0  0  0  0  0  0  0
    3.7564  148.2213   55.2745 C   0  0  0  0  0  0  0  0  0  0  0  0
    3.8539  148.2884   56.4906 O   0  0  0  0  0  0  0  0  0  0  0  0
    3.7319  147.0054   54.6639 N   0  0  0  0  0  0  0  0  0  0  0  0
    3.5130  146.9507   53.6802 H   0  0  0  0  0  0  0  0  0  0  0  0
    3.5556  145.8186   55.2699 C   0  0  0  0  0  0  0  0  0  0  0  0
    3.0407  145.0024   54.3793 N   0  0  0  0  0  0  0  0  0  0  0  0
    2.8868  143.7009   54.6572 C   0  0  0  0  0  0  0  0  0  0  0  0
    2.2618  142.7720   53.5964 C   0  0  0  0  0  0  0  0  0  0  0  0
    1.1827  142.7942   53.7331 H   0  0  0  0  0  0  0  0  0  0  0  0
    2.6121  141.7556   53.8064 H   0  0  0  0  0  0  0  0  0  0  0  0
    2.5294  143.0758   52.1596 N   0  0  0  0  0  0  0  0  0  0  0  0
    1.5717  142.5892   51.1579 C   0  0  0  0  0  0  0  0  0  0  0  0
    0.5698  142.9448   51.4200 H   0  0  0  0  0  0  0  0  0  0  0  0
    1.5653  141.4956   51.1688 H   0  0  0  0  0  0  0  0  0  0  0  0
    1.9608  143.1009   49.7575 C   0  0  0  0  0  0  0  0  0  0  0  0
    1.8545  144.1886   49.7310 H   0  0  0  0  0  0  0  0  0  0  0  0
    1.2770  142.6740   49.0204 H   0  0  0  0  0  0  0  0  0  0  0  0
    3.3197  142.7682   49.4132 O   0  0  0  0  0  0  0  0  0  0  0  0
    4.2484  143.3198   50.3644 C   0  0  0  0  0  0  0  0  0  0  0  0
    4.2079  144.4105   50.3286 H   0  0  0  0  0  0  0  0  0  0  0  0
    5.2681  143.0139   50.1202 H   0  0  0  0  0  0  0  0  0  0  0  0
    3.9243  142.8519   51.7819 C   0  0  0  0  0  0  0  0  0  0  0  0
    4.4937  143.4274   52.4942 H   0  0  0  0  0  0  0  0  0  0  0  0
    4.1745  141.7904   51.8754 H   0  0  0  0  0  0  0  0  0  0  0  0
    3.2632  143.2158   55.9122 C   0  0  0  0  0  0  0  0  0  0  0  0
    3.1436  141.8298   56.2389 C   0  0  0  0  0  0  0  0  0  0  0  0
    3.0385  140.6919   56.4571 N   0  0  0  0  0  0  0  0  0  0  0  0
    3.7621  144.1213   56.8245 C   0  0  0  0  0  0  0  0  0  0  0  0
    4.1626  143.7219   58.0481 N   0  0  0  0  0  0  0  0  0  0  0  0
    4.5072  144.4226   58.6961 H   0  0  0  0  0  0  0  0  0  0  0  0
    4.0693  142.7468   58.3160 H   0  0  0  0  0  0  0  0  0  0  0  0
    3.9139  145.4484   56.5344 C   0  0  0  0  0  0  0  0  0  0  0  0
    4.3368  146.1365   57.2582 H   0  0  0  0  0  0  0  0  0  0  0  0
    1.9343  149.2381   52.6506 C   0  0  0  0  0  0  0  0  0  0  0  0
    2.7739  148.4032   51.9485 O   0  0  0  0  0  0  0  0  0  0  0  0
    2.1647  147.2953   51.2814 C   0  0  0  0  0  0  0  0  0  0  0  0
    1.4778  146.7674   51.9520 H   0  0  0  0  0  0  0  0  0  0  0  0
    2.9492  146.5978   50.9690 H   0  0  0  0  0  0  0  0  0  0  0  0
    1.6193  147.6362   50.3970 H   0  0  0  0  0  0  0  0  0  0  0  0
  1  2  1  0
  2  3  2  0
  3  4  1  0
  3  5  1  0
  5  6  1  0
  6  7  1  0
  7  8  1  0
  7  9  1  0
  7 10  1  0
  5 11  2  0
 11 12  1  0
 11 13  1  0
 13 14  1  0
 14 15  1  0
 14 16  1  0
 14 17  1  0
 17 18  2  0
 17 19  1  0
 19 20  1  0
 19 21  1  0
 21 22  2  0
 22 23  1  0
 23 24  1  0
 24 25  1  0
 24 26  1  0
 24 27  1  0
 27 28  1  0
 28 29  1  0
 28 30  1  0
 28 31  1  0
 31 32  1  0
 31 33  1  0
 31 34  1  0
 34 35  1  0
 35 36  1  0
 35 37  1  0
 35 38  1  0
 38 39  1  0
 38 40  1  0
 23 41  2  0
 41 42  1  0
 42 43  3  0
 41 44  1  0
 44 45  1  0
 45 46  1  0
 45 47  1  0
 44 48  2  0
 48 49  1  0
 13 50  2  0
 50 51  1  0
 51 52  1  0
 52 53  1  0
 52 54  1  0
 52 55  1  0
 50  2  1  0
 48 21  1  0
 38 27  1  0
M  END
>  <score>  (124) 
6.9859

$$$$

     RDKit          3D

 45 47  0  0  0  0  0  0  0  0999 V2000
    1.5205  140.5736   51.8539 H   0  0  0  0  0  0  0  0  0  0  0  0
    1.9202  141.5191   52.1996 C   0  0  0  0  0  0  0  0  0  0  0  0
    1.8369  142.6957   51.4718 N   0  0  0  0  0  0  0  0  0  0  0  0
    2.4268  143.5772   52.2246 C   0  0  0  0  0  0  0  0  0  0  0  0
    2.5700  144.6367   52.0077 H   0  0  0  0  0  0  0  0  0  0  0  0
    2.8026  142.9759   53.3934 N   0  0  0  0  0  0  0  0  0  0  0  0
    3.2138  143.7625   54.4680 C   0  0  0  0  0  0  0  0  0  0  0  0
    3.3434  145.0499   54.1787 N   0  0  0  0  0  0  0  0  0  0  0  0
    3.6714  145.8688   55.1338 C   0  0  0  0  0  0  0  0  0  0  0  0
    3.7505  147.0689   54.5687 N   0  0  0  0  0  0  0  0  0  0  0  0
    3.4597  147.0817   53.6046 H   0  0  0  0  0  0  0  0  0  0  0  0
    3.7325  148.2311   55.2470 C   0  0  0  0  0  0  0  0  0  0  0  0
    3.8041  148.2415   56.4617 O   0  0  0  0  0  0  0  0  0  0  0  0
    3.6904  149.5062   54.4346 C   0  0  0  0  0  0  0  0  0  0  0  0
    4.4443  149.4741   53.6354 H   0  0  0  0  0  0  0  0  0  0  0  0
    3.9019  150.3099   55.1277 H   0  0  0  0  0  0  0  0  0  0  0  0
    2.3339  149.7855   53.8633 C   0  0  0  0  0  0  0  0  0  0  0  0
    1.5270  150.6770   54.5664 C   0  0  0  0  0  0  0  0  0  0  0  0
    1.8793  151.1242   55.4902 H   0  0  0  0  0  0  0  0  0  0  0  0
    0.2808  151.0459   54.0810 C   0  0  0  0  0  0  0  0  0  0  0  0
   -0.4222  151.9880   54.7722 O   0  0  0  0  0  0  0  0  0  0  0  0
   -1.4389  151.4040   55.5803 C   0  0  0  0  0  0  0  0  0  0  0  0
   -2.1734  150.8912   54.9530 H   0  0  0  0  0  0  0  0  0  0  0  0
   -1.0067  150.6841   56.2791 H   0  0  0  0  0  0  0  0  0  0  0  0
   -1.9418  152.1851   56.1556 H   0  0  0  0  0  0  0  0  0  0  0  0
   -0.2054  150.4694   52.8980 C   0  0  0  0  0  0  0  0  0  0  0  0
   -1.9374  150.9521   52.2315 Br  0  0  0  0  0  0  0  0  0  0  0  0
    0.6049  149.5673   52.1879 C   0  0  0  0  0  0  0  0  0  0  0  0
    0.2612  149.1515   51.2483 H   0  0  0  0  0  0  0  0  0  0  0  0
    1.8857  149.2251   52.6582 C   0  0  0  0  0  0  0  0  0  0  0  0
    2.7381  148.3880   51.9811 O   0  0  0  0  0  0  0  0  0  0  0  0
    2.1209  147.3141   51.2697 C   0  0  0  0  0  0  0  0  0  0  0  0
    1.5761  147.6835   50.3963 H   0  0  0  0  0  0  0  0  0  0  0  0
    1.4289  146.7776   51.9254 H   0  0  0  0  0  0  0  0  0  0  0  0
    2.8900  146.6138   50.9306 H   0  0  0  0  0  0  0  0  0  0  0  0
    3.9038  145.5132   56.4331 C   0  0  0  0  0  0  0  0  0  0  0  0
    4.2217  146.2043   57.1986 H   0  0  0  0  0  0  0  0  0  0  0  0
    3.7463  144.1963   56.7241 C   0  0  0  0  0  0  0  0  0  0  0  0
    3.9585  143.8050   57.9985 N   0  0  0  0  0  0  0  0  0  0  0  0
    4.0671  142.8059   58.1688 H   0  0  0  0  0  0  0  0  0  0  0  0
    4.4483  144.4664   58.5952 H   0  0  0  0  0  0  0  0  0  0  0  0
    3.3966  143.2928   55.7543 C   0  0  0  0  0  0  0  0  0  0  0  0
    3.2040  141.9209   56.0669 C   0  0  0  0  0  0  0  0  0  0  0  0
    3.0562  140.7930   56.3037 N   0  0  0  0  0  0  0  0  0  0  0  0
    2.5180  141.6436   53.3571 N   0  0  0  0  0  0  0  0  0  0  0  0
  1  2  1  0
  2  3  1  0
  3  4  2  0
  4  5  1  0
  4  6  1  0
  6  7  1  0
  7  8  2  0
  8  9  1  0
  9 10  1  0
 10 11  1  0
 10 12  1  0
 12 13  2  0
 12 14  1  0
 14 15  1  0
 14 16  1  0
 14 17  1  0
 17 18  2  0
 18 19  1  0
 18 20  1  0
 20 21  1  0
 21 22  1  0
 22 23  1  0
 22 24  1  0
 22 25  1  0
 20 26  2  0
 26 27  1  0
 26 28  1  0
 28 29  1  0
 28 30  2  0
 30 31  1  0
 31 32  1  0
 32 33  1  0
 32 34  1  0
 32 35  1  0
  9 36  2  0
 36 37  1  0
 36 38  1  0
 38 39  1  0
 39 40  1  0
 39 41  1  0
 38 42  2  0
 42 43  1  0
 43 44  3  0
  6 45  1  0
 45  2  2  0
 42  7  1  0
 30 17  1  0
M  END
>  <score>  (125) 
6.9861

$$$$

     RDKit          3D

 53 54  0  0  0  0  0  0  0  0999 V2000
    0.3027  149.2004   51.2485 H   0  0  0  0  0  0  0  0  0  0  0  0
    0.6570  149.6028   52.1932 C   0  0  0  0  0  0  0  0  0  0  0  0
   -0.1466  150.4994   52.9304 C   0  0  0  0  0  0  0  0  0  0  0  0
   -1.8751  150.9834   52.2726 Br  0  0  0  0  0  0  0  0  0  0  0  0
    0.3312  151.0589   54.1311 C   0  0  0  0  0  0  0  0  0  0  0  0
   -0.3823  151.9780   54.8606 O   0  0  0  0  0  0  0  0  0  0  0  0
   -1.4276  151.4048   55.6483 C   0  0  0  0  0  0  0  0  0  0  0  0
   -2.1529  150.8762   55.0212 H   0  0  0  0  0  0  0  0  0  0  0  0
   -1.0136  150.7023   56.3739 H   0  0  0  0  0  0  0  0  0  0  0  0
   -1.9448  152.2014   56.1928 H   0  0  0  0  0  0  0  0  0  0  0  0
    1.5954  150.6944   54.5756 C   0  0  0  0  0  0  0  0  0  0  0  0
    1.9890  151.1463   55.4781 H   0  0  0  0  0  0  0  0  0  0  0  0
    2.3815  149.7895   53.8579 C   0  0  0  0  0  0  0  0  0  0  0  0
    3.7284  149.4781   54.3989 C   0  0  0  0  0  0  0  0  0  0  0  0
    4.4222  149.3646   53.5635 H   0  0  0  0  0  0  0  0  0  0  0  0
    4.0031  150.3523   54.9736 H   0  0  0  0  0  0  0  0  0  0  0  0
    3.7567  148.2273   55.2770 C   0  0  0  0  0  0  0  0  0  0  0  0
    3.8497  148.2944   56.4905 O   0  0  0  0  0  0  0  0  0  0  0  0
    3.7213  147.0125   54.6617 N   0  0  0  0  0  0  0  0  0  0  0  0
    3.5215  146.9653   53.6761 H   0  0  0  0  0  0  0  0  0  0  0  0
    3.5345  145.8345   55.2655 C   0  0  0  0  0  0  0  0  0  0  0  0
    3.0282  145.0197   54.3673 N   0  0  0  0  0  0  0  0  0  0  0  0
    2.9200  143.7155   54.6562 C   0  0  0  0  0  0  0  0  0  0  0  0
    2.3990  142.7824   53.5670 C   0  0  0  0  0  0  0  0  0  0  0  0
    1.7710  143.3826   52.9028 H   0  0  0  0  0  0  0  0  0  0  0  0
    1.7516  142.0594   54.0648 H   0  0  0  0  0  0  0  0  0  0  0  0
    3.4281  142.0688   52.7479 N   0  0  0  0  0  0  0  0  0  0  0  0
    3.9938  141.4213   53.3037 H   0  0  0  0  0  0  0  0  0  0  0  0
    3.0097  141.4324   51.5023 C   0  0  0  0  0  0  0  0  0  0  0  0
    2.0516  140.9157   51.6418 H   0  0  0  0  0  0  0  0  0  0  0  0
    4.1118  140.4484   51.1452 C   0  0  0  0  0  0  0  0  0  0  0  0
    4.1366  139.6412   51.8755 H   0  0  0  0  0  0  0  0  0  0  0  0
    5.0891  140.9364   51.1559 H   0  0  0  0  0  0  0  0  0  0  0  0
    3.9440  140.0227   50.1531 H   0  0  0  0  0  0  0  0  0  0  0  0
    2.8733  142.4740   50.4049 C   0  0  0  0  0  0  0  0  0  0  0  0
    2.1199  143.2199   50.6770 H   0  0  0  0  0  0  0  0  0  0  0  0
    3.8327  142.9795   50.2512 H   0  0  0  0  0  0  0  0  0  0  0  0
    2.5743  141.9872   49.4714 H   0  0  0  0  0  0  0  0  0  0  0  0
    3.2584  143.2314   55.9171 C   0  0  0  0  0  0  0  0  0  0  0  0
    3.1392  141.8410   56.2322 C   0  0  0  0  0  0  0  0  0  0  0  0
    3.0442  140.7024   56.4482 N   0  0  0  0  0  0  0  0  0  0  0  0
    3.7482  144.1345   56.8327 C   0  0  0  0  0  0  0  0  0  0  0  0
    4.1571  143.7285   58.0478 N   0  0  0  0  0  0  0  0  0  0  0  0
    4.0679  142.7488   58.3134 H   0  0  0  0  0  0  0  0  0  0  0  0
    4.5103  144.4238   58.6999 H   0  0  0  0  0  0  0  0  0  0  0  0
    3.9012  145.4592   56.5314 C   0  0  0  0  0  0  0  0  0  0  0  0
    4.3389  146.1411   57.2480 H   0  0  0  0  0  0  0  0  0  0  0  0
    1.9324  149.2394   52.6501 C   0  0  0  0  0  0  0  0  0  0  0  0
    2.7754  148.4025   51.9505 O   0  0  0  0  0  0  0  0  0  0  0  0
    2.1649  147.2960   51.2808 C   0  0  0  0  0  0  0  0  0  0  0  0
    1.6231  147.6362   50.3924 H   0  0  0  0  0  0  0  0  0  0  0  0
    2.9489  146.5951   50.9709 H   0  0  0  0  0  0  0  0  0  0  0  0
    1.4739  146.7696   51.9500 H   0  0  0  0  0  0  0  0  0  0  0  0
  1  2  1  0
  2  3  2  0
  3  4  1  0
  3  5  1  0
  5  6  1  0
  6  7  1  0
  7  8  1  0
  7  9  1  0
  7 10  1  0
  5 11  2  0
 11 12  1  0
 11 13  1  0
 13 14  1  0
 14 15  1  0
 14 16  1  0
 14 17  1  0
 17 18  2  0
 17 19  1  0
 19 20  1  0
 19 21  1  0
 21 22  2  0
 22 23  1  0
 23 24  1  0
 24 25  1  0
 24 26  1  0
 24 27  1  0
 27 28  1  0
 27 29  1  0
 29 30  1  0
 29 31  1  0
 31 32  1  0
 31 33  1  0
 31 34  1  0
 29 35  1  0
 35 36  1  0
 35 37  1  0
 35 38  1  0
 23 39  2  0
 39 40  1  0
 40 41  3  0
 39 42  1  0
 42 43  1  0
 43 44  1  0
 43 45  1  0
 42 46  2  0
 46 47  1  0
 13 48  2  0
 48 49  1  0
 49 50  1  0
 50 51  1  0
 50 52  1  0
 50 53  1  0
 48  2  1  0
 46 21  1  0
M  END
>  <score>  (126) 
6.98729

$$$$

     RDKit          3D

 52 54  0  0  0  0  0  0  0  0999 V2000
    1.0650  141.3324   50.0087 H   0  0  0  0  0  0  0  0  0  0  0  0
    1.5397  141.7689   50.8801 C   0  0  0  0  0  0  0  0  0  0  0  0
    2.7386  142.4684   50.7315 C   0  0  0  0  0  0  0  0  0  0  0  0
    3.2552  142.5195   49.4687 O   0  0  0  0  0  0  0  0  0  0  0  0
    4.3577  143.4162   49.2732 C   0  0  0  0  0  0  0  0  0  0  0  0
    4.6770  143.3666   48.2288 H   0  0  0  0  0  0  0  0  0  0  0  0
    4.0843  144.4522   49.4964 H   0  0  0  0  0  0  0  0  0  0  0  0
    5.1993  143.1460   49.9160 H   0  0  0  0  0  0  0  0  0  0  0  0
    3.3539  143.0728   51.7676 N   0  0  0  0  0  0  0  0  0  0  0  0
    2.8175  142.9996   53.0104 C   0  0  0  0  0  0  0  0  0  0  0  0
    3.3250  143.8045   54.1983 C   0  0  0  0  0  0  0  0  0  0  0  0
    3.5434  145.1157   53.9997 N   0  0  0  0  0  0  0  0  0  0  0  0
    3.7950  145.9144   55.0071 C   0  0  0  0  0  0  0  0  0  0  0  0
    3.8498  147.1641   54.5357 N   0  0  0  0  0  0  0  0  0  0  0  0
    3.6354  147.2278   53.5514 H   0  0  0  0  0  0  0  0  0  0  0  0
    3.7238  148.2901   55.2822 C   0  0  0  0  0  0  0  0  0  0  0  0
    3.7903  148.2496   56.4982 O   0  0  0  0  0  0  0  0  0  0  0  0
    3.6364  149.6106   54.5348 C   0  0  0  0  0  0  0  0  0  0  0  0
    4.4151  149.6190   53.7740 H   0  0  0  0  0  0  0  0  0  0  0  0
    3.8127  150.4478   55.2143 H   0  0  0  0  0  0  0  0  0  0  0  0
    2.2977  149.8369   53.8888 C   0  0  0  0  0  0  0  0  0  0  0  0
    1.4587  150.7300   54.5500 C   0  0  0  0  0  0  0  0  0  0  0  0
    1.7789  151.1725   55.4888 H   0  0  0  0  0  0  0  0  0  0  0  0
    0.2210  151.0766   54.0237 C   0  0  0  0  0  0  0  0  0  0  0  0
   -0.5285  152.0040   54.6917 O   0  0  0  0  0  0  0  0  0  0  0  0
   -1.5082  151.3995   55.5348 C   0  0  0  0  0  0  0  0  0  0  0  0
   -1.0441  150.6627   56.1957 H   0  0  0  0  0  0  0  0  0  0  0  0
   -1.9933  152.1642   56.1479 H   0  0  0  0  0  0  0  0  0  0  0  0
   -2.2689  150.8997   54.9302 H   0  0  0  0  0  0  0  0  0  0  0  0
   -0.2266  150.4625   52.8431 C   0  0  0  0  0  0  0  0  0  0  0  0
   -1.9638  150.8657   52.1468 Br  0  0  0  0  0  0  0  0  0  0  0  0
    0.5978  149.5409   52.1820 C   0  0  0  0  0  0  0  0  0  0  0  0
    0.2390  149.0685   51.2728 H   0  0  0  0  0  0  0  0  0  0  0  0
    1.8778  149.2285   52.6814 C   0  0  0  0  0  0  0  0  0  0  0  0
    2.7150  148.3475   52.0327 O   0  0  0  0  0  0  0  0  0  0  0  0
    2.0775  147.3157   51.2586 C   0  0  0  0  0  0  0  0  0  0  0  0
    1.3680  146.7583   51.8763 H   0  0  0  0  0  0  0  0  0  0  0  0
    1.5380  147.7289   50.4008 H   0  0  0  0  0  0  0  0  0  0  0  0
    2.8273  146.6107   50.8859 H   0  0  0  0  0  0  0  0  0  0  0  0
    3.9132  145.5154   56.3008 C   0  0  0  0  0  0  0  0  0  0  0  0
    4.1505  146.2206   57.0804 H   0  0  0  0  0  0  0  0  0  0  0  0
    3.7272  144.1893   56.5389 C   0  0  0  0  0  0  0  0  0  0  0  0
    3.8731  143.7879   57.8169 N   0  0  0  0  0  0  0  0  0  0  0  0
    4.2918  144.4653   58.4505 H   0  0  0  0  0  0  0  0  0  0  0  0
    4.0156  142.7927   57.9734 H   0  0  0  0  0  0  0  0  0  0  0  0
    3.4069  143.3063   55.5157 C   0  0  0  0  0  0  0  0  0  0  0  0
    3.1717  141.9290   55.8101 C   0  0  0  0  0  0  0  0  0  0  0  0
    3.0242  140.8020   56.0610 N   0  0  0  0  0  0  0  0  0  0  0  0
    1.6412  142.2599   53.1902 C   0  0  0  0  0  0  0  0  0  0  0  0
    1.2246  142.2227   54.1807 H   0  0  0  0  0  0  0  0  0  0  0  0
    0.9843  141.6344   52.1367 C   0  0  0  0  0  0  0  0  0  0  0  0
    0.0595  141.0773   52.2727 H   0  0  0  0  0  0  0  0  0  0  0  0
  1  2  1  0
  2  3  2  0
  3  4  1  0
  4  5  1  0
  5  6  1  0
  5  7  1  0
  5  8  1  0
  3  9  1  0
  9 10  2  0
 10 11  1  0
 11 12  2  0
 12 13  1  0
 13 14  1  0
 14 15  1  0
 14 16  1  0
 16 17  2  0
 16 18  1  0
 18 19  1  0
 18 20  1  0
 18 21  1  0
 21 22  2  0
 22 23  1  0
 22 24  1  0
 24 25  1  0
 25 26  1  0
 26 27  1  0
 26 28  1  0
 26 29  1  0
 24 30  2  0
 30 31  1  0
 30 32  1  0
 32 33  1  0
 32 34  2  0
 34 35  1  0
 35 36  1  0
 36 37  1  0
 36 38  1  0
 36 39  1  0
 13 40  2  0
 40 41  1  0
 40 42  1  0
 42 43  1  0
 43 44  1  0
 43 45  1  0
 42 46  2  0
 46 47  1  0
 47 48  3  0
 10 49  1  0
 49 50  1  0
 49 51  2  0
 51 52  1  0
 51  2  1  0
 46 11  1  0
 34 21  1  0
M  END
>  <score>  (127) 
6.98808

$$$$

     RDKit          3D

 48 50  0  0  0  0  0  0  0  0999 V2000
    0.2272  149.0970   51.2751 H   0  0  0  0  0  0  0  0  0  0  0  0
    0.5937  149.5446   52.1890 C   0  0  0  0  0  0  0  0  0  0  0  0
   -0.2265  150.4622   52.8600 C   0  0  0  0  0  0  0  0  0  0  0  0
   -1.9628  150.8901   52.1751 Br  0  0  0  0  0  0  0  0  0  0  0  0
    0.2328  151.0612   54.0387 C   0  0  0  0  0  0  0  0  0  0  0  0
   -0.4923  152.0012   54.7111 O   0  0  0  0  0  0  0  0  0  0  0  0
   -1.4838  151.4030   55.5396 C   0  0  0  0  0  0  0  0  0  0  0  0
   -1.0185  150.6694   56.2040 H   0  0  0  0  0  0  0  0  0  0  0  0
   -2.2352  150.8979   54.9241 H   0  0  0  0  0  0  0  0  0  0  0  0
   -1.9741  152.1714   56.1459 H   0  0  0  0  0  0  0  0  0  0  0  0
    1.4719  150.7040   54.5485 C   0  0  0  0  0  0  0  0  0  0  0  0
    1.7914  151.1348   55.4920 H   0  0  0  0  0  0  0  0  0  0  0  0
    2.3051  149.8141   53.8752 C   0  0  0  0  0  0  0  0  0  0  0  0
    3.6494  149.5768   54.5054 C   0  0  0  0  0  0  0  0  0  0  0  0
    3.8412  150.4150   55.1674 H   0  0  0  0  0  0  0  0  0  0  0  0
    4.4293  149.5650   53.7458 H   0  0  0  0  0  0  0  0  0  0  0  0
    3.7336  148.2915   55.3079 C   0  0  0  0  0  0  0  0  0  0  0  0
    3.8021  148.2789   56.5254 O   0  0  0  0  0  0  0  0  0  0  0  0
    3.8192  147.1410   54.6024 N   0  0  0  0  0  0  0  0  0  0  0  0
    3.5366  147.1743   53.6306 H   0  0  0  0  0  0  0  0  0  0  0  0
    3.7537  145.9131   55.1400 C   0  0  0  0  0  0  0  0  0  0  0  0
    3.3541  145.1125   54.1883 N   0  0  0  0  0  0  0  0  0  0  0  0
    3.1215  143.8046   54.4225 C   0  0  0  0  0  0  0  0  0  0  0  0
    2.5239  142.9837   53.2655 C   0  0  0  0  0  0  0  0  0  0  0  0
    2.4445  141.6735   53.2124 N   0  0  0  0  0  0  0  0  0  0  0  0
    1.7765  141.2153   51.9797 C   0  0  0  0  0  0  0  0  0  0  0  0
    2.3504  140.4143   51.5068 H   0  0  0  0  0  0  0  0  0  0  0  0
    0.7701  140.8467   52.2055 H   0  0  0  0  0  0  0  0  0  0  0  0
    1.7121  142.4402   51.1019 C   0  0  0  0  0  0  0  0  0  0  0  0
    0.7464  142.5322   50.5904 H   0  0  0  0  0  0  0  0  0  0  0  0
    2.5166  142.4189   50.3630 H   0  0  0  0  0  0  0  0  0  0  0  0
    1.9662  143.4913   52.0758 N   0  0  0  0  0  0  0  0  0  0  0  0
    2.3641  144.3597   51.7259 H   0  0  0  0  0  0  0  0  0  0  0  0
    3.3828  143.3023   55.7185 C   0  0  0  0  0  0  0  0  0  0  0  0
    3.2060  141.9257   56.0447 C   0  0  0  0  0  0  0  0  0  0  0  0
    3.0783  140.7989   56.3151 N   0  0  0  0  0  0  0  0  0  0  0  0
    3.7774  144.1921   56.7118 C   0  0  0  0  0  0  0  0  0  0  0  0
    3.9388  143.8241   58.0120 N   0  0  0  0  0  0  0  0  0  0  0  0
    4.1098  142.8363   58.1953 H   0  0  0  0  0  0  0  0  0  0  0  0
    4.4228  144.4944   58.5999 H   0  0  0  0  0  0  0  0  0  0  0  0
    3.9655  145.5206   56.4321 C   0  0  0  0  0  0  0  0  0  0  0  0
    4.2520  146.2317   57.1933 H   0  0  0  0  0  0  0  0  0  0  0  0
    1.8796  149.2228   52.6681 C   0  0  0  0  0  0  0  0  0  0  0  0
    2.7237  148.3650   52.0021 O   0  0  0  0  0  0  0  0  0  0  0  0
    2.0807  147.3213   51.2584 C   0  0  0  0  0  0  0  0  0  0  0  0
    1.3796  146.7644   51.8930 H   0  0  0  0  0  0  0  0  0  0  0  0
    1.5347  147.7273   50.3994 H   0  0  0  0  0  0  0  0  0  0  0  0
    2.8425  146.6259   50.8936 H   0  0  0  0  0  0  0  0  0  0  0  0
  1  2  1  0
  2  3  2  0
  3  4  1  0
  3  5  1  0
  5  6  1  0
  6  7  1  0
  7  8  1  0
  7  9  1  0
  7 10  1  0
  5 11  2  0
 11 12  1  0
 11 13  1  0
 13 14  1  0
 14 15  1  0
 14 16  1  0
 14 17  1  0
 17 18  2  0
 17 19  1  0
 19 20  1  0
 19 21  1  0
 21 22  2  0
 22 23  1  0
 23 24  1  0
 24 25  2  0
 25 26  1  0
 26 27  1  0
 26 28  1  0
 26 29  1  0
 29 30  1  0
 29 31  1  0
 29 32  1  0
 32 33  1  0
 23 34  2  0
 34 35  1  0
 35 36  3  0
 34 37  1  0
 37 38  1  0
 38 39  1  0
 38 40  1  0
 37 41  2  0
 41 42  1  0
 13 43  2  0
 43 44  1  0
 44 45  1  0
 45 46  1  0
 45 47  1  0
 45 48  1  0
 43  2  1  0
 41 21  1  0
 32 24  1  0
M  END
>  <score>  (128) 
6.98967

$$$$

     RDKit          3D

 44 46  0  0  0  0  0  0  0  0999 V2000
    0.2576  149.1419   51.2564 H   0  0  0  0  0  0  0  0  0  0  0  0
    0.6093  149.5657   52.1916 C   0  0  0  0  0  0  0  0  0  0  0  0
   -0.2027  150.4737   52.8944 C   0  0  0  0  0  0  0  0  0  0  0  0
   -1.9357  150.9392   52.2231 Br  0  0  0  0  0  0  0  0  0  0  0  0
    0.2728  151.0560   54.0803 C   0  0  0  0  0  0  0  0  0  0  0  0
   -0.4356  151.9956   54.7731 O   0  0  0  0  0  0  0  0  0  0  0  0
   -1.4494  151.4039   55.5809 C   0  0  0  0  0  0  0  0  0  0  0  0
   -1.0092  150.6833   56.2740 H   0  0  0  0  0  0  0  0  0  0  0  0
   -2.1846  150.8917   54.9530 H   0  0  0  0  0  0  0  0  0  0  0  0
   -1.9507  152.1834   56.1588 H   0  0  0  0  0  0  0  0  0  0  0  0
    1.5212  150.6860   54.5640 C   0  0  0  0  0  0  0  0  0  0  0  0
    1.8705  151.1324   55.4881 H   0  0  0  0  0  0  0  0  0  0  0  0
    2.3361  149.7964   53.8675 C   0  0  0  0  0  0  0  0  0  0  0  0
    3.6936  149.5421   54.4516 C   0  0  0  0  0  0  0  0  0  0  0  0
    4.4417  149.4861   53.6520 H   0  0  0  0  0  0  0  0  0  0  0  0
    3.9015  150.3850   55.0964 H   0  0  0  0  0  0  0  0  0  0  0  0
    3.7615  148.2858   55.3014 C   0  0  0  0  0  0  0  0  0  0  0  0
    3.8153  148.3239   56.5165 O   0  0  0  0  0  0  0  0  0  0  0  0
    3.8484  147.1181   54.6352 N   0  0  0  0  0  0  0  0  0  0  0  0
    3.5363  147.1202   53.6776 H   0  0  0  0  0  0  0  0  0  0  0  0
    3.7706  145.9113   55.2043 C   0  0  0  0  0  0  0  0  0  0  0  0
    3.3665  145.1155   54.2500 N   0  0  0  0  0  0  0  0  0  0  0  0
    3.1288  143.8336   54.5159 C   0  0  0  0  0  0  0  0  0  0  0  0
    2.5281  143.0715   53.3888 C   0  0  0  0  0  0  0  0  0  0  0  0
    2.8986  143.0923   52.1360 N   0  0  0  0  0  0  0  0  0  0  0  0
    1.9892  142.3580   51.4260 N   0  0  0  0  0  0  0  0  0  0  0  0
    1.0673  141.8966   52.1871 N   0  0  0  0  0  0  0  0  0  0  0  0
    1.3814  142.3266   53.4193 N   0  0  0  0  0  0  0  0  0  0  0  0
    0.8225  142.1251   54.2417 H   0  0  0  0  0  0  0  0  0  0  0  0
    3.3527  143.3282   55.8094 C   0  0  0  0  0  0  0  0  0  0  0  0
    3.1629  141.9468   56.1123 C   0  0  0  0  0  0  0  0  0  0  0  0
    3.0112  140.8096   56.2991 N   0  0  0  0  0  0  0  0  0  0  0  0
    3.7747  144.2142   56.7891 C   0  0  0  0  0  0  0  0  0  0  0  0
    3.9711  143.8113   58.0709 N   0  0  0  0  0  0  0  0  0  0  0  0
    4.1145  142.8197   58.2235 H   0  0  0  0  0  0  0  0  0  0  0  0
    4.4843  144.4558   58.6617 H   0  0  0  0  0  0  0  0  0  0  0  0
    3.9811  145.5373   56.5083 C   0  0  0  0  0  0  0  0  0  0  0  0
    4.2920  146.2252   57.2875 H   0  0  0  0  0  0  0  0  0  0  0  0
    1.8937  149.2258   52.6612 C   0  0  0  0  0  0  0  0  0  0  0  0
    2.7415  148.3855   51.9815 O   0  0  0  0  0  0  0  0  0  0  0  0
    2.1196  147.3110   51.2704 C   0  0  0  0  0  0  0  0  0  0  0  0
    1.5800  147.6881   50.3964 H   0  0  0  0  0  0  0  0  0  0  0  0
    2.8917  146.6115   50.9345 H   0  0  0  0  0  0  0  0  0  0  0  0
    1.4235  146.7754   51.9252 H   0  0  0  0  0  0  0  0  0  0  0  0
  1  2  1  0
  2  3  2  0
  3  4  1  0
  3  5  1  0
  5  6  1  0
  6  7  1  0
  7  8  1  0
  7  9  1  0
  7 10  1  0
  5 11  2  0
 11 12  1  0
 11 13  1  0
 13 14  1  0
 14 15  1  0
 14 16  1  0
 14 17  1  0
 17 18  2  0
 17 19  1  0
 19 20  1  0
 19 21  1  0
 21 22  2  0
 22 23  1  0
 23 24  1  0
 24 25  2  0
 25 26  1  0
 26 27  2  0
 27 28  1  0
 28 29  1  0
 23 30  2  0
 30 31  1  0
 31 32  3  0
 30 33  1  0
 33 34  1  0
 34 35  1  0
 34 36  1  0
 33 37  2  0
 37 38  1  0
 13 39  2  0
 39 40  1  0
 40 41  1  0
 41 42  1  0
 41 43  1  0
 41 44  1  0
 39  2  1  0
 37 21  1  0
 28 24  1  0
M  END
>  <score>  (129) 
6.99042

$$$$

     RDKit          3D

 51 53  0  0  0  0  0  0  0  0999 V2000
   -0.3364  140.6301   50.9970 H   0  0  0  0  0  0  0  0  0  0  0  0
   -0.1394  140.9849   51.8811 O   0  0  0  0  0  0  0  0  0  0  0  0
    1.0429  141.6557   51.8414 C   0  0  0  0  0  0  0  0  0  0  0  0
    1.7100  141.7500   50.6407 C   0  0  0  0  0  0  0  0  0  0  0  0
    1.2934  141.2622   49.7675 H   0  0  0  0  0  0  0  0  0  0  0  0
    2.8867  142.4765   50.5595 C   0  0  0  0  0  0  0  0  0  0  0  0
    3.5165  142.5590   49.3541 O   0  0  0  0  0  0  0  0  0  0  0  0
    4.4322  142.8388   49.5049 H   0  0  0  0  0  0  0  0  0  0  0  0
    3.3933  143.1326   51.6940 C   0  0  0  0  0  0  0  0  0  0  0  0
    4.2842  143.7447   51.5841 H   0  0  0  0  0  0  0  0  0  0  0  0
    2.7570  143.0054   52.9556 C   0  0  0  0  0  0  0  0  0  0  0  0
    3.2049  143.7642   54.1567 C   0  0  0  0  0  0  0  0  0  0  0  0
    3.4232  145.0540   53.9174 N   0  0  0  0  0  0  0  0  0  0  0  0
    3.7159  145.8477   54.9064 C   0  0  0  0  0  0  0  0  0  0  0  0
    3.7761  147.1002   54.4363 N   0  0  0  0  0  0  0  0  0  0  0  0
    3.5274  147.1939   53.4603 H   0  0  0  0  0  0  0  0  0  0  0  0
    3.7035  148.2022   55.2226 C   0  0  0  0  0  0  0  0  0  0  0  0
    3.7841  148.1209   56.4369 O   0  0  0  0  0  0  0  0  0  0  0  0
    3.6399  149.5430   54.5219 C   0  0  0  0  0  0  0  0  0  0  0  0
    4.4266  149.5685   53.7676 H   0  0  0  0  0  0  0  0  0  0  0  0
    3.8346  150.3306   55.2506 H   0  0  0  0  0  0  0  0  0  0  0  0
    2.2992  149.8030   53.8826 C   0  0  0  0  0  0  0  0  0  0  0  0
    1.4702  150.6983   54.5546 C   0  0  0  0  0  0  0  0  0  0  0  0
    1.7912  151.1271   55.4991 H   0  0  0  0  0  0  0  0  0  0  0  0
    0.2368  151.0654   54.0315 C   0  0  0  0  0  0  0  0  0  0  0  0
   -0.4980  151.9997   54.7030 O   0  0  0  0  0  0  0  0  0  0  0  0
   -1.4899  151.4016   55.5349 C   0  0  0  0  0  0  0  0  0  0  0  0
   -2.2451  150.9014   54.9215 H   0  0  0  0  0  0  0  0  0  0  0  0
   -1.0296  150.6645   56.1987 H   0  0  0  0  0  0  0  0  0  0  0  0
   -1.9789  152.1692   56.1439 H   0  0  0  0  0  0  0  0  0  0  0  0
   -0.2237  150.4644   52.8517 C   0  0  0  0  0  0  0  0  0  0  0  0
   -1.9598  150.8863   52.1630 Br  0  0  0  0  0  0  0  0  0  0  0  0
    0.5922  149.5447   52.1785 C   0  0  0  0  0  0  0  0  0  0  0  0
    0.2279  149.0891   51.2646 H   0  0  0  0  0  0  0  0  0  0  0  0
    1.8724  149.2173   52.6688 C   0  0  0  0  0  0  0  0  0  0  0  0
    2.7125  148.3490   52.0091 O   0  0  0  0  0  0  0  0  0  0  0  0
    2.0730  147.3109   51.2524 C   0  0  0  0  0  0  0  0  0  0  0  0
    2.8275  146.6083   50.8866 H   0  0  0  0  0  0  0  0  0  0  0  0
    1.3667  146.7581   51.8797 H   0  0  0  0  0  0  0  0  0  0  0  0
    1.5324  147.7194   50.3930 H   0  0  0  0  0  0  0  0  0  0  0  0
    3.8581  145.4484   56.2010 C   0  0  0  0  0  0  0  0  0  0  0  0
    4.1402  146.1460   56.9721 H   0  0  0  0  0  0  0  0  0  0  0  0
    3.6424  144.1349   56.4659 C   0  0  0  0  0  0  0  0  0  0  0  0
    3.8002  143.7659   57.7591 N   0  0  0  0  0  0  0  0  0  0  0  0
    3.9725  142.7768   57.9148 H   0  0  0  0  0  0  0  0  0  0  0  0
    4.2898  144.4440   58.3466 H   0  0  0  0  0  0  0  0  0  0  0  0
    3.3008  143.2501   55.4598 C   0  0  0  0  0  0  0  0  0  0  0  0
    3.0916  141.8786   55.7762 C   0  0  0  0  0  0  0  0  0  0  0  0
    2.9789  140.7586   56.0800 N   0  0  0  0  0  0  0  0  0  0  0  0
    1.5672  142.2696   52.9762 C   0  0  0  0  0  0  0  0  0  0  0  0
    0.9722  142.2530   53.8684 H   0  0  0  0  0  0  0  0  0  0  0  0
  1  2  1  0
  2  3  1  0
  3  4  2  0
  4  5  1  0
  4  6  1  0
  6  7  1  0
  7  8  1  0
  6  9  2  0
  9 10  1  0
  9 11  1  0
 11 12  1  0
 12 13  2  0
 13 14  1  0
 14 15  1  0
 15 16  1  0
 15 17  1  0
 17 18  2  0
 17 19  1  0
 19 20  1  0
 19 21  1  0
 19 22  1  0
 22 23  2  0
 23 24  1  0
 23 25  1  0
 25 26  1  0
 26 27  1  0
 27 28  1  0
 27 29  1  0
 27 30  1  0
 25 31  2  0
 31 32  1  0
 31 33  1  0
 33 34  1  0
 33 35  2  0
 35 36  1  0
 36 37  1  0
 37 38  1  0
 37 39  1  0
 37 40  1  0
 14 41  2  0
 41 42  1  0
 41 43  1  0
 43 44  1  0
 44 45  1  0
 44 46  1  0
 43 47  2  0
 47 48  1  0
 48 49  3  0
 11 50  2  0
 50 51  1  0
 50  3  1  0
 47 12  1  0
 35 22  1  0
M  END
>  <score>  (130) 
6.99427

$$$$

     RDKit          3D

 49 51  0  0  0  0  0  0  0  0999 V2000
    0.6831  144.3988   49.5850 H   0  0  0  0  0  0  0  0  0  0  0  0
    0.7456  144.0879   50.6260 C   0  0  0  0  0  0  0  0  0  0  0  0
   -0.2874  144.1711   51.5379 N   0  0  0  0  0  0  0  0  0  0  0  0
    0.2042  143.7468   52.6788 C   0  0  0  0  0  0  0  0  0  0  0  0
   -0.3570  143.7412   53.6038 H   0  0  0  0  0  0  0  0  0  0  0  0
    1.5313  143.3479   52.5527 N   0  0  0  0  0  0  0  0  0  0  0  0
    2.4331  142.7735   53.5779 C   0  0  0  0  0  0  0  0  0  0  0  0
    3.3033  142.3356   53.0866 H   0  0  0  0  0  0  0  0  0  0  0  0
    1.9126  141.9753   54.0966 H   0  0  0  0  0  0  0  0  0  0  0  0
    2.9586  143.7196   54.6252 C   0  0  0  0  0  0  0  0  0  0  0  0
    3.1559  144.9869   54.2917 N   0  0  0  0  0  0  0  0  0  0  0  0
    3.6227  145.8072   55.1986 C   0  0  0  0  0  0  0  0  0  0  0  0
    3.7390  146.9892   54.5890 N   0  0  0  0  0  0  0  0  0  0  0  0
    3.4386  146.9650   53.6263 H   0  0  0  0  0  0  0  0  0  0  0  0
    3.7464  148.1818   55.2345 C   0  0  0  0  0  0  0  0  0  0  0  0
    3.8200  148.2307   56.4475 O   0  0  0  0  0  0  0  0  0  0  0  0
    3.6931  149.4586   54.4210 C   0  0  0  0  0  0  0  0  0  0  0  0
    4.4182  149.4158   53.6085 H   0  0  0  0  0  0  0  0  0  0  0  0
    3.9560  150.2705   55.0813 H   0  0  0  0  0  0  0  0  0  0  0  0
    2.3372  149.7640   53.8736 C   0  0  0  0  0  0  0  0  0  0  0  0
    1.5602  150.6773   54.5786 C   0  0  0  0  0  0  0  0  0  0  0  0
    1.9395  151.1332   55.4940 H   0  0  0  0  0  0  0  0  0  0  0  0
    0.3071  151.0353   54.0997 C   0  0  0  0  0  0  0  0  0  0  0  0
   -0.3854  151.9747   54.8058 O   0  0  0  0  0  0  0  0  0  0  0  0
   -1.4209  151.4051   55.6054 C   0  0  0  0  0  0  0  0  0  0  0  0
   -2.1472  150.8865   54.9746 H   0  0  0  0  0  0  0  0  0  0  0  0
   -1.0067  150.6875   56.3168 H   0  0  0  0  0  0  0  0  0  0  0  0
   -1.9339  152.1948   56.1634 H   0  0  0  0  0  0  0  0  0  0  0  0
   -0.1848  150.4732   52.9059 C   0  0  0  0  0  0  0  0  0  0  0  0
   -1.9181  150.9772   52.2629 Br  0  0  0  0  0  0  0  0  0  0  0  0
    0.6174  149.5719   52.1841 C   0  0  0  0  0  0  0  0  0  0  0  0
    0.2847  149.1693   51.2341 H   0  0  0  0  0  0  0  0  0  0  0  0
    1.8906  149.2175   52.6612 C   0  0  0  0  0  0  0  0  0  0  0  0
    2.7537  148.4009   51.9718 O   0  0  0  0  0  0  0  0  0  0  0  0
    2.1409  147.3097   51.2810 C   0  0  0  0  0  0  0  0  0  0  0  0
    1.4453  146.7882   51.9445 H   0  0  0  0  0  0  0  0  0  0  0  0
    2.9062  146.5977   50.9592 H   0  0  0  0  0  0  0  0  0  0  0  0
    1.5980  147.6576   50.3979 H   0  0  0  0  0  0  0  0  0  0  0  0
    3.9187  145.4668   56.4951 C   0  0  0  0  0  0  0  0  0  0  0  0
    4.2824  146.1674   57.2353 H   0  0  0  0  0  0  0  0  0  0  0  0
    3.7641  144.1514   56.8099 C   0  0  0  0  0  0  0  0  0  0  0  0
    4.1180  143.7724   58.0556 N   0  0  0  0  0  0  0  0  0  0  0  0
    4.0846  142.7887   58.3041 H   0  0  0  0  0  0  0  0  0  0  0  0
    4.4943  144.4671   58.6973 H   0  0  0  0  0  0  0  0  0  0  0  0
    3.2848  143.2471   55.8894 C   0  0  0  0  0  0  0  0  0  0  0  0
    3.1607  141.8604   56.2100 C   0  0  0  0  0  0  0  0  0  0  0  0
    3.0732  140.7279   56.4524 N   0  0  0  0  0  0  0  0  0  0  0  0
    1.8584  143.5896   51.2367 C   0  0  0  0  0  0  0  0  0  0  0  0
    2.8189  143.4508   50.7620 H   0  0  0  0  0  0  0  0  0  0  0  0
  1  2  1  0
  2  3  1  0
  3  4  2  0
  4  5  1  0
  4  6  1  0
  6  7  1  0
  7  8  1  0
  7  9  1  0
  7 10  1  0
 10 11  2  0
 11 12  1  0
 12 13  1  0
 13 14  1  0
 13 15  1  0
 15 16  2  0
 15 17  1  0
 17 18  1  0
 17 19  1  0
 17 20  1  0
 20 21  2  0
 21 22  1  0
 21 23  1  0
 23 24  1  0
 24 25  1  0
 25 26  1  0
 25 27  1  0
 25 28  1  0
 23 29  2  0
 29 30  1  0
 29 31  1  0
 31 32  1  0
 31 33  2  0
 33 34  1  0
 34 35  1  0
 35 36  1  0
 35 37  1  0
 35 38  1  0
 12 39  2  0
 39 40  1  0
 39 41  1  0
 41 42  1  0
 42 43  1  0
 42 44  1  0
 41 45  2  0
 45 46  1  0
 46 47  3  0
  6 48  1  0
 48 49  1  0
 48  2  2  0
 45 10  1  0
 33 20  1  0
M  END
>  <score>  (131) 
6.99443

$$$$

     RDKit          3D

 55 57  0  0  0  0  0  0  0  0999 V2000
    0.6998  146.4632   47.3321 H   0  0  0  0  0  0  0  0  0  0  0  0
    0.8366  145.7554   48.1409 C   0  0  0  0  0  0  0  0  0  0  0  0
   -0.0297  145.7403   49.2382 C   0  0  0  0  0  0  0  0  0  0  0  0
   -0.8459  146.4564   49.3032 H   0  0  0  0  0  0  0  0  0  0  0  0
    0.1567  144.8040   50.2559 C   0  0  0  0  0  0  0  0  0  0  0  0
   -0.5462  144.8164   51.0854 H   0  0  0  0  0  0  0  0  0  0  0  0
    1.2152  143.8806   50.1863 C   0  0  0  0  0  0  0  0  0  0  0  0
    1.3732  142.8640   51.2851 C   0  0  0  0  0  0  0  0  0  0  0  0
    2.1073  142.1111   50.9935 H   0  0  0  0  0  0  0  0  0  0  0  0
    0.4166  142.3606   51.4703 H   0  0  0  0  0  0  0  0  0  0  0  0
    1.7895  143.5639   52.4563 O   0  0  0  0  0  0  0  0  0  0  0  0
    2.4846  142.8800   53.4182 C   0  0  0  0  0  0  0  0  0  0  0  0
    2.6927  141.6602   53.3962 O   0  0  0  0  0  0  0  0  0  0  0  0
    2.9991  143.7231   54.5644 C   0  0  0  0  0  0  0  0  0  0  0  0
    3.1720  145.0290   54.2982 N   0  0  0  0  0  0  0  0  0  0  0  0
    3.6199  145.8440   55.2089 C   0  0  0  0  0  0  0  0  0  0  0  0
    3.7342  147.0391   54.6118 N   0  0  0  0  0  0  0  0  0  0  0  0
    3.4448  147.0404   53.6470 H   0  0  0  0  0  0  0  0  0  0  0  0
    3.7396  148.2185   55.2660 C   0  0  0  0  0  0  0  0  0  0  0  0
    3.8090  148.2564   56.4817 O   0  0  0  0  0  0  0  0  0  0  0  0
    3.6931  149.4887   54.4441 C   0  0  0  0  0  0  0  0  0  0  0  0
    3.9211  150.2887   55.1340 H   0  0  0  0  0  0  0  0  0  0  0  0
    4.4479  149.4620   53.6481 H   0  0  0  0  0  0  0  0  0  0  0  0
    2.3324  149.7744   53.8690 C   0  0  0  0  0  0  0  0  0  0  0  0
    1.5248  150.6732   54.5651 C   0  0  0  0  0  0  0  0  0  0  0  0
    1.8761  151.1192   55.4902 H   0  0  0  0  0  0  0  0  0  0  0  0
    0.2787  151.0452   54.0742 C   0  0  0  0  0  0  0  0  0  0  0  0
   -0.4243  151.9897   54.7654 O   0  0  0  0  0  0  0  0  0  0  0  0
   -1.4407  151.4060   55.5759 C   0  0  0  0  0  0  0  0  0  0  0  0
   -1.9473  152.1819   56.1562 H   0  0  0  0  0  0  0  0  0  0  0  0
   -1.0067  150.6834   56.2704 H   0  0  0  0  0  0  0  0  0  0  0  0
   -2.1746  150.8942   54.9478 H   0  0  0  0  0  0  0  0  0  0  0  0
   -0.2086  150.4681   52.8896 C   0  0  0  0  0  0  0  0  0  0  0  0
   -1.9443  150.9437   52.2235 Br  0  0  0  0  0  0  0  0  0  0  0  0
    0.5991  149.5590   52.1853 C   0  0  0  0  0  0  0  0  0  0  0  0
    0.2514  149.1433   51.2451 H   0  0  0  0  0  0  0  0  0  0  0  0
    1.8791  149.2146   52.6620 C   0  0  0  0  0  0  0  0  0  0  0  0
    2.7309  148.3799   51.9796 O   0  0  0  0  0  0  0  0  0  0  0  0
    2.1138  147.3054   51.2652 C   0  0  0  0  0  0  0  0  0  0  0  0
    1.5727  147.6770   50.3905 H   0  0  0  0  0  0  0  0  0  0  0  0
    2.8787  146.5996   50.9260 H   0  0  0  0  0  0  0  0  0  0  0  0
    1.4195  146.7713   51.9201 H   0  0  0  0  0  0  0  0  0  0  0  0
    3.9193  145.4746   56.4885 C   0  0  0  0  0  0  0  0  0  0  0  0
    4.2925  146.1724   57.2167 H   0  0  0  0  0  0  0  0  0  0  0  0
    3.7597  144.1568   56.8031 C   0  0  0  0  0  0  0  0  0  0  0  0
    4.0793  143.7807   58.0675 N   0  0  0  0  0  0  0  0  0  0  0  0
    4.0947  142.7902   58.3047 H   0  0  0  0  0  0  0  0  0  0  0  0
    4.4793  144.4721   58.7009 H   0  0  0  0  0  0  0  0  0  0  0  0
    3.3063  143.2523   55.8558 C   0  0  0  0  0  0  0  0  0  0  0  0
    3.1760  141.8747   56.1919 C   0  0  0  0  0  0  0  0  0  0  0  0
    3.0826  140.7413   56.4433 N   0  0  0  0  0  0  0  0  0  0  0  0
    2.1030  143.9344   49.1010 C   0  0  0  0  0  0  0  0  0  0  0  0
    2.9580  143.2688   49.0711 H   0  0  0  0  0  0  0  0  0  0  0  0
    1.9116  144.8671   48.0821 C   0  0  0  0  0  0  0  0  0  0  0  0
    2.6226  144.9070   47.2664 H   0  0  0  0  0  0  0  0  0  0  0  0
  1  2  1  0
  2  3  2  0
  3  4  1  0
  3  5  1  0
  5  6  1  0
  5  7  2  0
  7  8  1  0
  8  9  1  0
  8 10  1  0
  8 11  1  0
 11 12  1  0
 12 13  2  0
 12 14  1  0
 14 15  2  0
 15 16  1  0
 16 17  1  0
 17 18  1  0
 17 19  1  0
 19 20  2  0
 19 21  1  0
 21 22  1  0
 21 23  1  0
 21 24  1  0
 24 25  2  0
 25 26  1  0
 25 27  1  0
 27 28  1  0
 28 29  1  0
 29 30  1  0
 29 31  1  0
 29 32  1  0
 27 33  2  0
 33 34  1  0
 33 35  1  0
 35 36  1  0
 35 37  2  0
 37 38  1  0
 38 39  1  0
 39 40  1  0
 39 41  1  0
 39 42  1  0
 16 43  2  0
 43 44  1  0
 43 45  1  0
 45 46  1  0
 46 47  1  0
 46 48  1  0
 45 49  2  0
 49 50  1  0
 50 51  3  0
  7 52  1  0
 52 53  1  0
 52 54  2  0
 54 55  1  0
 54  2  1  0
 49 14  1  0
 37 24  1  0
M  END
>  <score>  (132) 
6.99849

$$$$

     RDKit          3D

 51 52  0  0  0  0  0  0  0  0999 V2000
    0.3085  149.2024   51.2534 H   0  0  0  0  0  0  0  0  0  0  0  0
    0.6596  149.6068   52.1969 C   0  0  0  0  0  0  0  0  0  0  0  0
   -0.1442  150.5000   52.9356 C   0  0  0  0  0  0  0  0  0  0  0  0
   -1.8697  150.9849   52.2775 Br  0  0  0  0  0  0  0  0  0  0  0  0
    0.3344  151.0575   54.1321 C   0  0  0  0  0  0  0  0  0  0  0  0
   -0.3784  151.9759   54.8592 O   0  0  0  0  0  0  0  0  0  0  0  0
   -1.4258  151.4038   55.6473 C   0  0  0  0  0  0  0  0  0  0  0  0
   -2.1529  150.8749   55.0223 H   0  0  0  0  0  0  0  0  0  0  0  0
   -1.0133  150.7026   56.3743 H   0  0  0  0  0  0  0  0  0  0  0  0
   -1.9414  152.2014   56.1913 H   0  0  0  0  0  0  0  0  0  0  0  0
    1.5971  150.6883   54.5745 C   0  0  0  0  0  0  0  0  0  0  0  0
    1.9923  151.1417   55.4739 H   0  0  0  0  0  0  0  0  0  0  0  0
    2.3807  149.7834   53.8580 C   0  0  0  0  0  0  0  0  0  0  0  0
    3.7260  149.4757   54.4008 C   0  0  0  0  0  0  0  0  0  0  0  0
    4.4137  149.3585   53.5603 H   0  0  0  0  0  0  0  0  0  0  0  0
    3.9947  150.3522   54.9761 H   0  0  0  0  0  0  0  0  0  0  0  0
    3.7471  148.2150   55.2666 C   0  0  0  0  0  0  0  0  0  0  0  0
    3.8496  148.2723   56.4837 O   0  0  0  0  0  0  0  0  0  0  0  0
    3.7120  147.0001   54.6466 N   0  0  0  0  0  0  0  0  0  0  0  0
    3.5215  146.9616   53.6566 H   0  0  0  0  0  0  0  0  0  0  0  0
    3.5451  145.8040   55.2327 C   0  0  0  0  0  0  0  0  0  0  0  0
    3.0627  144.9780   54.3274 N   0  0  0  0  0  0  0  0  0  0  0  0
    2.9268  143.6907   54.6400 C   0  0  0  0  0  0  0  0  0  0  0  0
    2.3889  142.7841   53.5632 C   0  0  0  0  0  0  0  0  0  0  0  0
    1.7625  143.3712   52.8847 H   0  0  0  0  0  0  0  0  0  0  0  0
    1.7646  142.0414   54.0563 H   0  0  0  0  0  0  0  0  0  0  0  0
    3.5127  142.0953   52.7631 C   0  0  0  0  0  0  0  0  0  0  0  0
    4.1598  141.5576   53.4658 H   0  0  0  0  0  0  0  0  0  0  0  0
    4.1132  142.8570   52.2491 H   0  0  0  0  0  0  0  0  0  0  0  0
    3.0058  141.0812   51.7252 C   0  0  0  0  0  0  0  0  0  0  0  0
    2.3299  140.3667   52.2059 H   0  0  0  0  0  0  0  0  0  0  0  0
    3.8701  140.5258   51.3437 H   0  0  0  0  0  0  0  0  0  0  0  0
    2.2983  141.7386   50.5385 C   0  0  0  0  0  0  0  0  0  0  0  0
    1.3619  142.2021   50.8639 H   0  0  0  0  0  0  0  0  0  0  0  0
    2.0710  140.9861   49.7739 H   0  0  0  0  0  0  0  0  0  0  0  0
    2.9400  142.5043   50.0879 H   0  0  0  0  0  0  0  0  0  0  0  0
    3.2642  143.2100   55.8979 C   0  0  0  0  0  0  0  0  0  0  0  0
    3.1394  141.8242   56.2238 C   0  0  0  0  0  0  0  0  0  0  0  0
    3.0386  140.6891   56.4492 N   0  0  0  0  0  0  0  0  0  0  0  0
    3.7465  144.1148   56.8115 C   0  0  0  0  0  0  0  0  0  0  0  0
    4.1488  143.7223   58.0316 N   0  0  0  0  0  0  0  0  0  0  0  0
    4.5010  144.4278   58.6737 H   0  0  0  0  0  0  0  0  0  0  0  0
    4.0631  142.7444   58.3000 H   0  0  0  0  0  0  0  0  0  0  0  0
    3.8924  145.4358   56.5062 C   0  0  0  0  0  0  0  0  0  0  0  0
    4.3135  146.1275   57.2224 H   0  0  0  0  0  0  0  0  0  0  0  0
    1.9346  149.2389   52.6495 C   0  0  0  0  0  0  0  0  0  0  0  0
    2.7763  148.4030   51.9480 O   0  0  0  0  0  0  0  0  0  0  0  0
    2.1653  147.2962   51.2810 C   0  0  0  0  0  0  0  0  0  0  0  0
    2.9497  146.5966   50.9723 H   0  0  0  0  0  0  0  0  0  0  0  0
    1.4748  146.7702   51.9498 H   0  0  0  0  0  0  0  0  0  0  0  0
    1.6229  147.6356   50.3937 H   0  0  0  0  0  0  0  0  0  0  0  0
  1  2  1  0
  2  3  2  0
  3  4  1  0
  3  5  1  0
  5  6  1  0
  6  7  1  0
  7  8  1  0
  7  9  1  0
  7 10  1  0
  5 11  2  0
 11 12  1  0
 11 13  1  0
 13 14  1  0
 14 15  1  0
 14 16  1  0
 14 17  1  0
 17 18  2  0
 17 19  1  0
 19 20  1  0
 19 21  1  0
 21 22  2  0
 22 23  1  0
 23 24  1  0
 24 25  1  0
 24 26  1  0
 24 27  1  0
 27 28  1  0
 27 29  1  0
 27 30  1  0
 30 31  1  0
 30 32  1  0
 30 33  1  0
 33 34  1  0
 33 35  1  0
 33 36  1  0
 23 37  2  0
 37 38  1  0
 38 39  3  0
 37 40  1  0
 40 41  1  0
 41 42  1  0
 41 43  1  0
 40 44  2  0
 44 45  1  0
 13 46  2  0
 46 47  1  0
 47 48  1  0
 48 49  1  0
 48 50  1  0
 48 51  1  0
 46  2  1  0
 44 21  1  0
M  END
>  <score>  (133) 
6.99932

$$$$

     RDKit          3D

 49 51  0  0  0  0  0  0  0  0999 V2000
    2.2606  140.2971   51.5051 H   0  0  0  0  0  0  0  0  0  0  0  0
    2.0476  141.1411   52.1412 C   0  0  0  0  0  0  0  0  0  0  0  0
    0.9730  141.8747   52.0392 N   0  0  0  0  0  0  0  0  0  0  0  0
    1.1475  142.8940   52.9194 N   0  0  0  0  0  0  0  0  0  0  0  0
    0.2123  144.0111   52.9387 C   0  0  0  0  0  0  0  0  0  0  0  0
   -0.5310  143.8951   53.7318 H   0  0  0  0  0  0  0  0  0  0  0  0
   -0.3199  144.0414   51.9814 H   0  0  0  0  0  0  0  0  0  0  0  0
    0.7447  144.9565   53.0730 H   0  0  0  0  0  0  0  0  0  0  0  0
    2.3223  142.7779   53.6556 C   0  0  0  0  0  0  0  0  0  0  0  0
    2.8390  143.6964   54.6814 C   0  0  0  0  0  0  0  0  0  0  0  0
    2.9624  144.9734   54.3351 N   0  0  0  0  0  0  0  0  0  0  0  0
    3.5105  145.7956   55.1914 C   0  0  0  0  0  0  0  0  0  0  0  0
    3.6728  146.9683   54.5680 N   0  0  0  0  0  0  0  0  0  0  0  0
    3.3802  146.9678   53.6045 H   0  0  0  0  0  0  0  0  0  0  0  0
    3.7257  148.1557   55.2137 C   0  0  0  0  0  0  0  0  0  0  0  0
    3.7989  148.1871   56.4274 O   0  0  0  0  0  0  0  0  0  0  0  0
    3.6880  149.4489   54.4318 C   0  0  0  0  0  0  0  0  0  0  0  0
    4.4332  149.4354   53.6326 H   0  0  0  0  0  0  0  0  0  0  0  0
    3.9423  150.2283   55.1353 H   0  0  0  0  0  0  0  0  0  0  0  0
    2.3324  149.7662   53.8718 C   0  0  0  0  0  0  0  0  0  0  0  0
    1.5429  150.6719   54.5726 C   0  0  0  0  0  0  0  0  0  0  0  0
    1.9065  151.1205   55.4937 H   0  0  0  0  0  0  0  0  0  0  0  0
    0.2940  151.0351   54.0841 C   0  0  0  0  0  0  0  0  0  0  0  0
   -0.3990  151.9806   54.7809 O   0  0  0  0  0  0  0  0  0  0  0  0
   -1.4271  151.4070   55.5867 C   0  0  0  0  0  0  0  0  0  0  0  0
   -1.9399  152.1858   56.1586 H   0  0  0  0  0  0  0  0  0  0  0  0
   -1.0074  150.6852   56.2892 H   0  0  0  0  0  0  0  0  0  0  0  0
   -2.1569  150.8921   54.9586 H   0  0  0  0  0  0  0  0  0  0  0  0
   -0.1980  150.4696   52.8947 C   0  0  0  0  0  0  0  0  0  0  0  0
   -1.9358  150.9626   52.2456 Br  0  0  0  0  0  0  0  0  0  0  0  0
    0.6060  149.5650   52.1833 C   0  0  0  0  0  0  0  0  0  0  0  0
    0.2679  149.1601   51.2371 H   0  0  0  0  0  0  0  0  0  0  0  0
    1.8801  149.2185   52.6649 C   0  0  0  0  0  0  0  0  0  0  0  0
    2.7417  148.3995   51.9796 O   0  0  0  0  0  0  0  0  0  0  0  0
    2.1314  147.3161   51.2733 C   0  0  0  0  0  0  0  0  0  0  0  0
    1.6074  147.6721   50.3821 H   0  0  0  0  0  0  0  0  0  0  0  0
    1.4193  146.8005   51.9227 H   0  0  0  0  0  0  0  0  0  0  0  0
    2.8910  146.5928   50.9600 H   0  0  0  0  0  0  0  0  0  0  0  0
    3.8871  145.4561   56.4631 C   0  0  0  0  0  0  0  0  0  0  0  0
    4.3024  146.1708   57.1514 H   0  0  0  0  0  0  0  0  0  0  0  0
    3.7620  144.1498   56.8152 C   0  0  0  0  0  0  0  0  0  0  0  0
    4.1813  143.7812   58.0469 N   0  0  0  0  0  0  0  0  0  0  0  0
    4.0964  142.8078   58.3281 H   0  0  0  0  0  0  0  0  0  0  0  0
    4.4844  144.4957   58.7088 H   0  0  0  0  0  0  0  0  0  0  0  0
    3.2603  143.2349   55.9204 C   0  0  0  0  0  0  0  0  0  0  0  0
    3.1776  141.8505   56.2399 C   0  0  0  0  0  0  0  0  0  0  0  0
    3.1203  140.7104   56.4589 N   0  0  0  0  0  0  0  0  0  0  0  0
    2.9237  141.6507   53.1722 C   0  0  0  0  0  0  0  0  0  0  0  0
    3.8879  141.2458   53.4623 H   0  0  0  0  0  0  0  0  0  0  0  0
  1  2  1  0
  2  3  2  0
  3  4  1  0
  4  5  1  0
  5  6  1  0
  5  7  1  0
  5  8  1  0
  4  9  1  0
  9 10  1  0
 10 11  2  0
 11 12  1  0
 12 13  1  0
 13 14  1  0
 13 15  1  0
 15 16  2  0
 15 17  1  0
 17 18  1  0
 17 19  1  0
 17 20  1  0
 20 21  2  0
 21 22  1  0
 21 23  1  0
 23 24  1  0
 24 25  1  0
 25 26  1  0
 25 27  1  0
 25 28  1  0
 23 29  2  0
 29 30  1  0
 29 31  1  0
 31 32  1  0
 31 33  2  0
 33 34  1  0
 34 35  1  0
 35 36  1  0
 35 37  1  0
 35 38  1  0
 12 39  2  0
 39 40  1  0
 39 41  1  0
 41 42  1  0
 42 43  1  0
 42 44  1  0
 41 45  2  0
 45 46  1  0
 46 47  3  0
  9 48  2  0
 48 49  1  0
 48  2  1  0
 45 10  1  0
 33 20  1  0
M  END
>  <score>  (134) 
6.99937

$$$$

     RDKit          3D

 48 50  0  0  0  0  0  0  0  0999 V2000
    0.2531  149.1488   51.2403 H   0  0  0  0  0  0  0  0  0  0  0  0
    0.6039  149.5637   52.1812 C   0  0  0  0  0  0  0  0  0  0  0  0
   -0.2013  150.4684   52.8977 C   0  0  0  0  0  0  0  0  0  0  0  0
   -1.9358  150.9463   52.2299 Br  0  0  0  0  0  0  0  0  0  0  0  0
    0.2905  151.0476   54.0804 C   0  0  0  0  0  0  0  0  0  0  0  0
   -0.4167  151.9915   54.7727 O   0  0  0  0  0  0  0  0  0  0  0  0
   -1.4379  151.4025   55.5718 C   0  0  0  0  0  0  0  0  0  0  0  0
   -2.1727  150.8952   54.9365 H   0  0  0  0  0  0  0  0  0  0  0  0
   -1.0033  150.6783   56.2674 H   0  0  0  0  0  0  0  0  0  0  0  0
   -1.9375  152.1861   56.1472 H   0  0  0  0  0  0  0  0  0  0  0  0
    1.5343  150.6543   54.5694 C   0  0  0  0  0  0  0  0  0  0  0  0
    1.8839  151.0945   55.4960 H   0  0  0  0  0  0  0  0  0  0  0  0
    2.3317  149.7434   53.8716 C   0  0  0  0  0  0  0  0  0  0  0  0
    3.6727  149.3819   54.4506 C   0  0  0  0  0  0  0  0  0  0  0  0
    4.4340  149.4048   53.6588 H   0  0  0  0  0  0  0  0  0  0  0  0
    3.9197  150.1153   55.2122 H   0  0  0  0  0  0  0  0  0  0  0  0
    3.6550  148.0407   55.1643 C   0  0  0  0  0  0  0  0  0  0  0  0
    3.7859  148.0090   56.3804 O   0  0  0  0  0  0  0  0  0  0  0  0
    3.5730  146.8784   54.4646 N   0  0  0  0  0  0  0  0  0  0  0  0
    3.2933  146.8824   53.4924 H   0  0  0  0  0  0  0  0  0  0  0  0
    3.5081  145.6792   55.0585 C   0  0  0  0  0  0  0  0  0  0  0  0
    3.0439  144.8217   54.1965 N   0  0  0  0  0  0  0  0  0  0  0  0
    2.9505  143.6005   54.6432 C   0  0  0  0  0  0  0  0  0  0  0  0
    2.4302  142.8768   53.6409 N   0  0  0  0  0  0  0  0  0  0  0  0
    2.3417  143.4987   52.8467 H   0  0  0  0  0  0  0  0  0  0  0  0
    2.9339  141.5517   53.3680 C   0  0  0  0  0  0  0  0  0  0  0  0
    2.6871  140.7740   54.0918 H   0  0  0  0  0  0  0  0  0  0  0  0
    2.9859  141.2218   51.8990 C   0  0  0  0  0  0  0  0  0  0  0  0
    2.7340  142.0117   51.1883 H   0  0  0  0  0  0  0  0  0  0  0  0
    2.7869  140.2075   51.5852 H   0  0  0  0  0  0  0  0  0  0  0  0
    4.2627  141.4418   52.6677 C   0  0  0  0  0  0  0  0  0  0  0  0
    4.9039  140.5886   52.9045 H   0  0  0  0  0  0  0  0  0  0  0  0
    4.7702  142.3526   52.3856 H   0  0  0  0  0  0  0  0  0  0  0  0
    3.3188  143.1371   55.8833 C   0  0  0  0  0  0  0  0  0  0  0  0
    3.2087  141.7576   56.2113 C   0  0  0  0  0  0  0  0  0  0  0  0
    3.1229  140.6163   56.4229 N   0  0  0  0  0  0  0  0  0  0  0  0
    3.7808  144.0842   56.7554 C   0  0  0  0  0  0  0  0  0  0  0  0
    4.1605  143.7631   58.0183 N   0  0  0  0  0  0  0  0  0  0  0  0
    4.1052  142.7974   58.3367 H   0  0  0  0  0  0  0  0  0  0  0  0
    4.4463  144.5073   58.6532 H   0  0  0  0  0  0  0  0  0  0  0  0
    3.8665  145.3870   56.3577 C   0  0  0  0  0  0  0  0  0  0  0  0
    4.2265  146.1488   57.0331 H   0  0  0  0  0  0  0  0  0  0  0  0
    1.8832  149.2112   52.6532 C   0  0  0  0  0  0  0  0  0  0  0  0
    2.7323  148.3772   51.9683 O   0  0  0  0  0  0  0  0  0  0  0  0
    2.1107  147.3069   51.2623 C   0  0  0  0  0  0  0  0  0  0  0  0
    1.5710  147.6894   50.3899 H   0  0  0  0  0  0  0  0  0  0  0  0
    1.4167  146.7762   51.9245 H   0  0  0  0  0  0  0  0  0  0  0  0
    2.8847  146.6085   50.9263 H   0  0  0  0  0  0  0  0  0  0  0  0
  1  2  1  0
  2  3  2  0
  3  4  1  0
  3  5  1  0
  5  6  1  0
  6  7  1  0
  7  8  1  0
  7  9  1  0
  7 10  1  0
  5 11  2  0
 11 12  1  0
 11 13  1  0
 13 14  1  0
 14 15  1  0
 14 16  1  0
 14 17  1  0
 17 18  2  0
 17 19  1  0
 19 20  1  0
 19 21  1  0
 21 22  2  0
 22 23  1  0
 23 24  1  0
 24 25  1  0
 24 26  1  0
 26 27  1  0
 26 28  1  0
 28 29  1  0
 28 30  1  0
 28 31  1  0
 31 32  1  0
 31 33  1  0
 23 34  2  0
 34 35  1  0
 35 36  3  0
 34 37  1  0
 37 38  1  0
 38 39  1  0
 38 40  1  0
 37 41  2  0
 41 42  1  0
 13 43  2  0
 43 44  1  0
 44 45  1  0
 45 46  1  0
 45 47  1  0
 45 48  1  0
 43  2  1  0
 41 21  1  0
 31 26  1  0
M  END
>  <score>  (135) 
7.00015

$$$$

     RDKit          3D

 43 44  0  0  0  0  0  0  0  0999 V2000
    0.2924  149.1860   51.2335 H   0  0  0  0  0  0  0  0  0  0  0  0
    0.6382  149.5817   52.1853 C   0  0  0  0  0  0  0  0  0  0  0  0
   -0.1628  150.4862   52.9123 C   0  0  0  0  0  0  0  0  0  0  0  0
   -1.9031  150.9845   52.2701 Br  0  0  0  0  0  0  0  0  0  0  0  0
    0.3183  151.0415   54.1154 C   0  0  0  0  0  0  0  0  0  0  0  0
   -0.3808  151.9721   54.8325 O   0  0  0  0  0  0  0  0  0  0  0  0
   -1.4213  151.4058   55.6255 C   0  0  0  0  0  0  0  0  0  0  0  0
   -1.9370  152.1964   56.1750 H   0  0  0  0  0  0  0  0  0  0  0  0
   -1.0107  150.6959   56.3408 H   0  0  0  0  0  0  0  0  0  0  0  0
   -2.1443  150.8835   54.9991 H   0  0  0  0  0  0  0  0  0  0  0  0
    1.5765  150.6845   54.5812 C   0  0  0  0  0  0  0  0  0  0  0  0
    1.9684  151.1370   55.4880 H   0  0  0  0  0  0  0  0  0  0  0  0
    2.3547  149.7746   53.8680 C   0  0  0  0  0  0  0  0  0  0  0  0
    3.7000  149.4388   54.4114 C   0  0  0  0  0  0  0  0  0  0  0  0
    3.9824  150.2592   55.0450 H   0  0  0  0  0  0  0  0  0  0  0  0
    4.4123  149.3828   53.5921 H   0  0  0  0  0  0  0  0  0  0  0  0
    3.7424  148.1486   55.2123 C   0  0  0  0  0  0  0  0  0  0  0  0
    3.8223  148.1874   56.4296 O   0  0  0  0  0  0  0  0  0  0  0  0
    3.6861  146.9546   54.5641 N   0  0  0  0  0  0  0  0  0  0  0  0
    3.4457  146.9345   53.5860 H   0  0  0  0  0  0  0  0  0  0  0  0
    3.5303  145.7731   55.1586 C   0  0  0  0  0  0  0  0  0  0  0  0
    3.0398  144.9360   54.2753 N   0  0  0  0  0  0  0  0  0  0  0  0
    2.8934  143.6678   54.6473 C   0  0  0  0  0  0  0  0  0  0  0  0
    2.3972  142.7422   53.7925 O   0  0  0  0  0  0  0  0  0  0  0  0
    2.0164  143.2350   52.5250 C   0  0  0  0  0  0  0  0  0  0  0  0
    1.6614  142.3727   51.9438 H   0  0  0  0  0  0  0  0  0  0  0  0
    1.0132  144.1387   52.6671 F   0  0  0  0  0  0  0  0  0  0  0  0
    3.0807  143.8021   51.9035 F   0  0  0  0  0  0  0  0  0  0  0  0
    3.2444  143.2086   55.8855 C   0  0  0  0  0  0  0  0  0  0  0  0
    3.1373  141.8222   56.2158 C   0  0  0  0  0  0  0  0  0  0  0  0
    3.0508  140.6855   56.4493 N   0  0  0  0  0  0  0  0  0  0  0  0
    3.7308  144.1346   56.7597 C   0  0  0  0  0  0  0  0  0  0  0  0
    4.1314  143.7590   57.9803 N   0  0  0  0  0  0  0  0  0  0  0  0
    4.0591  142.7885   58.2565 H   0  0  0  0  0  0  0  0  0  0  0  0
    4.4777  144.4507   58.6342 H   0  0  0  0  0  0  0  0  0  0  0  0
    3.8746  145.4435   56.4352 C   0  0  0  0  0  0  0  0  0  0  0  0
    4.2790  146.1405   57.1577 H   0  0  0  0  0  0  0  0  0  0  0  0
    1.9080  149.2224   52.6611 C   0  0  0  0  0  0  0  0  0  0  0  0
    2.7639  148.4067   51.9578 O   0  0  0  0  0  0  0  0  0  0  0  0
    2.1548  147.3051   51.2806 C   0  0  0  0  0  0  0  0  0  0  0  0
    1.6134  147.6465   50.3948 H   0  0  0  0  0  0  0  0  0  0  0  0
    1.4618  146.7828   51.9467 H   0  0  0  0  0  0  0  0  0  0  0  0
    2.9278  146.5973   50.9665 H   0  0  0  0  0  0  0  0  0  0  0  0
  1  2  1  0
  2  3  2  0
  3  4  1  0
  3  5  1  0
  5  6  1  0
  6  7  1  0
  7  8  1  0
  7  9  1  0
  7 10  1  0
  5 11  2  0
 11 12  1  0
 11 13  1  0
 13 14  1  0
 14 15  1  0
 14 16  1  0
 14 17  1  0
 17 18  2  0
 17 19  1  0
 19 20  1  0
 19 21  1  0
 21 22  2  0
 22 23  1  0
 23 24  1  0
 24 25  1  0
 25 26  1  0
 25 27  1  0
 25 28  1  0
 23 29  2  0
 29 30  1  0
 30 31  3  0
 29 32  1  0
 32 33  1  0
 33 34  1  0
 33 35  1  0
 32 36  2  0
 36 37  1  0
 13 38  2  0
 38 39  1  0
 39 40  1  0
 40 41  1  0
 40 42  1  0
 40 43  1  0
 38  2  1  0
 36 21  1  0
M  END
>  <score>  (136) 
7.00413

$$$$

     RDKit          3D

 52 54  0  0  0  0  0  0  0  0999 V2000
    4.8102  142.8631   48.1796 H   0  0  0  0  0  0  0  0  0  0  0  0
    4.5436  143.1864   49.0494 O   0  0  0  0  0  0  0  0  0  0  0  0
    3.4373  142.4604   49.2888 C   0  0  0  0  0  0  0  0  0  0  0  0
    2.9745  141.6891   48.4538 O   0  0  0  0  0  0  0  0  0  0  0  0
    2.8072  142.5317   50.6289 C   0  0  0  0  0  0  0  0  0  0  0  0
    1.5845  141.8720   50.8463 C   0  0  0  0  0  0  0  0  0  0  0  0
    1.0528  141.4060   50.0240 H   0  0  0  0  0  0  0  0  0  0  0  0
    1.0541  141.7398   52.1205 C   0  0  0  0  0  0  0  0  0  0  0  0
    0.1214  141.2072   52.2554 H   0  0  0  0  0  0  0  0  0  0  0  0
    1.7152  142.2938   53.2082 C   0  0  0  0  0  0  0  0  0  0  0  0
    1.3028  142.2017   54.2015 H   0  0  0  0  0  0  0  0  0  0  0  0
    2.8825  143.0288   53.0430 C   0  0  0  0  0  0  0  0  0  0  0  0
    3.3758  143.7835   54.2120 C   0  0  0  0  0  0  0  0  0  0  0  0
    3.5879  145.0714   53.9600 N   0  0  0  0  0  0  0  0  0  0  0  0
    3.8034  145.8841   54.9582 C   0  0  0  0  0  0  0  0  0  0  0  0
    3.8078  147.1364   54.4876 N   0  0  0  0  0  0  0  0  0  0  0  0
    3.6206  147.2091   53.4994 H   0  0  0  0  0  0  0  0  0  0  0  0
    3.6975  148.2561   55.2496 C   0  0  0  0  0  0  0  0  0  0  0  0
    3.7784  148.2001   56.4624 O   0  0  0  0  0  0  0  0  0  0  0  0
    3.6386  149.5862   54.5316 C   0  0  0  0  0  0  0  0  0  0  0  0
    3.8195  150.3970   55.2395 H   0  0  0  0  0  0  0  0  0  0  0  0
    4.4265  149.5967   53.7808 H   0  0  0  0  0  0  0  0  0  0  0  0
    2.3042  149.8289   53.8868 C   0  0  0  0  0  0  0  0  0  0  0  0
    1.4665  150.7203   54.5536 C   0  0  0  0  0  0  0  0  0  0  0  0
    1.7871  151.1528   55.4960 H   0  0  0  0  0  0  0  0  0  0  0  0
    0.2302  151.0788   54.0272 C   0  0  0  0  0  0  0  0  0  0  0  0
   -0.5250  152.0017   54.6974 O   0  0  0  0  0  0  0  0  0  0  0  0
   -1.5104  151.3999   55.5390 C   0  0  0  0  0  0  0  0  0  0  0  0
   -1.0515  150.6621   56.2010 H   0  0  0  0  0  0  0  0  0  0  0  0
   -2.2727  150.9035   54.9344 H   0  0  0  0  0  0  0  0  0  0  0  0
   -1.9969  152.1627   56.1538 H   0  0  0  0  0  0  0  0  0  0  0  0
   -0.2162  150.4702   52.8424 C   0  0  0  0  0  0  0  0  0  0  0  0
   -1.9530  150.8674   52.1384 Br  0  0  0  0  0  0  0  0  0  0  0  0
    0.6046  149.5459   52.1787 C   0  0  0  0  0  0  0  0  0  0  0  0
    0.2406  149.0732   51.2693 H   0  0  0  0  0  0  0  0  0  0  0  0
    1.8816  149.2218   52.6792 C   0  0  0  0  0  0  0  0  0  0  0  0
    2.7109  148.3315   52.0297 O   0  0  0  0  0  0  0  0  0  0  0  0
    2.0732  147.3044   51.2477 C   0  0  0  0  0  0  0  0  0  0  0  0
    1.3635  146.7458   51.8629 H   0  0  0  0  0  0  0  0  0  0  0  0
    2.8201  146.5982   50.8698 H   0  0  0  0  0  0  0  0  0  0  0  0
    1.5357  147.7233   50.3918 H   0  0  0  0  0  0  0  0  0  0  0  0
    3.9082  145.5035   56.2617 C   0  0  0  0  0  0  0  0  0  0  0  0
    4.1284  146.2341   57.0222 H   0  0  0  0  0  0  0  0  0  0  0  0
    3.7278  144.1794   56.5274 C   0  0  0  0  0  0  0  0  0  0  0  0
    3.8508  143.8063   57.8181 N   0  0  0  0  0  0  0  0  0  0  0  0
    4.0115  142.8162   57.9880 H   0  0  0  0  0  0  0  0  0  0  0  0
    4.2885  144.4896   58.4331 H   0  0  0  0  0  0  0  0  0  0  0  0
    3.4271  143.2816   55.5208 C   0  0  0  0  0  0  0  0  0  0  0  0
    3.1811  141.9080   55.8126 C   0  0  0  0  0  0  0  0  0  0  0  0
    3.0091  140.7809   56.0576 N   0  0  0  0  0  0  0  0  0  0  0  0
    3.4175  143.1796   51.7395 C   0  0  0  0  0  0  0  0  0  0  0  0
    4.3340  143.7653   51.6360 H   0  0  0  0  0  0  0  0  0  0  0  0
  1  2  1  0
  2  3  1  0
  3  4  2  0
  3  5  1  0
  5  6  2  0
  6  7  1  0
  6  8  1  0
  8  9  1  0
  8 10  2  0
 10 11  1  0
 10 12  1  0
 12 13  1  0
 13 14  2  0
 14 15  1  0
 15 16  1  0
 16 17  1  0
 16 18  1  0
 18 19  2  0
 18 20  1  0
 20 21  1  0
 20 22  1  0
 20 23  1  0
 23 24  2  0
 24 25  1  0
 24 26  1  0
 26 27  1  0
 27 28  1  0
 28 29  1  0
 28 30  1  0
 28 31  1  0
 26 32  2  0
 32 33  1  0
 32 34  1  0
 34 35  1  0
 34 36  2  0
 36 37  1  0
 37 38  1  0
 38 39  1  0
 38 40  1  0
 38 41  1  0
 15 42  2  0
 42 43  1  0
 42 44  1  0
 44 45  1  0
 45 46  1  0
 45 47  1  0
 44 48  2  0
 48 49  1  0
 49 50  3  0
 12 51  2  0
 51 52  1  0
 51  5  1  0
 48 13  1  0
 36 23  1  0
M  END
>  <score>  (137) 
7.00451

$$$$

     RDKit          3D

 51 53  0  0  0  0  0  0  0  0999 V2000
    0.2510  140.7747   50.2798 H   0  0  0  0  0  0  0  0  0  0  0  0
    0.9979  141.2582   49.8780 O   0  0  0  0  0  0  0  0  0  0  0  0
    1.6871  141.8760   50.8919 C   0  0  0  0  0  0  0  0  0  0  0  0
    1.0970  141.7784   52.1392 C   0  0  0  0  0  0  0  0  0  0  0  0
    0.1293  141.2920   52.2151 H   0  0  0  0  0  0  0  0  0  0  0  0
    1.7276  142.3151   53.2596 C   0  0  0  0  0  0  0  0  0  0  0  0
    1.2641  142.2533   54.2236 H   0  0  0  0  0  0  0  0  0  0  0  0
    2.9042  143.0406   53.1643 C   0  0  0  0  0  0  0  0  0  0  0  0
    3.3697  143.7934   54.3331 C   0  0  0  0  0  0  0  0  0  0  0  0
    3.5593  145.0773   54.0790 N   0  0  0  0  0  0  0  0  0  0  0  0
    3.8198  145.8858   55.0639 C   0  0  0  0  0  0  0  0  0  0  0  0
    3.8094  147.1180   54.5470 N   0  0  0  0  0  0  0  0  0  0  0  0
    3.5415  147.1439   53.5717 H   0  0  0  0  0  0  0  0  0  0  0  0
    3.7088  148.2553   55.2734 C   0  0  0  0  0  0  0  0  0  0  0  0
    3.7958  148.2343   56.4906 O   0  0  0  0  0  0  0  0  0  0  0  0
    3.6549  149.5554   54.4981 C   0  0  0  0  0  0  0  0  0  0  0  0
    3.8646  150.3767   55.1800 H   0  0  0  0  0  0  0  0  0  0  0  0
    4.4287  149.5342   53.7297 H   0  0  0  0  0  0  0  0  0  0  0  0
    2.3127  149.8039   53.8731 C   0  0  0  0  0  0  0  0  0  0  0  0
    1.4901  150.6933   54.5583 C   0  0  0  0  0  0  0  0  0  0  0  0
    1.8265  151.1207   55.4983 H   0  0  0  0  0  0  0  0  0  0  0  0
    0.2527  151.0601   54.0514 C   0  0  0  0  0  0  0  0  0  0  0  0
   -0.4700  151.9954   54.7340 O   0  0  0  0  0  0  0  0  0  0  0  0
   -1.4731  151.4022   55.5545 C   0  0  0  0  0  0  0  0  0  0  0  0
   -1.0210  150.6696   56.2291 H   0  0  0  0  0  0  0  0  0  0  0  0
   -2.2210  150.8974   54.9347 H   0  0  0  0  0  0  0  0  0  0  0  0
   -1.9679  152.1763   56.1507 H   0  0  0  0  0  0  0  0  0  0  0  0
   -0.2113  150.4705   52.8674 C   0  0  0  0  0  0  0  0  0  0  0  0
   -1.9464  150.9076   52.1891 Br  0  0  0  0  0  0  0  0  0  0  0  0
    0.6024  149.5543   52.1830 C   0  0  0  0  0  0  0  0  0  0  0  0
    0.2399  149.1115   51.2628 H   0  0  0  0  0  0  0  0  0  0  0  0
    1.8845  149.2202   52.6620 C   0  0  0  0  0  0  0  0  0  0  0  0
    2.7282  148.3630   51.9911 O   0  0  0  0  0  0  0  0  0  0  0  0
    2.0915  147.3085   51.2577 C   0  0  0  0  0  0  0  0  0  0  0  0
    1.5495  147.7030   50.3922 H   0  0  0  0  0  0  0  0  0  0  0  0
    2.8529  146.6066   50.9048 H   0  0  0  0  0  0  0  0  0  0  0  0
    1.3886  146.7619   51.8966 H   0  0  0  0  0  0  0  0  0  0  0  0
    3.9515  145.5118   56.3730 C   0  0  0  0  0  0  0  0  0  0  0  0
    4.1528  146.2279   57.1579 H   0  0  0  0  0  0  0  0  0  0  0  0
    3.7507  144.1885   56.6407 C   0  0  0  0  0  0  0  0  0  0  0  0
    3.8770  143.8031   57.9342 N   0  0  0  0  0  0  0  0  0  0  0  0
    4.0466  142.8114   58.0830 H   0  0  0  0  0  0  0  0  0  0  0  0
    4.3752  144.4585   58.5355 H   0  0  0  0  0  0  0  0  0  0  0  0
    3.4348  143.2957   55.6333 C   0  0  0  0  0  0  0  0  0  0  0  0
    3.1974  141.9234   55.9254 C   0  0  0  0  0  0  0  0  0  0  0  0
    3.0088  140.7990   56.1678 N   0  0  0  0  0  0  0  0  0  0  0  0
    3.4736  143.1933   51.8897 C   0  0  0  0  0  0  0  0  0  0  0  0
    4.3540  143.8094   51.7549 H   0  0  0  0  0  0  0  0  0  0  0  0
    2.9039  142.5965   50.7574 C   0  0  0  0  0  0  0  0  0  0  0  0
    3.5521  142.7689   49.5603 O   0  0  0  0  0  0  0  0  0  0  0  0
    4.4630  143.0671   49.7429 H   0  0  0  0  0  0  0  0  0  0  0  0
  1  2  1  0
  2  3  1  0
  3  4  2  0
  4  5  1  0
  4  6  1  0
  6  7  1  0
  6  8  2  0
  8  9  1  0
  9 10  2  0
 10 11  1  0
 11 12  1  0
 12 13  1  0
 12 14  1  0
 14 15  2  0
 14 16  1  0
 16 17  1  0
 16 18  1  0
 16 19  1  0
 19 20  2  0
 20 21  1  0
 20 22  1  0
 22 23  1  0
 23 24  1  0
 24 25  1  0
 24 26  1  0
 24 27  1  0
 22 28  2  0
 28 29  1  0
 28 30  1  0
 30 31  1  0
 30 32  2  0
 32 33  1  0
 33 34  1  0
 34 35  1  0
 34 36  1  0
 34 37  1  0
 11 38  2  0
 38 39  1  0
 38 40  1  0
 40 41  1  0
 41 42  1  0
 41 43  1  0
 40 44  2  0
 44 45  1  0
 45 46  3  0
  8 47  1  0
 47 48  1  0
 47 49  2  0
 49 50  1  0
 50 51  1  0
 49  3  1  0
 44  9  1  0
 32 19  1  0
M  END
>  <score>  (138) 
7.01068

$$$$

     RDKit          3D

 49 51  0  0  0  0  0  0  0  0999 V2000
    1.3338  141.4518   49.8366 H   0  0  0  0  0  0  0  0  0  0  0  0
    1.7877  141.8826   50.7210 C   0  0  0  0  0  0  0  0  0  0  0  0
    3.0082  142.5607   50.6324 C   0  0  0  0  0  0  0  0  0  0  0  0
    3.5048  142.6682   49.6684 H   0  0  0  0  0  0  0  0  0  0  0  0
    3.5660  143.1367   51.7775 C   0  0  0  0  0  0  0  0  0  0  0  0
    4.4868  143.7115   51.6960 H   0  0  0  0  0  0  0  0  0  0  0  0
    2.9351  143.0054   53.0317 C   0  0  0  0  0  0  0  0  0  0  0  0
    3.3892  143.7646   54.2073 C   0  0  0  0  0  0  0  0  0  0  0  0
    3.5961  145.0559   53.9582 N   0  0  0  0  0  0  0  0  0  0  0  0
    3.8136  145.8729   54.9514 C   0  0  0  0  0  0  0  0  0  0  0  0
    3.8057  147.1263   54.4767 N   0  0  0  0  0  0  0  0  0  0  0  0
    3.5744  147.2015   53.4956 H   0  0  0  0  0  0  0  0  0  0  0  0
    3.7003  148.2417   55.2421 C   0  0  0  0  0  0  0  0  0  0  0  0
    3.7834  148.1830   56.4535 O   0  0  0  0  0  0  0  0  0  0  0  0
    3.6320  149.5736   54.5256 C   0  0  0  0  0  0  0  0  0  0  0  0
    4.4183  149.5917   53.7762 H   0  0  0  0  0  0  0  0  0  0  0  0
    3.8240  150.3782   55.2360 H   0  0  0  0  0  0  0  0  0  0  0  0
    2.2946  149.8203   53.8848 C   0  0  0  0  0  0  0  0  0  0  0  0
    1.4618  150.7143   54.5512 C   0  0  0  0  0  0  0  0  0  0  0  0
    1.7840  151.1476   55.4938 H   0  0  0  0  0  0  0  0  0  0  0  0
    0.2274  151.0710   54.0244 C   0  0  0  0  0  0  0  0  0  0  0  0
   -0.5146  152.0017   54.6946 O   0  0  0  0  0  0  0  0  0  0  0  0
   -1.5011  151.4021   55.5331 C   0  0  0  0  0  0  0  0  0  0  0  0
   -1.0403  150.6636   56.1938 H   0  0  0  0  0  0  0  0  0  0  0  0
   -1.9894  152.1661   56.1461 H   0  0  0  0  0  0  0  0  0  0  0  0
   -2.2596  150.9029   54.9254 H   0  0  0  0  0  0  0  0  0  0  0  0
   -0.2256  150.4653   52.8421 C   0  0  0  0  0  0  0  0  0  0  0  0
   -1.9638  150.8743   52.1505 Br  0  0  0  0  0  0  0  0  0  0  0  0
    0.5923  149.5405   52.1772 C   0  0  0  0  0  0  0  0  0  0  0  0
    0.2289  149.0758   51.2652 H   0  0  0  0  0  0  0  0  0  0  0  0
    1.8703  149.2188   52.6760 C   0  0  0  0  0  0  0  0  0  0  0  0
    2.7087  148.3434   52.0220 O   0  0  0  0  0  0  0  0  0  0  0  0
    2.0713  147.3106   51.2516 C   0  0  0  0  0  0  0  0  0  0  0  0
    1.3629  146.7544   51.8717 H   0  0  0  0  0  0  0  0  0  0  0  0
    1.5316  147.7243   50.3943 H   0  0  0  0  0  0  0  0  0  0  0  0
    2.8211  146.6054   50.8790 H   0  0  0  0  0  0  0  0  0  0  0  0
    3.9103  145.4942   56.2558 C   0  0  0  0  0  0  0  0  0  0  0  0
    4.1142  146.2147   57.0329 H   0  0  0  0  0  0  0  0  0  0  0  0
    3.7184  144.1714   56.5200 C   0  0  0  0  0  0  0  0  0  0  0  0
    3.8231  143.7998   57.8092 N   0  0  0  0  0  0  0  0  0  0  0  0
    4.2866  144.4669   58.4205 H   0  0  0  0  0  0  0  0  0  0  0  0
    4.0012  142.8092   57.9530 H   0  0  0  0  0  0  0  0  0  0  0  0
    3.4329  143.2729   55.5118 C   0  0  0  0  0  0  0  0  0  0  0  0
    3.1834  141.8998   55.8031 C   0  0  0  0  0  0  0  0  0  0  0  0
    3.0002  140.7751   56.0493 N   0  0  0  0  0  0  0  0  0  0  0  0
    1.7254  142.3090   53.0937 C   0  0  0  0  0  0  0  0  0  0  0  0
    1.2170  142.2659   54.0444 H   0  0  0  0  0  0  0  0  0  0  0  0
    1.1421  141.7600   51.9527 C   0  0  0  0  0  0  0  0  0  0  0  0
    0.1824  141.2541   52.0203 H   0  0  0  0  0  0  0  0  0  0  0  0
  1  2  1  0
  2  3  2  0
  3  4  1  0
  3  5  1  0
  5  6  1  0
  5  7  2  0
  7  8  1  0
  8  9  2  0
  9 10  1  0
 10 11  1  0
 11 12  1  0
 11 13  1  0
 13 14  2  0
 13 15  1  0
 15 16  1  0
 15 17  1  0
 15 18  1  0
 18 19  2  0
 19 20  1  0
 19 21  1  0
 21 22  1  0
 22 23  1  0
 23 24  1  0
 23 25  1  0
 23 26  1  0
 21 27  2  0
 27 28  1  0
 27 29  1  0
 29 30  1  0
 29 31  2  0
 31 32  1  0
 32 33  1  0
 33 34  1  0
 33 35  1  0
 33 36  1  0
 10 37  2  0
 37 38  1  0
 37 39  1  0
 39 40  1  0
 40 41  1  0
 40 42  1  0
 39 43  2  0
 43 44  1  0
 44 45  3  0
  7 46  1  0
 46 47  1  0
 46 48  2  0
 48 49  1  0
 48  2  1  0
 43  8  1  0
 31 18  1  0
M  END
>  <score>  (139) 
7.0154

$$$$

     RDKit          3D

 46 48  0  0  0  0  0  0  0  0999 V2000
    3.4524  140.8757   53.7587 H   0  0  0  0  0  0  0  0  0  0  0  0
    2.7295  141.4953   53.2370 C   0  0  0  0  0  0  0  0  0  0  0  0
    2.0659  141.0685   52.1882 N   0  0  0  0  0  0  0  0  0  0  0  0
    1.2730  142.1038   51.8085 N   0  0  0  0  0  0  0  0  0  0  0  0
    0.6765  142.0692   50.9835 H   0  0  0  0  0  0  0  0  0  0  0  0
    1.4269  143.2144   52.6158 C   0  0  0  0  0  0  0  0  0  0  0  0
    0.9153  144.1685   52.5068 H   0  0  0  0  0  0  0  0  0  0  0  0
    2.3513  142.8562   53.5604 C   0  0  0  0  0  0  0  0  0  0  0  0
    2.8988  143.6838   54.6301 C   0  0  0  0  0  0  0  0  0  0  0  0
    3.0318  144.9720   54.3346 N   0  0  0  0  0  0  0  0  0  0  0  0
    3.5337  145.7911   55.2316 C   0  0  0  0  0  0  0  0  0  0  0  0
    3.7062  146.9945   54.6507 N   0  0  0  0  0  0  0  0  0  0  0  0
    3.5265  146.9594   53.6611 H   0  0  0  0  0  0  0  0  0  0  0  0
    3.7465  148.2110   55.2694 C   0  0  0  0  0  0  0  0  0  0  0  0
    3.8505  148.2712   56.4839 O   0  0  0  0  0  0  0  0  0  0  0  0
    3.7273  149.4731   54.3977 C   0  0  0  0  0  0  0  0  0  0  0  0
    4.4157  149.3540   53.5585 H   0  0  0  0  0  0  0  0  0  0  0  0
    3.9945  150.3532   54.9717 H   0  0  0  0  0  0  0  0  0  0  0  0
    2.3822  149.7833   53.8573 C   0  0  0  0  0  0  0  0  0  0  0  0
    1.5992  150.6887   54.5735 C   0  0  0  0  0  0  0  0  0  0  0  0
    1.9941  151.1421   55.4738 H   0  0  0  0  0  0  0  0  0  0  0  0
    0.3362  151.0585   54.1332 C   0  0  0  0  0  0  0  0  0  0  0  0
   -0.3782  151.9758   54.8604 O   0  0  0  0  0  0  0  0  0  0  0  0
   -1.4262  151.4043   55.6488 C   0  0  0  0  0  0  0  0  0  0  0  0
   -1.9427  152.2012   56.1933 H   0  0  0  0  0  0  0  0  0  0  0  0
   -2.1538  150.8744   55.0248 H   0  0  0  0  0  0  0  0  0  0  0  0
   -1.0141  150.7036   56.3768 H   0  0  0  0  0  0  0  0  0  0  0  0
   -0.1426  150.5014   52.9371 C   0  0  0  0  0  0  0  0  0  0  0  0
   -1.8669  150.9842   52.2773 Br  0  0  0  0  0  0  0  0  0  0  0  0
    0.6609  149.6094   52.1980 C   0  0  0  0  0  0  0  0  0  0  0  0
    0.3099  149.2046   51.2561 H   0  0  0  0  0  0  0  0  0  0  0  0
    1.9362  149.2398   52.6482 C   0  0  0  0  0  0  0  0  0  0  0  0
    2.7766  148.4026   51.9483 O   0  0  0  0  0  0  0  0  0  0  0  0
    2.1664  147.2956   51.2812 C   0  0  0  0  0  0  0  0  0  0  0  0
    1.6261  147.6337   50.3923 H   0  0  0  0  0  0  0  0  0  0  0  0
    1.4739  146.7703   51.9485 H   0  0  0  0  0  0  0  0  0  0  0  0
    2.9505  146.5948   50.9750 H   0  0  0  0  0  0  0  0  0  0  0  0
    3.8945  145.4198   56.4979 C   0  0  0  0  0  0  0  0  0  0  0  0
    4.3097  146.1144   57.2164 H   0  0  0  0  0  0  0  0  0  0  0  0
    3.7569  144.0946   56.7897 C   0  0  0  0  0  0  0  0  0  0  0  0
    4.1471  143.7133   58.0189 N   0  0  0  0  0  0  0  0  0  0  0  0
    4.4951  144.4257   58.6577 H   0  0  0  0  0  0  0  0  0  0  0  0
    4.0620  142.7375   58.2964 H   0  0  0  0  0  0  0  0  0  0  0  0
    3.2758  143.1896   55.8708 C   0  0  0  0  0  0  0  0  0  0  0  0
    3.1457  141.8112   56.2003 C   0  0  0  0  0  0  0  0  0  0  0  0
    3.0325  140.6796   56.4444 N   0  0  0  0  0  0  0  0  0  0  0  0
  1  2  1  0
  2  3  2  0
  3  4  1  0
  4  5  1  0
  4  6  1  0
  6  7  1  0
  6  8  2  0
  8  9  1  0
  9 10  2  0
 10 11  1  0
 11 12  1  0
 12 13  1  0
 12 14  1  0
 14 15  2  0
 14 16  1  0
 16 17  1  0
 16 18  1  0
 16 19  1  0
 19 20  2  0
 20 21  1  0
 20 22  1  0
 22 23  1  0
 23 24  1  0
 24 25  1  0
 24 26  1  0
 24 27  1  0
 22 28  2  0
 28 29  1  0
 28 30  1  0
 30 31  1  0
 30 32  2  0
 32 33  1  0
 33 34  1  0
 34 35  1  0
 34 36  1  0
 34 37  1  0
 11 38  2  0
 38 39  1  0
 38 40  1  0
 40 41  1  0
 41 42  1  0
 41 43  1  0
 40 44  2  0
 44 45  1  0
 45 46  3  0
  8  2  1  0
 44  9  1  0
 32 19  1  0
M  END
>  <score>  (140) 
7.01552

$$$$

     RDKit          3D

 50 52  0  0  0  0  0  0  0  0999 V2000
    0.2852  149.1691   51.2275 H   0  0  0  0  0  0  0  0  0  0  0  0
    0.6158  149.5696   52.1804 C   0  0  0  0  0  0  0  0  0  0  0  0
   -0.1847  150.4723   52.9039 C   0  0  0  0  0  0  0  0  0  0  0  0
   -1.9205  150.9794   52.2662 Br  0  0  0  0  0  0  0  0  0  0  0  0
    0.3042  151.0331   54.0990 C   0  0  0  0  0  0  0  0  0  0  0  0
   -0.3840  151.9731   54.8049 O   0  0  0  0  0  0  0  0  0  0  0  0
   -1.4190  151.4048   55.6037 C   0  0  0  0  0  0  0  0  0  0  0  0
   -1.0057  150.6872   56.3138 H   0  0  0  0  0  0  0  0  0  0  0  0
   -1.9302  152.1949   56.1598 H   0  0  0  0  0  0  0  0  0  0  0  0
   -2.1445  150.8867   54.9738 H   0  0  0  0  0  0  0  0  0  0  0  0
    1.5565  150.6740   54.5786 C   0  0  0  0  0  0  0  0  0  0  0  0
    1.9404  151.1322   55.4897 H   0  0  0  0  0  0  0  0  0  0  0  0
    2.3327  149.7618   53.8755 C   0  0  0  0  0  0  0  0  0  0  0  0
    3.6878  149.4536   54.4252 C   0  0  0  0  0  0  0  0  0  0  0  0
    3.9574  150.2574   55.0933 H   0  0  0  0  0  0  0  0  0  0  0  0
    4.4064  149.4186   53.6106 H   0  0  0  0  0  0  0  0  0  0  0  0
    3.7425  148.1649   55.2210 C   0  0  0  0  0  0  0  0  0  0  0  0
    3.8142  148.2024   56.4330 O   0  0  0  0  0  0  0  0  0  0  0  0
    3.7369  146.9720   54.5737 N   0  0  0  0  0  0  0  0  0  0  0  0
    3.4214  146.9322   53.6148 H   0  0  0  0  0  0  0  0  0  0  0  0
    3.6131  145.7964   55.1815 C   0  0  0  0  0  0  0  0  0  0  0  0
    3.1507  144.9851   54.2651 N   0  0  0  0  0  0  0  0  0  0  0  0
    2.9578  143.7129   54.5784 C   0  0  0  0  0  0  0  0  0  0  0  0
    2.3840  142.8329   53.4935 C   0  0  2  0  0  0  0  0  0  0  0  0
    2.3129  141.8059   53.8612 H   0  0  0  0  0  0  0  0  0  0  0  0
    3.2080  142.8555   52.2062 C   0  0  0  0  0  0  0  0  0  0  0  0
    3.6445  143.8394   52.0095 H   0  0  0  0  0  0  0  0  0  0  0  0
    4.0263  142.1322   52.2392 H   0  0  0  0  0  0  0  0  0  0  0  0
    2.2892  142.5428   51.1518 O   0  0  0  0  0  0  0  0  0  0  0  0
    0.9383  142.7759   51.5627 C   0  0  0  0  0  0  0  0  0  0  0  0
    0.3697  141.8365   51.5738 H   0  0  0  0  0  0  0  0  0  0  0  0
    0.4403  143.4866   50.8929 H   0  0  0  0  0  0  0  0  0  0  0  0
    1.0325  143.3319   52.9605 C   0  0  0  0  0  0  0  0  0  0  0  0
    0.1600  143.0302   53.5096 H   0  0  0  0  0  0  0  0  0  0  0  0
    1.0171  144.4215   52.9227 H   0  0  0  0  0  0  0  0  0  0  0  0
    3.2705  143.2319   55.8406 C   0  0  0  0  0  0  0  0  0  0  0  0
    3.1441  141.8484   56.1576 C   0  0  0  0  0  0  0  0  0  0  0  0
    3.0628  140.7226   56.4361 N   0  0  0  0  0  0  0  0  0  0  0  0
    3.7484  144.1355   56.7664 C   0  0  0  0  0  0  0  0  0  0  0  0
    4.1097  143.7611   58.0122 N   0  0  0  0  0  0  0  0  0  0  0  0
    4.4755  144.4577   58.6538 H   0  0  0  0  0  0  0  0  0  0  0  0
    4.0734  142.7855   58.2746 H   0  0  0  0  0  0  0  0  0  0  0  0
    3.9048  145.4507   56.4705 C   0  0  0  0  0  0  0  0  0  0  0  0
    4.2732  146.1405   57.2187 H   0  0  0  0  0  0  0  0  0  0  0  0
    1.8889  149.2143   52.6620 C   0  0  0  0  0  0  0  0  0  0  0  0
    2.7541  148.4067   51.9677 O   0  0  0  0  0  0  0  0  0  0  0  0
    2.1449  147.3143   51.2791 C   0  0  0  0  0  0  0  0  0  0  0  0
    1.5982  147.6650   50.4001 H   0  0  0  0  0  0  0  0  0  0  0  0
    1.4537  146.7902   51.9447 H   0  0  0  0  0  0  0  0  0  0  0  0
    2.9119  146.6065   50.9540 H   0  0  0  0  0  0  0  0  0  0  0  0
  1  2  1  0
  2  3  2  0
  3  4  1  0
  3  5  1  0
  5  6  1  0
  6  7  1  0
  7  8  1  0
  7  9  1  0
  7 10  1  0
  5 11  2  0
 11 12  1  0
 11 13  1  0
 13 14  1  0
 14 15  1  0
 14 16  1  0
 14 17  1  0
 17 18  2  0
 17 19  1  0
 19 20  1  0
 19 21  1  0
 21 22  2  0
 22 23  1  0
 23 24  1  0
 24 25  1  1
 24 26  1  0
 26 27  1  0
 26 28  1  0
 26 29  1  0
 29 30  1  0
 30 31  1  0
 30 32  1  0
 30 33  1  0
 33 34  1  0
 33 35  1  0
 23 36  2  0
 36 37  1  0
 37 38  3  0
 36 39  1  0
 39 40  1  0
 40 41  1  0
 40 42  1  0
 39 43  2  0
 43 44  1  0
 13 45  2  0
 45 46  1  0
 46 47  1  0
 47 48  1  0
 47 49  1  0
 47 50  1  0
 45  2  1  0
 43 21  1  0
 33 24  1  0
M  END
>  <score>  (141) 
7.01632

$$$$

     RDKit          3D

 49 51  0  0  0  0  0  0  0  0999 V2000
    0.0642  141.7300   52.0423 H   0  0  0  0  0  0  0  0  0  0  0  0
    0.9880  142.2870   52.2061 C   0  0  0  0  0  0  0  0  0  0  0  0
    1.7471  142.9142   51.2278 N   0  0  0  0  0  0  0  0  0  0  0  0
    2.8014  143.4073   51.8357 C   0  0  0  0  0  0  0  0  0  0  0  0
    3.9067  144.0971   51.1189 C   0  0  0  0  0  0  0  0  0  0  0  0
    4.0937  143.5610   50.1894 H   0  0  0  0  0  0  0  0  0  0  0  0
    4.8088  144.0989   51.7290 H   0  0  0  0  0  0  0  0  0  0  0  0
    3.6355  145.1191   50.8757 H   0  0  0  0  0  0  0  0  0  0  0  0
    2.7623  143.1430   53.1851 N   0  0  0  0  0  0  0  0  0  0  0  0
    3.4078  143.8625   54.1620 C   0  0  0  0  0  0  0  0  0  0  0  0
    3.6548  145.1252   53.8423 N   0  0  0  0  0  0  0  0  0  0  0  0
    3.9238  145.9411   54.8296 C   0  0  0  0  0  0  0  0  0  0  0  0
    3.9420  147.2048   54.3953 N   0  0  0  0  0  0  0  0  0  0  0  0
    3.7887  147.2969   53.4025 H   0  0  0  0  0  0  0  0  0  0  0  0
    3.7257  148.2851   55.1926 C   0  0  0  0  0  0  0  0  0  0  0  0
    3.7539  148.1860   56.4089 O   0  0  0  0  0  0  0  0  0  0  0  0
    3.6128  149.6467   54.5493 C   0  0  0  0  0  0  0  0  0  0  0  0
    3.7181  150.3928   55.3377 H   0  0  0  0  0  0  0  0  0  0  0  0
    4.4320  149.7658   53.8348 H   0  0  0  0  0  0  0  0  0  0  0  0
    2.2759  149.8612   53.8864 C   0  0  0  0  0  0  0  0  0  0  0  0
    1.4128  150.7600   54.5285 C   0  0  0  0  0  0  0  0  0  0  0  0
    1.7070  151.2156   55.4705 H   0  0  0  0  0  0  0  0  0  0  0  0
    0.1708  151.0903   53.9864 C   0  0  0  0  0  0  0  0  0  0  0  0
   -0.6151  152.0081   54.6305 O   0  0  0  0  0  0  0  0  0  0  0  0
   -1.5697  151.3904   55.4978 C   0  0  0  0  0  0  0  0  0  0  0  0
   -2.3579  150.9051   54.9132 H   0  0  0  0  0  0  0  0  0  0  0  0
   -1.0902  150.6438   56.1381 H   0  0  0  0  0  0  0  0  0  0  0  0
   -2.0275  152.1444   56.1430 H   0  0  0  0  0  0  0  0  0  0  0  0
   -0.2460  150.4600   52.8059 C   0  0  0  0  0  0  0  0  0  0  0  0
   -1.9709  150.8150   52.0621 Br  0  0  0  0  0  0  0  0  0  0  0  0
    0.5908  149.5244   52.1829 C   0  0  0  0  0  0  0  0  0  0  0  0
    0.2492  149.0229   51.2849 H   0  0  0  0  0  0  0  0  0  0  0  0
    1.8615  149.2100   52.6981 C   0  0  0  0  0  0  0  0  0  0  0  0
    2.6761  148.2807   52.0805 O   0  0  0  0  0  0  0  0  0  0  0  0
    2.0231  147.3105   51.2366 C   0  0  0  0  0  0  0  0  0  0  0  0
    2.7615  146.6410   50.7909 H   0  0  0  0  0  0  0  0  0  0  0  0
    1.3289  146.7052   51.8275 H   0  0  0  0  0  0  0  0  0  0  0  0
    1.4707  147.7822   50.4171 H   0  0  0  0  0  0  0  0  0  0  0  0
    4.0260  145.5701   56.1404 C   0  0  0  0  0  0  0  0  0  0  0  0
    4.2182  146.2894   56.9188 H   0  0  0  0  0  0  0  0  0  0  0  0
    3.8219  144.2645   56.4328 C   0  0  0  0  0  0  0  0  0  0  0  0
    3.8704  143.9104   57.7303 N   0  0  0  0  0  0  0  0  0  0  0  0
    4.2377  144.6117   58.3676 H   0  0  0  0  0  0  0  0  0  0  0  0
    4.0172  142.9263   57.9373 H   0  0  0  0  0  0  0  0  0  0  0  0
    3.5099  143.3710   55.4538 C   0  0  0  0  0  0  0  0  0  0  0  0
    3.2195  142.0143   55.7663 C   0  0  0  0  0  0  0  0  0  0  0  0
    3.0077  140.8860   55.9483 N   0  0  0  0  0  0  0  0  0  0  0  0
    1.6262  142.4059   53.4046 C   0  0  0  0  0  0  0  0  0  0  0  0
    1.3030  142.0431   54.3684 H   0  0  0  0  0  0  0  0  0  0  0  0
  1  2  1  0
  2  3  1  0
  3  4  2  0
  4  5  1  0
  5  6  1  0
  5  7  1  0
  5  8  1  0
  4  9  1  0
  9 10  1  0
 10 11  2  0
 11 12  1  0
 12 13  1  0
 13 14  1  0
 13 15  1  0
 15 16  2  0
 15 17  1  0
 17 18  1  0
 17 19  1  0
 17 20  1  0
 20 21  2  0
 21 22  1  0
 21 23  1  0
 23 24  1  0
 24 25  1  0
 25 26  1  0
 25 27  1  0
 25 28  1  0
 23 29  2  0
 29 30  1  0
 29 31  1  0
 31 32  1  0
 31 33  2  0
 33 34  1  0
 34 35  1  0
 35 36  1  0
 35 37  1  0
 35 38  1  0
 12 39  2  0
 39 40  1  0
 39 41  1  0
 41 42  1  0
 42 43  1  0
 42 44  1  0
 41 45  2  0
 45 46  1  0
 46 47  3  0
  9 48  1  0
 48 49  1  0
 48  2  2  0
 45 10  1  0
 33 20  1  0
M  END
>  <score>  (142) 
7.01951

$$$$

     RDKit          3D

 50 51  0  0  0  0  0  0  0  0999 V2000
    0.2868  149.1810   51.2339 H   0  0  0  0  0  0  0  0  0  0  0  0
    0.6236  149.5801   52.1838 C   0  0  0  0  0  0  0  0  0  0  0  0
   -0.1758  150.4793   52.9109 C   0  0  0  0  0  0  0  0  0  0  0  0
   -1.9102  150.9784   52.2629 Br  0  0  0  0  0  0  0  0  0  0  0  0
    0.3153  151.0385   54.1069 C   0  0  0  0  0  0  0  0  0  0  0  0
   -0.3832  151.9746   54.8153 O   0  0  0  0  0  0  0  0  0  0  0  0
   -1.4210  151.4054   55.6133 C   0  0  0  0  0  0  0  0  0  0  0  0
   -1.0067  150.6901   56.3268 H   0  0  0  0  0  0  0  0  0  0  0  0
   -1.9362  152.1952   56.1698 H   0  0  0  0  0  0  0  0  0  0  0  0
   -2.1475  150.8854   54.9832 H   0  0  0  0  0  0  0  0  0  0  0  0
    1.5698  150.6733   54.5818 C   0  0  0  0  0  0  0  0  0  0  0  0
    1.9524  151.1224   55.4986 H   0  0  0  0  0  0  0  0  0  0  0  0
    2.3476  149.7583   53.8715 C   0  0  0  0  0  0  0  0  0  0  0  0
    3.6994  149.4285   54.4181 C   0  0  0  0  0  0  0  0  0  0  0  0
    4.4229  149.3836   53.6049 H   0  0  0  0  0  0  0  0  0  0  0  0
    3.9735  150.2275   55.0910 H   0  0  0  0  0  0  0  0  0  0  0  0
    3.7274  148.1392   55.2153 C   0  0  0  0  0  0  0  0  0  0  0  0
    3.8116  148.1771   56.4285 O   0  0  0  0  0  0  0  0  0  0  0  0
    3.6892  146.9490   54.5622 N   0  0  0  0  0  0  0  0  0  0  0  0
    3.4227  146.9380   53.5874 H   0  0  0  0  0  0  0  0  0  0  0  0
    3.5429  145.7691   55.1634 C   0  0  0  0  0  0  0  0  0  0  0  0
    3.0483  144.9558   54.2776 N   0  0  0  0  0  0  0  0  0  0  0  0
    2.8987  143.7048   54.6455 C   0  0  0  0  0  0  0  0  0  0  0  0
    2.3767  142.8577   53.7147 N   0  0  0  0  0  0  0  0  0  0  0  0
    2.3327  141.8811   53.9741 H   0  0  0  0  0  0  0  0  0  0  0  0
    1.9931  143.3031   52.3729 C   0  0  0  0  0  0  0  0  0  0  0  0
    1.1994  144.0499   52.4545 H   0  0  0  0  0  0  0  0  0  0  0  0
    2.8529  143.7678   51.8782 H   0  0  0  0  0  0  0  0  0  0  0  0
    1.4775  142.1501   51.5229 C   0  0  0  0  0  0  0  0  0  0  0  0
    0.5966  141.7081   51.9971 H   0  0  0  0  0  0  0  0  0  0  0  0
    2.2471  141.3764   51.4380 H   0  0  0  0  0  0  0  0  0  0  0  0
    1.1074  142.6784   50.1314 C   0  0  0  0  0  0  0  0  0  0  0  0
    0.4956  143.5822   50.2132 H   0  0  0  0  0  0  0  0  0  0  0  0
    0.5582  141.9235   49.5538 H   0  0  0  0  0  0  0  0  0  0  0  0
    2.0143  142.9542   49.5865 H   0  0  0  0  0  0  0  0  0  0  0  0
    3.2412  143.2181   55.8699 C   0  0  0  0  0  0  0  0  0  0  0  0
    3.1210  141.8282   56.1656 C   0  0  0  0  0  0  0  0  0  0  0  0
    3.0479  140.6926   56.3951 N   0  0  0  0  0  0  0  0  0  0  0  0
    3.7323  144.1216   56.7642 C   0  0  0  0  0  0  0  0  0  0  0  0
    4.1246  143.7430   57.9874 N   0  0  0  0  0  0  0  0  0  0  0  0
    4.0565  142.7672   58.2579 H   0  0  0  0  0  0  0  0  0  0  0  0
    4.4685  144.4497   58.6300 H   0  0  0  0  0  0  0  0  0  0  0  0
    3.8790  145.4338   56.4467 C   0  0  0  0  0  0  0  0  0  0  0  0
    4.2797  146.1300   57.1719 H   0  0  0  0  0  0  0  0  0  0  0  0
    1.8961  149.2200   52.6553 C   0  0  0  0  0  0  0  0  0  0  0  0
    2.7575  148.4035   51.9604 O   0  0  0  0  0  0  0  0  0  0  0  0
    2.1486  147.3068   51.2764 C   0  0  0  0  0  0  0  0  0  0  0  0
    2.9179  146.5978   50.9561 H   0  0  0  0  0  0  0  0  0  0  0  0
    1.6036  147.6512   50.3927 H   0  0  0  0  0  0  0  0  0  0  0  0
    1.4568  146.7844   51.9440 H   0  0  0  0  0  0  0  0  0  0  0  0
  1  2  1  0
  2  3  2  0
  3  4  1  0
  3  5  1  0
  5  6  1  0
  6  7  1  0
  7  8  1  0
  7  9  1  0
  7 10  1  0
  5 11  2  0
 11 12  1  0
 11 13  1  0
 13 14  1  0
 14 15  1  0
 14 16  1  0
 14 17  1  0
 17 18  2  0
 17 19  1  0
 19 20  1  0
 19 21  1  0
 21 22  2  0
 22 23  1  0
 23 24  1  0
 24 25  1  0
 24 26  1  0
 26 27  1  0
 26 28  1  0
 26 29  1  0
 29 30  1  0
 29 31  1  0
 29 32  1  0
 32 33  1  0
 32 34  1  0
 32 35  1  0
 23 36  2  0
 36 37  1  0
 37 38  3  0
 36 39  1  0
 39 40  1  0
 40 41  1  0
 40 42  1  0
 39 43  2  0
 43 44  1  0
 13 45  2  0
 45 46  1  0
 46 47  1  0
 47 48  1  0
 47 49  1  0
 47 50  1  0
 45  2  1  0
 43 21  1  0
M  END
>  <score>  (143) 
7.02293

$$$$

     RDKit          3D

 53 54  0  0  0  0  0  0  0  0999 V2000
    0.2819  149.1717   51.2288 H   0  0  0  0  0  0  0  0  0  0  0  0
    0.6132  149.5703   52.1810 C   0  0  0  0  0  0  0  0  0  0  0  0
   -0.1874  150.4710   52.9035 C   0  0  0  0  0  0  0  0  0  0  0  0
   -1.9211  150.9761   52.2602 Br  0  0  0  0  0  0  0  0  0  0  0  0
    0.3086  151.0310   54.0976 C   0  0  0  0  0  0  0  0  0  0  0  0
   -0.3838  151.9734   54.8006 O   0  0  0  0  0  0  0  0  0  0  0  0
   -1.4196  151.4056   55.6014 C   0  0  0  0  0  0  0  0  0  0  0  0
   -2.1463  150.8884   54.9701 H   0  0  0  0  0  0  0  0  0  0  0  0
   -1.0056  150.6865   56.3116 H   0  0  0  0  0  0  0  0  0  0  0  0
   -1.9327  152.1943   56.1610 H   0  0  0  0  0  0  0  0  0  0  0  0
    1.5609  150.6675   54.5811 C   0  0  0  0  0  0  0  0  0  0  0  0
    1.9374  151.1216   55.4992 H   0  0  0  0  0  0  0  0  0  0  0  0
    2.3351  149.7484   53.8779 C   0  0  0  0  0  0  0  0  0  0  0  0
    3.6883  149.4077   54.4255 C   0  0  0  0  0  0  0  0  0  0  0  0
    4.4165  149.3916   53.6142 H   0  0  0  0  0  0  0  0  0  0  0  0
    3.9673  150.1826   55.1276 H   0  0  0  0  0  0  0  0  0  0  0  0
    3.7101  148.0933   55.1845 C   0  0  0  0  0  0  0  0  0  0  0  0
    3.7961  148.1148   56.3959 O   0  0  0  0  0  0  0  0  0  0  0  0
    3.6104  146.9108   54.5194 N   0  0  0  0  0  0  0  0  0  0  0  0
    3.3799  146.9178   53.5385 H   0  0  0  0  0  0  0  0  0  0  0  0
    3.5113  145.7182   55.1252 C   0  0  0  0  0  0  0  0  0  0  0  0
    3.0429  144.8568   54.2668 N   0  0  0  0  0  0  0  0  0  0  0  0
    2.9712  143.6213   54.6827 C   0  0  0  0  0  0  0  0  0  0  0  0
    2.4064  142.8811   53.7123 N   0  0  0  0  0  0  0  0  0  0  0  0
    1.9937  143.5534   53.0754 H   0  0  0  0  0  0  0  0  0  0  0  0
    3.1991  141.8248   53.0664 C   0  0  0  0  0  0  0  0  0  0  0  0
    3.9643  141.4024   53.7259 H   0  0  0  0  0  0  0  0  0  0  0  0
    2.5287  141.0104   52.7763 H   0  0  0  0  0  0  0  0  0  0  0  0
    3.8624  142.4143   51.8259 C   0  0  0  0  0  0  0  0  0  0  0  0
    4.4469  143.2958   52.0944 H   0  0  0  0  0  0  0  0  0  0  0  0
    3.0602  142.7684   51.1794 H   0  0  0  0  0  0  0  0  0  0  0  0
    4.7127  141.4026   51.0203 C   0  0  0  0  0  0  0  0  0  0  0  0
    5.1107  141.9115   50.1342 H   0  0  0  0  0  0  0  0  0  0  0  0
    4.0498  140.6019   50.6854 H   0  0  0  0  0  0  0  0  0  0  0  0
    5.8897  140.7383   51.7505 C   0  0  0  0  0  0  0  0  0  0  0  0
    6.3383  139.9720   51.1068 H   0  0  0  0  0  0  0  0  0  0  0  0
    6.6730  141.4629   51.9752 H   0  0  0  0  0  0  0  0  0  0  0  0
    5.5684  140.2547   52.6776 H   0  0  0  0  0  0  0  0  0  0  0  0
    3.3359  143.1573   55.9049 C   0  0  0  0  0  0  0  0  0  0  0  0
    3.2006  141.7696   56.2159 C   0  0  0  0  0  0  0  0  0  0  0  0
    3.0731  140.6338   56.4219 N   0  0  0  0  0  0  0  0  0  0  0  0
    3.7804  144.1113   56.7694 C   0  0  0  0  0  0  0  0  0  0  0  0
    4.1424  143.7648   58.0025 N   0  0  0  0  0  0  0  0  0  0  0  0
    4.4672  144.4794   58.6477 H   0  0  0  0  0  0  0  0  0  0  0  0
    4.0696  142.7885   58.2640 H   0  0  0  0  0  0  0  0  0  0  0  0
    3.8740  145.4231   56.4156 C   0  0  0  0  0  0  0  0  0  0  0  0
    4.2537  146.1606   57.1125 H   0  0  0  0  0  0  0  0  0  0  0  0
    1.8851  149.2137   52.6602 C   0  0  0  0  0  0  0  0  0  0  0  0
    2.7515  148.4036   51.9681 O   0  0  0  0  0  0  0  0  0  0  0  0
    2.1422  147.3137   51.2752 C   0  0  0  0  0  0  0  0  0  0  0  0
    2.9077  146.6041   50.9492 H   0  0  0  0  0  0  0  0  0  0  0  0
    1.4505  146.7904   51.9406 H   0  0  0  0  0  0  0  0  0  0  0  0
    1.5961  147.6634   50.3950 H   0  0  0  0  0  0  0  0  0  0  0  0
  1  2  1  0
  2  3  2  0
  3  4  1  0
  3  5  1  0
  5  6  1  0
  6  7  1  0
  7  8  1  0
  7  9  1  0
  7 10  1  0
  5 11  2  0
 11 12  1  0
 11 13  1  0
 13 14  1  0
 14 15  1  0
 14 16  1  0
 14 17  1  0
 17 18  2  0
 17 19  1  0
 19 20  1  0
 19 21  1  0
 21 22  2  0
 22 23  1  0
 23 24  1  0
 24 25  1  0
 24 26  1  0
 26 27  1  0
 26 28  1  0
 26 29  1  0
 29 30  1  0
 29 31  1  0
 29 32  1  0
 32 33  1  0
 32 34  1  0
 32 35  1  0
 35 36  1  0
 35 37  1  0
 35 38  1  0
 23 39  2  0
 39 40  1  0
 40 41  3  0
 39 42  1  0
 42 43  1  0
 43 44  1  0
 43 45  1  0
 42 46  2  0
 46 47  1  0
 13 48  2  0
 48 49  1  0
 49 50  1  0
 50 51  1  0
 50 52  1  0
 50 53  1  0
 48  2  1  0
 46 21  1  0
M  END
>  <score>  (144) 
7.02385

$$$$

     RDKit          3D

 49 50  0  0  0  0  0  0  0  0999 V2000
    0.3044  149.2019   51.2514 H   0  0  0  0  0  0  0  0  0  0  0  0
    0.6595  149.6070   52.1950 C   0  0  0  0  0  0  0  0  0  0  0  0
   -0.1436  150.5013   52.9347 C   0  0  0  0  0  0  0  0  0  0  0  0
   -1.8699  150.9841   52.2755 Br  0  0  0  0  0  0  0  0  0  0  0  0
    0.3335  151.0596   54.1321 C   0  0  0  0  0  0  0  0  0  0  0  0
   -0.3798  151.9757   54.8610 O   0  0  0  0  0  0  0  0  0  0  0  0
   -1.4271  151.4045   55.6492 C   0  0  0  0  0  0  0  0  0  0  0  0
   -2.1530  150.8754   55.0245 H   0  0  0  0  0  0  0  0  0  0  0  0
   -1.0147  150.7039   56.3756 H   0  0  0  0  0  0  0  0  0  0  0  0
   -1.9438  152.2007   56.1936 H   0  0  0  0  0  0  0  0  0  0  0  0
    1.5974  150.6919   54.5733 C   0  0  0  0  0  0  0  0  0  0  0  0
    1.9912  151.1449   55.4740 H   0  0  0  0  0  0  0  0  0  0  0  0
    2.3827  149.7896   53.8560 C   0  0  0  0  0  0  0  0  0  0  0  0
    3.7284  149.4790   54.3987 C   0  0  0  0  0  0  0  0  0  0  0  0
    4.4182  149.3590   53.5610 H   0  0  0  0  0  0  0  0  0  0  0  0
    3.9970  150.3567   54.9703 H   0  0  0  0  0  0  0  0  0  0  0  0
    3.7544  148.2218   55.2731 C   0  0  0  0  0  0  0  0  0  0  0  0
    3.8539  148.2810   56.4877 O   0  0  0  0  0  0  0  0  0  0  0  0
    3.7186  147.0073   54.6546 N   0  0  0  0  0  0  0  0  0  0  0  0
    3.5258  146.9698   53.6660 H   0  0  0  0  0  0  0  0  0  0  0  0
    3.5361  145.8150   55.2498 C   0  0  0  0  0  0  0  0  0  0  0  0
    3.0383  144.9882   54.3526 N   0  0  0  0  0  0  0  0  0  0  0  0
    2.9116  143.6919   54.6606 C   0  0  0  0  0  0  0  0  0  0  0  0
    2.3869  142.7547   53.5759 C   0  0  0  0  0  0  0  0  0  0  0  0
    1.9121  143.3854   52.8135 H   0  0  0  0  0  0  0  0  0  0  0  0
    1.5980  142.1648   54.0494 H   0  0  0  0  0  0  0  0  0  0  0  0
    3.4038  141.8590   52.9473 N   0  0  0  0  0  0  0  0  0  0  0  0
    4.3873  141.9699   53.1890 H   0  0  0  0  0  0  0  0  0  0  0  0
    3.1577  140.9441   51.9419 C   0  0  0  0  0  0  0  0  0  0  0  0
    2.0149  140.7685   51.5434 O   0  0  0  0  0  0  0  0  0  0  0  0
    4.3611  140.1709   51.4091 C   0  0  0  0  0  0  0  0  0  0  0  0
    5.1404  140.8700   51.0996 H   0  0  0  0  0  0  0  0  0  0  0  0
    4.1182  139.5411   50.5540 H   0  0  0  0  0  0  0  0  0  0  0  0
    4.7635  139.5397   52.2032 H   0  0  0  0  0  0  0  0  0  0  0  0
    3.2565  143.2180   55.9217 C   0  0  0  0  0  0  0  0  0  0  0  0
    3.1386  141.8333   56.2412 C   0  0  0  0  0  0  0  0  0  0  0  0
    3.0437  140.6925   56.4539 N   0  0  0  0  0  0  0  0  0  0  0  0
    3.7471  144.1251   56.8281 C   0  0  0  0  0  0  0  0  0  0  0  0
    4.1600  143.7243   58.0423 N   0  0  0  0  0  0  0  0  0  0  0  0
    4.5056  144.4246   58.6903 H   0  0  0  0  0  0  0  0  0  0  0  0
    4.0629  142.7477   58.3079 H   0  0  0  0  0  0  0  0  0  0  0  0
    3.8958  145.4456   56.5192 C   0  0  0  0  0  0  0  0  0  0  0  0
    4.3262  146.1348   57.2310 H   0  0  0  0  0  0  0  0  0  0  0  0
    1.9359  149.2411   52.6488 C   0  0  0  0  0  0  0  0  0  0  0  0
    2.7754  148.4027   51.9500 O   0  0  0  0  0  0  0  0  0  0  0  0
    2.1653  147.2962   51.2812 C   0  0  0  0  0  0  0  0  0  0  0  0
    1.6236  147.6358   50.3943 H   0  0  0  0  0  0  0  0  0  0  0  0
    2.9495  146.5971   50.9719 H   0  0  0  0  0  0  0  0  0  0  0  0
    1.4752  146.7694   51.9487 H   0  0  0  0  0  0  0  0  0  0  0  0
  1  2  1  0
  2  3  2  0
  3  4  1  0
  3  5  1  0
  5  6  1  0
  6  7  1  0
  7  8  1  0
  7  9  1  0
  7 10  1  0
  5 11  2  0
 11 12  1  0
 11 13  1  0
 13 14  1  0
 14 15  1  0
 14 16  1  0
 14 17  1  0
 17 18  2  0
 17 19  1  0
 19 20  1  0
 19 21  1  0
 21 22  2  0
 22 23  1  0
 23 24  1  0
 24 25  1  0
 24 26  1  0
 24 27  1  0
 27 28  1  0
 27 29  1  0
 29 30  2  0
 29 31  1  0
 31 32  1  0
 31 33  1  0
 31 34  1  0
 23 35  2  0
 35 36  1  0
 36 37  3  0
 35 38  1  0
 38 39  1  0
 39 40  1  0
 39 41  1  0
 38 42  2  0
 42 43  1  0
 13 44  2  0
 44 45  1  0
 45 46  1  0
 46 47  1  0
 46 48  1  0
 46 49  1  0
 44  2  1  0
 42 21  1  0
M  END
>  <score>  (145) 
7.02481

$$$$

     RDKit          3D

 49 51  0  0  0  0  0  0  0  0999 V2000
    0.3057  149.2032   51.2527 H   0  0  0  0  0  0  0  0  0  0  0  0
    0.6614  149.6073   52.1965 C   0  0  0  0  0  0  0  0  0  0  0  0
   -0.1425  150.5024   52.9350 C   0  0  0  0  0  0  0  0  0  0  0  0
   -1.8692  150.9829   52.2737 Br  0  0  0  0  0  0  0  0  0  0  0  0
    0.3353  151.0605   54.1333 C   0  0  0  0  0  0  0  0  0  0  0  0
   -0.3799  151.9761   54.8631 O   0  0  0  0  0  0  0  0  0  0  0  0
   -1.4278  151.4051   55.6510 C   0  0  0  0  0  0  0  0  0  0  0  0
   -2.1534  150.8757   55.0263 H   0  0  0  0  0  0  0  0  0  0  0  0
   -1.0156  150.7046   56.3776 H   0  0  0  0  0  0  0  0  0  0  0  0
   -1.9458  152.2004   56.1955 H   0  0  0  0  0  0  0  0  0  0  0  0
    1.5996  150.6933   54.5747 C   0  0  0  0  0  0  0  0  0  0  0  0
    1.9923  151.1466   55.4755 H   0  0  0  0  0  0  0  0  0  0  0  0
    2.3856  149.7897   53.8585 C   0  0  0  0  0  0  0  0  0  0  0  0
    3.7321  149.4770   54.3982 C   0  0  0  0  0  0  0  0  0  0  0  0
    4.4219  149.3542   53.5603 H   0  0  0  0  0  0  0  0  0  0  0  0
    4.0062  150.3541   54.9663 H   0  0  0  0  0  0  0  0  0  0  0  0
    3.7551  148.2225   55.2752 C   0  0  0  0  0  0  0  0  0  0  0  0
    3.8515  148.2856   56.4908 O   0  0  0  0  0  0  0  0  0  0  0  0
    3.7069  147.0105   54.6533 N   0  0  0  0  0  0  0  0  0  0  0  0
    3.5358  146.9786   53.6607 H   0  0  0  0  0  0  0  0  0  0  0  0
    3.5446  145.8085   55.2365 C   0  0  0  0  0  0  0  0  0  0  0  0
    3.0656  144.9819   54.3315 N   0  0  0  0  0  0  0  0  0  0  0  0
    2.9355  143.6935   54.6427 C   0  0  0  0  0  0  0  0  0  0  0  0
    2.3927  142.8048   53.5609 C   0  0  0  0  0  0  0  0  0  0  0  0
    1.6865  143.3865   52.9576 H   0  0  0  0  0  0  0  0  0  0  0  0
    1.8554  141.9891   54.0383 H   0  0  0  0  0  0  0  0  0  0  0  0
    3.4881  142.2411   52.6451 C   0  0  0  0  0  0  0  0  0  0  0  0
    4.2028  142.9981   52.2909 H   0  0  0  0  0  0  0  0  0  0  0  0
    3.9987  140.8203   52.8965 C   0  0  0  0  0  0  0  0  0  0  0  0
    5.0641  140.6191   52.7329 H   0  0  0  0  0  0  0  0  0  0  0  0
    3.5565  140.2486   53.7207 H   0  0  0  0  0  0  0  0  0  0  0  0
    3.1252  141.1185   51.6739 C   0  0  0  0  0  0  0  0  0  0  0  0
    3.6034  141.1234   50.6890 H   0  0  0  0  0  0  0  0  0  0  0  0
    2.0930  140.7532   51.6670 H   0  0  0  0  0  0  0  0  0  0  0  0
    3.2693  143.2057   55.8997 C   0  0  0  0  0  0  0  0  0  0  0  0
    3.1399  141.8221   56.2200 C   0  0  0  0  0  0  0  0  0  0  0  0
    3.0359  140.6848   56.4469 N   0  0  0  0  0  0  0  0  0  0  0  0
    3.7508  144.1109   56.8149 C   0  0  0  0  0  0  0  0  0  0  0  0
    4.1479  143.7174   58.0390 N   0  0  0  0  0  0  0  0  0  0  0  0
    4.0664  142.7408   58.3109 H   0  0  0  0  0  0  0  0  0  0  0  0
    4.5042  144.4209   58.6800 H   0  0  0  0  0  0  0  0  0  0  0  0
    3.8965  145.4354   56.5087 C   0  0  0  0  0  0  0  0  0  0  0  0
    4.3173  146.1302   57.2232 H   0  0  0  0  0  0  0  0  0  0  0  0
    1.9375  149.2401   52.6514 C   0  0  0  0  0  0  0  0  0  0  0  0
    2.7760  148.4017   51.9497 O   0  0  0  0  0  0  0  0  0  0  0  0
    2.1662  147.2951   51.2809 C   0  0  0  0  0  0  0  0  0  0  0  0
    2.9501  146.5952   50.9718 H   0  0  0  0  0  0  0  0  0  0  0  0
    1.6250  147.6339   50.3935 H   0  0  0  0  0  0  0  0  0  0  0  0
    1.4761  146.7685   51.9486 H   0  0  0  0  0  0  0  0  0  0  0  0
  1  2  1  0
  2  3  2  0
  3  4  1  0
  3  5  1  0
  5  6  1  0
  6  7  1  0
  7  8  1  0
  7  9  1  0
  7 10  1  0
  5 11  2  0
 11 12  1  0
 11 13  1  0
 13 14  1  0
 14 15  1  0
 14 16  1  0
 14 17  1  0
 17 18  2  0
 17 19  1  0
 19 20  1  0
 19 21  1  0
 21 22  2  0
 22 23  1  0
 23 24  1  0
 24 25  1  0
 24 26  1  0
 24 27  1  0
 27 28  1  0
 27 29  1  0
 29 30  1  0
 29 31  1  0
 29 32  1  0
 32 33  1  0
 32 34  1  0
 23 35  2  0
 35 36  1  0
 36 37  3  0
 35 38  1  0
 38 39  1  0
 39 40  1  0
 39 41  1  0
 38 42  2  0
 42 43  1  0
 13 44  2  0
 44 45  1  0
 45 46  1  0
 46 47  1  0
 46 48  1  0
 46 49  1  0
 44  2  1  0
 42 21  1  0
 32 27  1  0
M  END
>  <score>  (146) 
7.0266

$$$$

     RDKit          3D

 55 57  0  0  0  0  0  0  0  0999 V2000
    6.3067  141.5252   50.4739 H   0  0  0  0  0  0  0  0  0  0  0  0
    5.6607  142.2204   50.2658 O   0  0  0  0  0  0  0  0  0  0  0  0
    4.6751  142.0989   51.1996 C   0  0  0  0  0  0  0  0  0  0  0  0
    4.6769  141.2313   52.0590 O   0  0  0  0  0  0  0  0  0  0  0  0
    3.5143  142.9925   51.1142 C   0  0  0  0  0  0  0  0  0  0  0  0
    2.5345  143.1854   52.0504 C   0  0  0  0  0  0  0  0  0  0  0  0
    2.5049  142.6357   53.4712 C   0  0  0  0  0  0  0  0  0  0  0  0
    1.4712  142.4036   53.7445 H   0  0  0  0  0  0  0  0  0  0  0  0
    3.0684  141.6976   53.4890 H   0  0  0  0  0  0  0  0  0  0  0  0
    3.0871  143.5756   54.5267 C   0  0  0  0  0  0  0  0  0  0  0  0
    3.3477  144.8486   54.2033 N   0  0  0  0  0  0  0  0  0  0  0  0
    3.8354  145.6632   55.1183 C   0  0  0  0  0  0  0  0  0  0  0  0
    4.0523  146.8865   54.6067 N   0  0  0  0  0  0  0  0  0  0  0  0
    3.7198  146.9661   53.6570 H   0  0  0  0  0  0  0  0  0  0  0  0
    3.9857  148.0475   55.3372 C   0  0  0  0  0  0  0  0  0  0  0  0
    4.1968  148.0674   56.5347 O   0  0  0  0  0  0  0  0  0  0  0  0
    3.4805  149.2722   54.5777 C   0  0  0  0  0  0  0  0  0  0  0  0
    4.2200  149.3117   53.7798 H   0  0  0  0  0  0  0  0  0  0  0  0
    2.6495  148.5656   54.6210 H   0  0  0  0  0  0  0  0  0  0  0  0
    2.2868  149.9097   53.9030 C   0  0  0  0  0  0  0  0  0  0  0  0
    1.5123  150.8723   54.5504 C   0  0  0  0  0  0  0  0  0  0  0  0
    1.8283  151.2918   55.5001 H   0  0  0  0  0  0  0  0  0  0  0  0
    0.2797  151.2499   54.0067 C   0  0  0  0  0  0  0  0  0  0  0  0
   -0.4974  152.1301   54.6986 O   0  0  0  0  0  0  0  0  0  0  0  0
   -1.4461  151.4366   55.5093 C   0  0  0  0  0  0  0  0  0  0  0  0
   -2.1711  150.9131   54.8773 H   0  0  0  0  0  0  0  0  0  0  0  0
   -0.9368  150.7010   56.1402 H   0  0  0  0  0  0  0  0  0  0  0  0
   -1.9790  152.1446   56.1523 H   0  0  0  0  0  0  0  0  0  0  0  0
   -0.1926  150.6451   52.8300 C   0  0  0  0  0  0  0  0  0  0  0  0
   -1.9641  150.9735   52.1894 Br  0  0  0  0  0  0  0  0  0  0  0  0
    0.6270  149.7566   52.1339 C   0  0  0  0  0  0  0  0  0  0  0  0
    0.2858  149.2983   51.2141 H   0  0  0  0  0  0  0  0  0  0  0  0
    1.8765  149.3989   52.6464 C   0  0  0  0  0  0  0  0  0  0  0  0
    2.7084  148.4965   52.0231 O   0  0  0  0  0  0  0  0  0  0  0  0
    2.0832  147.4237   51.3147 C   0  0  0  0  0  0  0  0  0  0  0  0
    1.5390  147.8026   50.4480 H   0  0  0  0  0  0  0  0  0  0  0  0
    1.3884  146.8886   51.9652 H   0  0  0  0  0  0  0  0  0  0  0  0
    2.8427  146.7144   50.9729 H   0  0  0  0  0  0  0  0  0  0  0  0
    4.0290  145.3152   56.4167 C   0  0  0  0  0  0  0  0  0  0  0  0
    4.3883  146.0255   57.1421 H   0  0  0  0  0  0  0  0  0  0  0  0
    3.7460  144.0352   56.7563 C   0  0  0  0  0  0  0  0  0  0  0  0
    3.9312  143.7236   58.0506 N   0  0  0  0  0  0  0  0  0  0  0  0
    4.4408  144.4214   58.5847 H   0  0  0  0  0  0  0  0  0  0  0  0
    4.0940  142.7439   58.2630 H   0  0  0  0  0  0  0  0  0  0  0  0
    3.3174  143.1200   55.8218 C   0  0  0  0  0  0  0  0  0  0  0  0
    3.1367  141.7471   56.1623 C   0  0  0  0  0  0  0  0  0  0  0  0
    3.0169  140.6191   56.4162 N   0  0  0  0  0  0  0  0  0  0  0  0
    1.4715  143.8892   51.3520 C   0  0  0  0  0  0  0  0  0  0  0  0
    0.0894  144.0052   51.8977 C   0  0  0  0  0  0  0  0  0  0  0  0
   -0.4137  143.0385   51.8008 H   0  0  0  0  0  0  0  0  0  0  0  0
    0.1380  144.2687   52.9598 H   0  0  0  0  0  0  0  0  0  0  0  0
   -0.4838  144.7565   51.3421 H   0  0  0  0  0  0  0  0  0  0  0  0
    1.8417  144.2172   50.1379 N   0  0  0  0  0  0  0  0  0  0  0  0
    3.1123  143.7418   50.0066 N   0  0  0  0  0  0  0  0  0  0  0  0
    3.6558  143.8452   49.1465 H   0  0  0  0  0  0  0  0  0  0  0  0
  1  2  1  0
  2  3  1  0
  3  4  2  0
  3  5  1  0
  5  6  2  0
  6  7  1  0
  7  8  1  0
  7  9  1  0
  7 10  1  0
 10 11  2  0
 11 12  1  0
 12 13  1  0
 13 14  1  0
 13 15  1  0
 15 16  2  0
 15 17  1  0
 17 18  1  0
 17 19  1  0
 17 20  1  0
 20 21  2  0
 21 22  1  0
 21 23  1  0
 23 24  1  0
 24 25  1  0
 25 26  1  0
 25 27  1  0
 25 28  1  0
 23 29  2  0
 29 30  1  0
 29 31  1  0
 31 32  1  0
 31 33  2  0
 33 34  1  0
 34 35  1  0
 35 36  1  0
 35 37  1  0
 35 38  1  0
 12 39  2  0
 39 40  1  0
 39 41  1  0
 41 42  1  0
 42 43  1  0
 42 44  1  0
 41 45  2  0
 45 46  1  0
 46 47  3  0
  6 48  1  0
 48 49  1  0
 49 50  1  0
 49 51  1  0
 49 52  1  0
 48 53  2  0
 53 54  1  0
 54 55  1  0
 54  5  1  0
 45 10  1  0
 33 20  1  0
M  END
>  <score>  (147) 
7.02686

$$$$

     RDKit          3D

 47 49  0  0  0  0  0  0  0  0999 V2000
    2.0855  139.7043   52.6653 H   0  0  0  0  0  0  0  0  0  0  0  0
    2.1069  140.7648   52.4837 C   0  0  0  0  0  0  0  0  0  0  0  0
    2.6236  141.5171   53.4478 N   0  0  0  0  0  0  0  0  0  0  0  0
    2.3726  142.8455   53.4541 C   0  0  0  0  0  0  0  0  0  0  0  0
    2.9125  143.7172   54.6067 C   0  0  0  0  0  0  0  0  0  0  0  0
    3.0802  145.0360   54.3726 N   0  0  0  0  0  0  0  0  0  0  0  0
    3.5726  145.8403   55.2812 C   0  0  0  0  0  0  0  0  0  0  0  0
    3.7386  147.0184   54.6716 N   0  0  0  0  0  0  0  0  0  0  0  0
    3.5211  146.9651   53.6894 H   0  0  0  0  0  0  0  0  0  0  0  0
    3.7612  148.2355   55.2793 C   0  0  0  0  0  0  0  0  0  0  0  0
    3.8534  148.3018   56.4957 O   0  0  0  0  0  0  0  0  0  0  0  0
    3.7289  149.4838   54.4016 C   0  0  0  0  0  0  0  0  0  0  0  0
    3.9980  150.3586   54.9695 H   0  0  0  0  0  0  0  0  0  0  0  0
    4.4180  149.3677   53.5648 H   0  0  0  0  0  0  0  0  0  0  0  0
    2.3811  149.7918   53.8582 C   0  0  0  0  0  0  0  0  0  0  0  0
    1.5944  150.6946   54.5750 C   0  0  0  0  0  0  0  0  0  0  0  0
    1.9880  151.1462   55.4759 H   0  0  0  0  0  0  0  0  0  0  0  0
    0.3300  151.0578   54.1306 C   0  0  0  0  0  0  0  0  0  0  0  0
   -0.3810  151.9765   54.8589 O   0  0  0  0  0  0  0  0  0  0  0  0
   -1.4272  151.4047   55.6473 C   0  0  0  0  0  0  0  0  0  0  0  0
   -1.0141  150.7027   56.3718 H   0  0  0  0  0  0  0  0  0  0  0  0
   -1.9434  152.2003   56.1914 H   0  0  0  0  0  0  0  0  0  0  0  0
   -2.1519  150.8764   55.0213 H   0  0  0  0  0  0  0  0  0  0  0  0
   -0.1456  150.4987   52.9306 C   0  0  0  0  0  0  0  0  0  0  0  0
   -1.8755  150.9840   52.2739 Br  0  0  0  0  0  0  0  0  0  0  0  0
    0.6567  149.6025   52.1938 C   0  0  0  0  0  0  0  0  0  0  0  0
    0.3036  149.1996   51.2496 H   0  0  0  0  0  0  0  0  0  0  0  0
    1.9324  149.2394   52.6516 C   0  0  0  0  0  0  0  0  0  0  0  0
    2.7747  148.4034   51.9511 O   0  0  0  0  0  0  0  0  0  0  0  0
    2.1644  147.2965   51.2819 C   0  0  0  0  0  0  0  0  0  0  0  0
    1.4739  146.7695   51.9500 H   0  0  0  0  0  0  0  0  0  0  0  0
    2.9474  146.5960   50.9717 H   0  0  0  0  0  0  0  0  0  0  0  0
    1.6222  147.6361   50.3945 H   0  0  0  0  0  0  0  0  0  0  0  0
    3.9146  145.4496   56.5382 C   0  0  0  0  0  0  0  0  0  0  0  0
    4.3307  146.1303   57.2680 H   0  0  0  0  0  0  0  0  0  0  0  0
    3.7599  144.1218   56.8167 C   0  0  0  0  0  0  0  0  0  0  0  0
    4.1523  143.7216   58.0421 N   0  0  0  0  0  0  0  0  0  0  0  0
    4.5041  144.4221   58.6881 H   0  0  0  0  0  0  0  0  0  0  0  0
    4.0695  142.7452   58.3116 H   0  0  0  0  0  0  0  0  0  0  0  0
    3.2715  143.2210   55.8800 C   0  0  0  0  0  0  0  0  0  0  0  0
    3.1480  141.8342   56.2162 C   0  0  0  0  0  0  0  0  0  0  0  0
    3.0450  140.7038   56.4753 N   0  0  0  0  0  0  0  0  0  0  0  0
    1.6273  143.4015   52.4622 N   0  0  0  0  0  0  0  0  0  0  0  0
    1.1737  142.6588   51.4568 C   0  0  0  0  0  0  0  0  0  0  0  0
    0.5871  143.1107   50.6645 H   0  0  0  0  0  0  0  0  0  0  0  0
    1.3841  141.3043   51.4481 C   0  0  0  0  0  0  0  0  0  0  0  0
    0.9471  140.6920   50.6781 H   0  0  0  0  0  0  0  0  0  0  0  0
  1  2  1  0
  2  3  2  0
  3  4  1  0
  4  5  1  0
  5  6  2  0
  6  7  1  0
  7  8  1  0
  8  9  1  0
  8 10  1  0
 10 11  2  0
 10 12  1  0
 12 13  1  0
 12 14  1  0
 12 15  1  0
 15 16  2  0
 16 17  1  0
 16 18  1  0
 18 19  1  0
 19 20  1  0
 20 21  1  0
 20 22  1  0
 20 23  1  0
 18 24  2  0
 24 25  1  0
 24 26  1  0
 26 27  1  0
 26 28  2  0
 28 29  1  0
 29 30  1  0
 30 31  1  0
 30 32  1  0
 30 33  1  0
  7 34  2  0
 34 35  1  0
 34 36  1  0
 36 37  1  0
 37 38  1  0
 37 39  1  0
 36 40  2  0
 40 41  1  0
 41 42  3  0
  4 43  2  0
 43 44  1  0
 44 45  1  0
 44 46  2  0
 46 47  1  0
 46  2  1  0
 40  5  1  0
 28 15  1  0
M  END
>  <score>  (148) 
7.02704

$$$$

     RDKit          3D

 46 48  0  0  0  0  0  0  0  0999 V2000
    2.0721  140.2246   51.5984 H   0  0  0  0  0  0  0  0  0  0  0  0
    2.0104  141.1613   52.1280 C   0  0  0  0  0  0  0  0  0  0  0  0
    1.1829  142.1963   51.7869 O   0  0  0  0  0  0  0  0  0  0  0  0
    1.4447  143.2185   52.6653 C   0  0  0  0  0  0  0  0  0  0  0  0
    0.9504  144.1859   52.6216 H   0  0  0  0  0  0  0  0  0  0  0  0
    2.3822  142.8348   53.5887 C   0  0  0  0  0  0  0  0  0  0  0  0
    2.8900  143.6996   54.6505 C   0  0  0  0  0  0  0  0  0  0  0  0
    3.0023  144.9906   54.3447 N   0  0  0  0  0  0  0  0  0  0  0  0
    3.5207  145.8059   55.2381 C   0  0  0  0  0  0  0  0  0  0  0  0
    3.7125  146.9964   54.6472 N   0  0  0  0  0  0  0  0  0  0  0  0
    3.5157  146.9567   53.6618 H   0  0  0  0  0  0  0  0  0  0  0  0
    3.7525  148.2113   55.2676 C   0  0  0  0  0  0  0  0  0  0  0  0
    3.8491  148.2684   56.4834 O   0  0  0  0  0  0  0  0  0  0  0  0
    3.7263  149.4752   54.3991 C   0  0  0  0  0  0  0  0  0  0  0  0
    3.9949  150.3509   54.9748 H   0  0  0  0  0  0  0  0  0  0  0  0
    4.4150  149.3600   53.5595 H   0  0  0  0  0  0  0  0  0  0  0  0
    2.3799  149.7864   53.8582 C   0  0  0  0  0  0  0  0  0  0  0  0
    1.5960  150.6910   54.5733 C   0  0  0  0  0  0  0  0  0  0  0  0
    1.9893  151.1460   55.4730 H   0  0  0  0  0  0  0  0  0  0  0  0
    0.3334  151.0582   54.1315 C   0  0  0  0  0  0  0  0  0  0  0  0
   -0.3795  151.9760   54.8600 O   0  0  0  0  0  0  0  0  0  0  0  0
   -1.4266  151.4042   55.6476 C   0  0  0  0  0  0  0  0  0  0  0  0
   -1.9422  152.2011   56.1914 H   0  0  0  0  0  0  0  0  0  0  0  0
   -2.1525  150.8755   55.0221 H   0  0  0  0  0  0  0  0  0  0  0  0
   -1.0142  150.7029   56.3738 H   0  0  0  0  0  0  0  0  0  0  0  0
   -0.1446  150.4994   52.9342 C   0  0  0  0  0  0  0  0  0  0  0  0
   -1.8711  150.9841   52.2762 Br  0  0  0  0  0  0  0  0  0  0  0  0
    0.6588  149.6052   52.1952 C   0  0  0  0  0  0  0  0  0  0  0  0
    0.3067  149.2010   51.2518 H   0  0  0  0  0  0  0  0  0  0  0  0
    1.9340  149.2389   52.6499 C   0  0  0  0  0  0  0  0  0  0  0  0
    2.7753  148.4023   51.9508 O   0  0  0  0  0  0  0  0  0  0  0  0
    2.1646  147.2969   51.2816 C   0  0  0  0  0  0  0  0  0  0  0  0
    1.6247  147.6373   50.3935 H   0  0  0  0  0  0  0  0  0  0  0  0
    2.9486  146.5967   50.9743 H   0  0  0  0  0  0  0  0  0  0  0  0
    1.4721  146.7715   51.9485 H   0  0  0  0  0  0  0  0  0  0  0  0
    3.8942  145.4358   56.5028 C   0  0  0  0  0  0  0  0  0  0  0  0
    4.3198  146.1253   57.2218 H   0  0  0  0  0  0  0  0  0  0  0  0
    3.7540  144.1124   56.7997 C   0  0  0  0  0  0  0  0  0  0  0  0
    4.1531  143.7207   58.0226 N   0  0  0  0  0  0  0  0  0  0  0  0
    4.0622  142.7450   58.2959 H   0  0  0  0  0  0  0  0  0  0  0  0
    4.4982  144.4255   58.6697 H   0  0  0  0  0  0  0  0  0  0  0  0
    3.2704  143.2090   55.8873 C   0  0  0  0  0  0  0  0  0  0  0  0
    3.1485  141.8277   56.2082 C   0  0  0  0  0  0  0  0  0  0  0  0
    3.0388  140.6930   56.4389 N   0  0  0  0  0  0  0  0  0  0  0  0
    2.7483  141.4745   53.2334 C   0  0  0  0  0  0  0  0  0  0  0  0
    3.4751  140.8208   53.7067 H   0  0  0  0  0  0  0  0  0  0  0  0
  1  2  1  0
  2  3  1  0
  3  4  1  0
  4  5  1  0
  4  6  2  0
  6  7  1  0
  7  8  2  0
  8  9  1  0
  9 10  1  0
 10 11  1  0
 10 12  1  0
 12 13  2  0
 12 14  1  0
 14 15  1  0
 14 16  1  0
 14 17  1  0
 17 18  2  0
 18 19  1  0
 18 20  1  0
 20 21  1  0
 21 22  1  0
 22 23  1  0
 22 24  1  0
 22 25  1  0
 20 26  2  0
 26 27  1  0
 26 28  1  0
 28 29  1  0
 28 30  2  0
 30 31  1  0
 31 32  1  0
 32 33  1  0
 32 34  1  0
 32 35  1  0
  9 36  2  0
 36 37  1  0
 36 38  1  0
 38 39  1  0
 39 40  1  0
 39 41  1  0
 38 42  2  0
 42 43  1  0
 43 44  3  0
  6 45  1  0
 45 46  1  0
 45  2  2  0
 42  7  1  0
 30 17  1  0
M  END
>  <score>  (149) 
7.02752

$$$$

     RDKit          3D

 46 48  0  0  0  0  0  0  0  0999 V2000
    1.5046  140.4898   51.8960 H   0  0  0  0  0  0  0  0  0  0  0  0
    1.9207  141.4542   52.1455 C   0  0  0  0  0  0  0  0  0  0  0  0
    2.4261  141.7213   53.3244 N   0  0  0  0  0  0  0  0  0  0  0  0
    2.7988  143.0446   53.3078 N   0  0  0  0  0  0  0  0  0  0  0  0
    3.2227  143.8262   54.4069 C   0  0  0  0  0  0  0  0  0  0  0  0
    3.4033  145.1271   54.1526 N   0  0  0  0  0  0  0  0  0  0  0  0
    3.7477  145.9153   55.1229 C   0  0  0  0  0  0  0  0  0  0  0  0
    3.8076  147.1255   54.5798 N   0  0  0  0  0  0  0  0  0  0  0  0
    3.5095  147.1493   53.6188 H   0  0  0  0  0  0  0  0  0  0  0  0
    3.7360  148.2747   55.2793 C   0  0  0  0  0  0  0  0  0  0  0  0
    3.8003  148.2831   56.4942 O   0  0  0  0  0  0  0  0  0  0  0  0
    3.6789  149.5467   54.4586 C   0  0  0  0  0  0  0  0  0  0  0  0
    4.4388  149.5134   53.6708 H   0  0  0  0  0  0  0  0  0  0  0  0
    3.8776  150.3790   55.1232 H   0  0  0  0  0  0  0  0  0  0  0  0
    2.3280  149.8037   53.8623 C   0  0  0  0  0  0  0  0  0  0  0  0
    1.5057  150.6883   54.5584 C   0  0  0  0  0  0  0  0  0  0  0  0
    1.8483  151.1278   55.4883 H   0  0  0  0  0  0  0  0  0  0  0  0
    0.2601  151.0549   54.0708 C   0  0  0  0  0  0  0  0  0  0  0  0
   -0.4501  151.9973   54.7579 O   0  0  0  0  0  0  0  0  0  0  0  0
   -1.4558  151.4034   55.5689 C   0  0  0  0  0  0  0  0  0  0  0  0
   -2.1953  150.8927   54.9450 H   0  0  0  0  0  0  0  0  0  0  0  0
   -1.9523  152.1808   56.1526 H   0  0  0  0  0  0  0  0  0  0  0  0
   -1.0093  150.6800   56.2551 H   0  0  0  0  0  0  0  0  0  0  0  0
   -0.2105  150.4719   52.8854 C   0  0  0  0  0  0  0  0  0  0  0  0
   -1.9444  150.9306   52.2125 Br  0  0  0  0  0  0  0  0  0  0  0  0
    0.6024  149.5604   52.1886 C   0  0  0  0  0  0  0  0  0  0  0  0
    0.2470  149.1340   51.2578 H   0  0  0  0  0  0  0  0  0  0  0  0
    1.8878  149.2258   52.6587 C   0  0  0  0  0  0  0  0  0  0  0  0
    2.7339  148.3808   51.9810 O   0  0  0  0  0  0  0  0  0  0  0  0
    2.1071  147.3134   51.2667 C   0  0  0  0  0  0  0  0  0  0  0  0
    1.4125  146.7714   51.9193 H   0  0  0  0  0  0  0  0  0  0  0  0
    2.8793  146.6183   50.9229 H   0  0  0  0  0  0  0  0  0  0  0  0
    1.5632  147.6966   50.3974 H   0  0  0  0  0  0  0  0  0  0  0  0
    3.9424  145.5414   56.4246 C   0  0  0  0  0  0  0  0  0  0  0  0
    4.2114  146.2269   57.2122 H   0  0  0  0  0  0  0  0  0  0  0  0
    3.7513  144.2176   56.6883 C   0  0  0  0  0  0  0  0  0  0  0  0
    3.9016  143.8159   57.9689 N   0  0  0  0  0  0  0  0  0  0  0  0
    4.0639  142.8234   58.1078 H   0  0  0  0  0  0  0  0  0  0  0  0
    4.4209  144.4506   58.5607 H   0  0  0  0  0  0  0  0  0  0  0  0
    3.4044  143.3296   55.6988 C   0  0  0  0  0  0  0  0  0  0  0  0
    3.2054  141.9466   55.9948 C   0  0  0  0  0  0  0  0  0  0  0  0
    3.0444  140.8186   56.2190 N   0  0  0  0  0  0  0  0  0  0  0  0
    2.5677  143.5835   52.0466 C   0  0  0  0  0  0  0  0  0  0  0  0
    2.7925  144.6026   51.7479 H   0  0  0  0  0  0  0  0  0  0  0  0
    1.9766  142.6224   51.3032 C   0  0  0  0  0  0  0  0  0  0  0  0
    1.6134  142.7207   50.2895 H   0  0  0  0  0  0  0  0  0  0  0  0
  1  2  1  0
  2  3  2  0
  3  4  1  0
  4  5  1  0
  5  6  2  0
  6  7  1  0
  7  8  1  0
  8  9  1  0
  8 10  1  0
 10 11  2  0
 10 12  1  0
 12 13  1  0
 12 14  1  0
 12 15  1  0
 15 16  2  0
 16 17  1  0
 16 18  1  0
 18 19  1  0
 19 20  1  0
 20 21  1  0
 20 22  1  0
 20 23  1  0
 18 24  2  0
 24 25  1  0
 24 26  1  0
 26 27  1  0
 26 28  2  0
 28 29  1  0
 29 30  1  0
 30 31  1  0
 30 32  1  0
 30 33  1  0
  7 34  2  0
 34 35  1  0
 34 36  1  0
 36 37  1  0
 37 38  1  0
 37 39  1  0
 36 40  2  0
 40 41  1  0
 41 42  3  0
  4 43  1  0
 43 44  1  0
 43 45  2  0
 45 46  1  0
 45  2  1  0
 40  5  1  0
 28 15  1  0
M  END
>  <score>  (150) 
7.0285

$$$$

     RDKit          3D

 51 53  0  0  0  0  0  0  0  0999 V2000
    0.2927  149.1851   51.2390 H   0  0  0  0  0  0  0  0  0  0  0  0
    0.6329  149.5848   52.1872 C   0  0  0  0  0  0  0  0  0  0  0  0
   -0.1687  150.4842   52.9138 C   0  0  0  0  0  0  0  0  0  0  0  0
   -1.9020  150.9809   52.2681 Br  0  0  0  0  0  0  0  0  0  0  0  0
    0.3179  151.0412   54.1129 C   0  0  0  0  0  0  0  0  0  0  0  0
   -0.3817  151.9748   54.8262 O   0  0  0  0  0  0  0  0  0  0  0  0
   -1.4218  151.4056   55.6220 C   0  0  0  0  0  0  0  0  0  0  0  0
   -1.9379  152.1962   56.1752 H   0  0  0  0  0  0  0  0  0  0  0  0
   -2.1475  150.8828   54.9940 H   0  0  0  0  0  0  0  0  0  0  0  0
   -1.0090  150.6933   56.3381 H   0  0  0  0  0  0  0  0  0  0  0  0
    1.5758  150.6813   54.5795 C   0  0  0  0  0  0  0  0  0  0  0  0
    1.9625  151.1322   55.4919 H   0  0  0  0  0  0  0  0  0  0  0  0
    2.3535  149.7728   53.8676 C   0  0  0  0  0  0  0  0  0  0  0  0
    3.7064  149.4610   54.4133 C   0  0  0  0  0  0  0  0  0  0  0  0
    3.9809  150.2896   55.0470 H   0  0  0  0  0  0  0  0  0  0  0  0
    4.4211  149.3923   53.5945 H   0  0  0  0  0  0  0  0  0  0  0  0
    3.7460  148.1881   55.2432 C   0  0  0  0  0  0  0  0  0  0  0  0
    3.8242  148.2451   56.4546 O   0  0  0  0  0  0  0  0  0  0  0  0
    3.7014  146.9843   54.6076 N   0  0  0  0  0  0  0  0  0  0  0  0
    3.4597  146.9642   53.6290 H   0  0  0  0  0  0  0  0  0  0  0  0
    3.5513  145.8009   55.2199 C   0  0  0  0  0  0  0  0  0  0  0  0
    3.0234  144.9774   54.3543 N   0  0  0  0  0  0  0  0  0  0  0  0
    2.8702  143.7027   54.6953 C   0  0  0  0  0  0  0  0  0  0  0  0
    2.3307  142.8507   53.6593 C   0  0  0  0  0  0  0  0  0  0  0  0
    3.0445  141.7070   53.2419 C   0  0  0  0  0  0  0  0  0  0  0  0
    3.9382  141.3598   53.7648 H   0  0  0  0  0  0  0  0  0  0  0  0
    2.6254  141.0325   52.0903 C   0  0  0  0  0  0  0  0  0  0  0  0
    3.1961  140.2142   51.6673 H   0  0  0  0  0  0  0  0  0  0  0  0
    1.4704  141.4416   51.4416 C   0  0  0  0  0  0  0  0  0  0  0  0
    1.0762  140.8482   50.2755 N   0  0  0  0  0  0  0  0  0  0  0  0
    0.0845  140.9084   50.0774 H   0  0  0  0  0  0  0  0  0  0  0  0
    1.5677  139.9936   50.0071 H   0  0  0  0  0  0  0  0  0  0  0  0
    0.6965  142.4763   51.9341 C   0  0  0  0  0  0  0  0  0  0  0  0
   -0.2222  142.7203   51.4222 H   0  0  0  0  0  0  0  0  0  0  0  0
    1.1372  143.2292   53.0167 C   0  0  0  0  0  0  0  0  0  0  0  0
    0.5561  144.0968   53.3433 H   0  0  0  0  0  0  0  0  0  0  0  0
    3.2762  143.2124   55.9182 C   0  0  0  0  0  0  0  0  0  0  0  0
    3.1669  141.8257   56.2246 C   0  0  0  0  0  0  0  0  0  0  0  0
    3.0668  140.6861   56.4464 N   0  0  0  0  0  0  0  0  0  0  0  0
    3.7742  144.1293   56.8088 C   0  0  0  0  0  0  0  0  0  0  0  0
    4.1622  143.7453   58.0356 N   0  0  0  0  0  0  0  0  0  0  0  0
    4.0745  142.7698   58.3019 H   0  0  0  0  0  0  0  0  0  0  0  0
    4.4934  144.4438   58.6939 H   0  0  0  0  0  0  0  0  0  0  0  0
    3.9069  145.4481   56.4920 C   0  0  0  0  0  0  0  0  0  0  0  0
    4.3066  146.1449   57.2111 H   0  0  0  0  0  0  0  0  0  0  0  0
    1.9059  149.2253   52.6564 C   0  0  0  0  0  0  0  0  0  0  0  0
    2.7640  148.4069   51.9596 O   0  0  0  0  0  0  0  0  0  0  0  0
    2.1546  147.3067   51.2788 C   0  0  0  0  0  0  0  0  0  0  0  0
    1.6076  147.6489   50.3957 H   0  0  0  0  0  0  0  0  0  0  0  0
    2.9262  146.5998   50.9582 H   0  0  0  0  0  0  0  0  0  0  0  0
    1.4647  146.7810   51.9465 H   0  0  0  0  0  0  0  0  0  0  0  0
  1  2  1  0
  2  3  2  0
  3  4  1  0
  3  5  1  0
  5  6  1  0
  6  7  1  0
  7  8  1  0
  7  9  1  0
  7 10  1  0
  5 11  2  0
 11 12  1  0
 11 13  1  0
 13 14  1  0
 14 15  1  0
 14 16  1  0
 14 17  1  0
 17 18  2  0
 17 19  1  0
 19 20  1  0
 19 21  1  0
 21 22  2  0
 22 23  1  0
 23 24  1  0
 24 25  2  0
 25 26  1  0
 25 27  1  0
 27 28  1  0
 27 29  2  0
 29 30  1  0
 30 31  1  0
 30 32  1  0
 29 33  1  0
 33 34  1  0
 33 35  2  0
 35 36  1  0
 23 37  2  0
 37 38  1  0
 38 39  3  0
 37 40  1  0
 40 41  1  0
 41 42  1  0
 41 43  1  0
 40 44  2  0
 44 45  1  0
 13 46  2  0
 46 47  1  0
 47 48  1  0
 48 49  1  0
 48 50  1  0
 48 51  1  0
 46  2  1  0
 44 21  1  0
 35 24  1  0
M  END
>  <score>  (151) 
7.03284

$$$$

     RDKit          3D

 49 51  0  0  0  0  0  0  0  0999 V2000
   -0.0845  141.3052   51.8096 H   0  0  0  0  0  0  0  0  0  0  0  0
    0.7787  141.9065   52.0657 C   0  0  0  0  0  0  0  0  0  0  0  0
    1.0615  142.4216   53.3229 N   0  0  0  0  0  0  0  0  0  0  0  0
    2.1884  143.0949   53.2253 C   0  0  0  0  0  0  0  0  0  0  0  0
    2.8371  143.8793   54.3272 C   0  0  0  0  0  0  0  0  0  0  0  0
    3.1603  145.1477   54.0231 N   0  0  0  0  0  0  0  0  0  0  0  0
    3.6736  145.9199   54.9423 C   0  0  0  0  0  0  0  0  0  0  0  0
    3.8665  147.1571   54.4553 N   0  0  0  0  0  0  0  0  0  0  0  0
    3.6507  147.2671   53.4762 H   0  0  0  0  0  0  0  0  0  0  0  0
    3.7430  148.2539   55.2417 C   0  0  0  0  0  0  0  0  0  0  0  0
    3.7586  148.1469   56.4561 O   0  0  0  0  0  0  0  0  0  0  0  0
    3.6274  149.6075   54.5679 C   0  0  0  0  0  0  0  0  0  0  0  0
    3.7702  150.3888   55.3174 H   0  0  0  0  0  0  0  0  0  0  0  0
    4.4386  149.6885   53.8450 H   0  0  0  0  0  0  0  0  0  0  0  0
    2.2839  149.8297   53.8978 C   0  0  0  0  0  0  0  0  0  0  0  0
    1.4240  150.7210   54.5430 C   0  0  0  0  0  0  0  0  0  0  0  0
    1.7138  151.1557   55.4938 H   0  0  0  0  0  0  0  0  0  0  0  0
    0.1955  151.0743   53.9915 C   0  0  0  0  0  0  0  0  0  0  0  0
   -0.5690  152.0043   54.6368 O   0  0  0  0  0  0  0  0  0  0  0  0
   -1.5361  151.3959   55.4928 C   0  0  0  0  0  0  0  0  0  0  0  0
   -1.0584  150.6479   56.1299 H   0  0  0  0  0  0  0  0  0  0  0  0
   -2.3120  150.9073   54.8982 H   0  0  0  0  0  0  0  0  0  0  0  0
   -2.0093  152.1469   56.1326 H   0  0  0  0  0  0  0  0  0  0  0  0
   -0.2442  150.4509   52.8179 C   0  0  0  0  0  0  0  0  0  0  0  0
   -1.9825  150.8234   52.1012 Br  0  0  0  0  0  0  0  0  0  0  0  0
    0.5835  149.5208   52.1838 C   0  0  0  0  0  0  0  0  0  0  0  0
    0.2127  149.0336   51.2892 H   0  0  0  0  0  0  0  0  0  0  0  0
    1.8634  149.2124   52.6912 C   0  0  0  0  0  0  0  0  0  0  0  0
    2.6894  148.3195   52.0439 O   0  0  0  0  0  0  0  0  0  0  0  0
    2.0362  147.3160   51.2423 C   0  0  0  0  0  0  0  0  0  0  0  0
    1.4559  147.7584   50.4266 H   0  0  0  0  0  0  0  0  0  0  0  0
    2.7786  146.6426   50.8048 H   0  0  0  0  0  0  0  0  0  0  0  0
    1.3584  146.7167   51.8561 H   0  0  0  0  0  0  0  0  0  0  0  0
    3.9098  145.5193   56.2222 C   0  0  0  0  0  0  0  0  0  0  0  0
    4.3714  146.1959   56.9154 H   0  0  0  0  0  0  0  0  0  0  0  0
    3.6102  144.2370   56.5541 C   0  0  0  0  0  0  0  0  0  0  0  0
    3.8383  143.8778   57.8381 N   0  0  0  0  0  0  0  0  0  0  0  0
    3.9949  142.8944   58.0072 H   0  0  0  0  0  0  0  0  0  0  0  0
    4.3497  144.5546   58.3993 H   0  0  0  0  0  0  0  0  0  0  0  0
    3.1038  143.3600   55.6127 C   0  0  0  0  0  0  0  0  0  0  0  0
    2.9574  141.9718   55.9213 C   0  0  0  0  0  0  0  0  0  0  0  0
    2.9287  140.8354   56.1731 N   0  0  0  0  0  0  0  0  0  0  0  0
    2.6255  143.0442   51.8994 N   0  0  0  0  0  0  0  0  0  0  0  0
    3.8221  143.6583   51.3477 C   0  0  0  0  0  0  0  0  0  0  0  0
    4.6667  143.0999   51.7210 H   0  0  0  0  0  0  0  0  0  0  0  0
    3.8969  144.7128   51.6376 H   0  0  0  0  0  0  0  0  0  0  0  0
    3.8169  143.5754   50.2593 H   0  0  0  0  0  0  0  0  0  0  0  0
    1.7517  142.2639   51.1879 C   0  0  0  0  0  0  0  0  0  0  0  0
    1.8327  141.9891   50.1419 H   0  0  0  0  0  0  0  0  0  0  0  0
  1  2  1  0
  2  3  1  0
  3  4  2  0
  4  5  1  0
  5  6  2  0
  6  7  1  0
  7  8  1  0
  8  9  1  0
  8 10  1  0
 10 11  2  0
 10 12  1  0
 12 13  1  0
 12 14  1  0
 12 15  1  0
 15 16  2  0
 16 17  1  0
 16 18  1  0
 18 19  1  0
 19 20  1  0
 20 21  1  0
 20 22  1  0
 20 23  1  0
 18 24  2  0
 24 25  1  0
 24 26  1  0
 26 27  1  0
 26 28  2  0
 28 29  1  0
 29 30  1  0
 30 31  1  0
 30 32  1  0
 30 33  1  0
  7 34  2  0
 34 35  1  0
 34 36  1  0
 36 37  1  0
 37 38  1  0
 37 39  1  0
 36 40  2  0
 40 41  1  0
 41 42  3  0
  4 43  1  0
 43 44  1  0
 44 45  1  0
 44 46  1  0
 44 47  1  0
 43 48  1  0
 48 49  1  0
 48  2  2  0
 40  5  1  0
 28 15  1  0
M  END
>  <score>  (152) 
7.03458

$$$$

     RDKit          3D

 49 50  0  0  0  0  0  0  0  0999 V2000
    0.3225  149.1410   51.1891 H   0  0  0  0  0  0  0  0  0  0  0  0
    0.6394  149.5963   52.1142 C   0  0  0  0  0  0  0  0  0  0  0  0
   -0.2085  150.4730   52.8052 C   0  0  0  0  0  0  0  0  0  0  0  0
   -1.9356  150.8945   52.0907 Br  0  0  0  0  0  0  0  0  0  0  0  0
    0.2263  151.0456   54.0132 C   0  0  0  0  0  0  0  0  0  0  0  0
   -0.5481  151.9621   54.6676 O   0  0  0  0  0  0  0  0  0  0  0  0
   -1.4693  151.3909   55.5959 C   0  0  0  0  0  0  0  0  0  0  0  0
   -2.2260  150.8066   55.0686 H   0  0  0  0  0  0  0  0  0  0  0  0
   -0.9512  150.7302   56.2919 H   0  0  0  0  0  0  0  0  0  0  0  0
   -1.9611  152.1933   56.1578 H   0  0  0  0  0  0  0  0  0  0  0  0
    1.4859  150.7034   54.5229 C   0  0  0  0  0  0  0  0  0  0  0  0
    1.8445  151.1503   55.4559 H   0  0  0  0  0  0  0  0  0  0  0  0
    2.3046  149.7922   53.8422 C   0  0  0  0  0  0  0  0  0  0  0  0
    3.6587  149.4748   54.4038 C   0  0  0  0  0  0  0  0  0  0  0  0
    4.3733  149.3831   53.5829 H   0  0  0  0  0  0  0  0  0  0  0  0
    3.9475  150.3152   55.0195 H   0  0  0  0  0  0  0  0  0  0  0  0
    3.7011  148.1948   55.2373 C   0  0  0  0  0  0  0  0  0  0  0  0
    3.8267  148.2433   56.4475 O   0  0  0  0  0  0  0  0  0  0  0  0
    3.6731  146.9909   54.5969 N   0  0  0  0  0  0  0  0  0  0  0  0
    3.4982  146.9839   53.6066 H   0  0  0  0  0  0  0  0  0  0  0  0
    3.5382  145.7742   55.1669 C   0  0  0  0  0  0  0  0  0  0  0  0
    3.0547  144.9363   54.2738 N   0  0  0  0  0  0  0  0  0  0  0  0
    2.9059  143.6587   54.6262 C   0  0  0  0  0  0  0  0  0  0  0  0
    2.3799  142.7450   53.7441 O   0  0  0  0  0  0  0  0  0  0  0  0
    2.0026  143.1716   52.4225 C   0  0  0  0  0  0  0  0  0  0  0  0
    1.4382  144.1112   52.4614 H   0  0  0  0  0  0  0  0  0  0  0  0
    3.2281  143.3478   51.5307 C   0  0  0  0  0  0  0  0  0  0  0  0
    3.8697  144.1450   51.9118 H   0  0  0  0  0  0  0  0  0  0  0  0
    2.9168  143.6049   50.5124 H   0  0  0  0  0  0  0  0  0  0  0  0
    3.8044  142.4181   51.4876 H   0  0  0  0  0  0  0  0  0  0  0  0
    1.1223  142.0867   51.7950 C   0  0  0  0  0  0  0  0  0  0  0  0
    0.2156  141.9440   52.3795 H   0  0  0  0  0  0  0  0  0  0  0  0
    0.8268  142.3673   50.7792 H   0  0  0  0  0  0  0  0  0  0  0  0
    1.6584  141.1333   51.7490 H   0  0  0  0  0  0  0  0  0  0  0  0
    3.2576  143.2038   55.8813 C   0  0  0  0  0  0  0  0  0  0  0  0
    3.1337  141.8266   56.2078 C   0  0  0  0  0  0  0  0  0  0  0  0
    3.0435  140.6899   56.4471 N   0  0  0  0  0  0  0  0  0  0  0  0
    3.7458  144.1110   56.7777 C   0  0  0  0  0  0  0  0  0  0  0  0
    4.1313  143.7340   58.0119 N   0  0  0  0  0  0  0  0  0  0  0  0
    4.4879  144.4402   58.6504 H   0  0  0  0  0  0  0  0  0  0  0  0
    4.0628  142.7570   58.2855 H   0  0  0  0  0  0  0  0  0  0  0  0
    3.8833  145.4225   56.4461 C   0  0  0  0  0  0  0  0  0  0  0  0
    4.2859  146.1279   57.1584 H   0  0  0  0  0  0  0  0  0  0  0  0
    1.8961  149.2403   52.6194 C   0  0  0  0  0  0  0  0  0  0  0  0
    2.7596  148.3959   51.9584 O   0  0  0  0  0  0  0  0  0  0  0  0
    2.1595  147.2877   51.2726 C   0  0  0  0  0  0  0  0  0  0  0  0
    1.4681  146.7526   51.9345 H   0  0  0  0  0  0  0  0  0  0  0  0
    2.9376  146.5860   50.9552 H   0  0  0  0  0  0  0  0  0  0  0  0
    1.6204  147.6232   50.3807 H   0  0  0  0  0  0  0  0  0  0  0  0
  1  2  1  0
  2  3  2  0
  3  4  1  0
  3  5  1  0
  5  6  1  0
  6  7  1  0
  7  8  1  0
  7  9  1  0
  7 10  1  0
  5 11  2  0
 11 12  1  0
 11 13  1  0
 13 14  1  0
 14 15  1  0
 14 16  1  0
 14 17  1  0
 17 18  2  0
 17 19  1  0
 19 20  1  0
 19 21  1  0
 21 22  2  0
 22 23  1  0
 23 24  1  0
 24 25  1  0
 25 26  1  0
 25 27  1  0
 27 28  1  0
 27 29  1  0
 27 30  1  0
 25 31  1  0
 31 32  1  0
 31 33  1  0
 31 34  1  0
 23 35  2  0
 35 36  1  0
 36 37  3  0
 35 38  1  0
 38 39  1  0
 39 40  1  0
 39 41  1  0
 38 42  2  0
 42 43  1  0
 13 44  2  0
 44 45  1  0
 45 46  1  0
 46 47  1  0
 46 48  1  0
 46 49  1  0
 44  2  1  0
 42 21  1  0
M  END
>  <score>  (153) 
7.03618

$$$$

     RDKit          3D

 52 54  0  0  0  0  0  0  0  0999 V2000
    1.1406  142.2502   54.0830 H   0  0  0  0  0  0  0  0  0  0  0  0
    1.6140  142.3165   53.1226 C   0  0  0  0  0  0  0  0  0  0  0  0
    2.8415  142.9359   53.0508 C   0  0  0  0  0  0  0  0  0  0  0  0
    3.3154  143.7242   54.2109 C   0  0  0  0  0  0  0  0  0  0  0  0
    3.5220  145.0110   53.9289 N   0  0  0  0  0  0  0  0  0  0  0  0
    3.7701  145.8383   54.9116 C   0  0  0  0  0  0  0  0  0  0  0  0
    3.7944  147.1004   54.4559 N   0  0  0  0  0  0  0  0  0  0  0  0
    3.5936  147.2012   53.4761 H   0  0  0  0  0  0  0  0  0  0  0  0
    3.7035  148.2054   55.2421 C   0  0  0  0  0  0  0  0  0  0  0  0
    3.7946  148.1162   56.4541 O   0  0  0  0  0  0  0  0  0  0  0  0
    3.6269  149.5542   54.5494 C   0  0  0  0  0  0  0  0  0  0  0  0
    3.7989  150.3446   55.2819 H   0  0  0  0  0  0  0  0  0  0  0  0
    4.4290  149.5890   53.8113 H   0  0  0  0  0  0  0  0  0  0  0  0
    2.2926  149.8201   53.8881 C   0  0  0  0  0  0  0  0  0  0  0  0
    1.4473  150.7204   54.5445 C   0  0  0  0  0  0  0  0  0  0  0  0
    1.7524  151.1525   55.4918 H   0  0  0  0  0  0  0  0  0  0  0  0
    0.2116  151.0798   54.0129 C   0  0  0  0  0  0  0  0  0  0  0  0
   -0.5449  152.0082   54.6743 O   0  0  0  0  0  0  0  0  0  0  0  0
   -1.5223  151.4002   55.5189 C   0  0  0  0  0  0  0  0  0  0  0  0
   -1.0503  150.6605   56.1703 H   0  0  0  0  0  0  0  0  0  0  0  0
   -2.0042  152.1579   56.1438 H   0  0  0  0  0  0  0  0  0  0  0  0
   -2.2889  150.9033   54.9174 H   0  0  0  0  0  0  0  0  0  0  0  0
   -0.2311  150.4688   52.8324 C   0  0  0  0  0  0  0  0  0  0  0  0
   -1.9677  150.8524   52.1243 Br  0  0  0  0  0  0  0  0  0  0  0  0
    0.5920  149.5427   52.1801 C   0  0  0  0  0  0  0  0  0  0  0  0
    0.2221  149.0715   51.2772 H   0  0  0  0  0  0  0  0  0  0  0  0
    1.8694  149.2198   52.6783 C   0  0  0  0  0  0  0  0  0  0  0  0
    2.6971  148.3293   52.0296 O   0  0  0  0  0  0  0  0  0  0  0  0
    2.0535  147.3092   51.2450 C   0  0  0  0  0  0  0  0  0  0  0  0
    2.8056  146.6104   50.8650 H   0  0  0  0  0  0  0  0  0  0  0  0
    1.5165  147.7343   50.3909 H   0  0  0  0  0  0  0  0  0  0  0  0
    1.3425  146.7432   51.8552 H   0  0  0  0  0  0  0  0  0  0  0  0
    3.8927  145.4654   56.2177 C   0  0  0  0  0  0  0  0  0  0  0  0
    4.1411  146.1791   56.9882 H   0  0  0  0  0  0  0  0  0  0  0  0
    3.6866  144.1546   56.5029 C   0  0  0  0  0  0  0  0  0  0  0  0
    3.8208  143.7912   57.7907 N   0  0  0  0  0  0  0  0  0  0  0  0
    4.0103  142.8109   57.9590 H   0  0  0  0  0  0  0  0  0  0  0  0
    4.2681  144.4819   58.3894 H   0  0  0  0  0  0  0  0  0  0  0  0
    3.3717  143.2414   55.5203 C   0  0  0  0  0  0  0  0  0  0  0  0
    3.1422  141.8653   55.8286 C   0  0  0  0  0  0  0  0  0  0  0  0
    2.9799  140.7434   56.0819 N   0  0  0  0  0  0  0  0  0  0  0  0
    3.5275  143.0393   51.6936 C   0  0  0  0  0  0  0  0  0  0  0  0
    4.4508  142.4639   51.7512 H   0  0  0  0  0  0  0  0  0  0  0  0
    3.7691  144.0887   51.4965 H   0  0  0  0  0  0  0  0  0  0  0  0
    2.7292  142.4916   50.4930 C   0  0  0  0  0  0  0  0  0  0  0  0
    3.4183  142.1596   49.7083 H   0  0  0  0  0  0  0  0  0  0  0  0
    2.1074  143.2805   50.0649 H   0  0  0  0  0  0  0  0  0  0  0  0
    1.8598  141.3819   50.9148 N   0  0  0  0  0  0  0  0  0  0  0  0
    1.4290  140.9198   50.1208 H   0  0  0  0  0  0  0  0  0  0  0  0
    0.8761  141.7826   51.9291 C   0  0  0  0  0  0  0  0  0  0  0  0
    0.2437  142.5910   51.5472 H   0  0  0  0  0  0  0  0  0  0  0  0
    0.2278  140.9437   52.2132 H   0  0  0  0  0  0  0  0  0  0  0  0
  1  2  1  0
  2  3  2  0
  3  4  1  0
  4  5  2  0
  5  6  1  0
  6  7  1  0
  7  8  1  0
  7  9  1  0
  9 10  2  0
  9 11  1  0
 11 12  1  0
 11 13  1  0
 11 14  1  0
 14 15  2  0
 15 16  1  0
 15 17  1  0
 17 18  1  0
 18 19  1  0
 19 20  1  0
 19 21  1  0
 19 22  1  0
 17 23  2  0
 23 24  1  0
 23 25  1  0
 25 26  1  0
 25 27  2  0
 27 28  1  0
 28 29  1  0
 29 30  1  0
 29 31  1  0
 29 32  1  0
  6 33  2  0
 33 34  1  0
 33 35  1  0
 35 36  1  0
 36 37  1  0
 36 38  1  0
 35 39  2  0
 39 40  1  0
 40 41  3  0
  3 42  1  0
 42 43  1  0
 42 44  1  0
 42 45  1  0
 45 46  1  0
 45 47  1  0
 45 48  1  0
 48 49  1  0
 48 50  1  0
 50 51  1  0
 50 52  1  0
 50  2  1  0
 39  4  1  0
 27 14  1  0
M  END
>  <score>  (154) 
7.03712

$$$$

     RDKit          3D

 45 47  0  0  0  0  0  0  0  0999 V2000
    1.6493  140.1750   52.0064 H   0  0  0  0  0  0  0  0  0  0  0  0
    1.9107  141.1887   52.2863 C   0  0  0  0  0  0  0  0  0  0  0  0
    1.6068  142.2370   51.5597 N   0  0  0  0  0  0  0  0  0  0  0  0
    2.0509  143.3063   52.3139 C   0  0  0  0  0  0  0  0  0  0  0  0
    1.8949  144.3553   52.0804 H   0  0  0  0  0  0  0  0  0  0  0  0
    2.6071  142.8589   53.4688 C   0  0  0  0  0  0  0  0  0  0  0  0
    3.0410  143.7326   54.5600 C   0  0  0  0  0  0  0  0  0  0  0  0
    3.1571  145.0275   54.2703 N   0  0  0  0  0  0  0  0  0  0  0  0
    3.5822  145.8385   55.2017 C   0  0  0  0  0  0  0  0  0  0  0  0
    3.7281  147.0161   54.5976 N   0  0  0  0  0  0  0  0  0  0  0  0
    3.4446  146.9861   53.6292 H   0  0  0  0  0  0  0  0  0  0  0  0
    3.7553  148.2047   55.2369 C   0  0  0  0  0  0  0  0  0  0  0  0
    3.8140  148.2511   56.4524 O   0  0  0  0  0  0  0  0  0  0  0  0
    3.6973  149.4732   54.4213 C   0  0  0  0  0  0  0  0  0  0  0  0
    3.9581  150.2880   55.0722 H   0  0  0  0  0  0  0  0  0  0  0  0
    4.4200  149.4279   53.6108 H   0  0  0  0  0  0  0  0  0  0  0  0
    2.3414  149.7711   53.8732 C   0  0  0  0  0  0  0  0  0  0  0  0
    1.5590  150.6813   54.5774 C   0  0  0  0  0  0  0  0  0  0  0  0
    1.9387  151.1365   55.4926 H   0  0  0  0  0  0  0  0  0  0  0  0
    0.3045  151.0372   54.0993 C   0  0  0  0  0  0  0  0  0  0  0  0
   -0.3885  151.9760   54.8068 O   0  0  0  0  0  0  0  0  0  0  0  0
   -1.4221  151.4056   55.6070 C   0  0  0  0  0  0  0  0  0  0  0  0
   -1.9357  152.1944   56.1653 H   0  0  0  0  0  0  0  0  0  0  0  0
   -2.1481  150.8864   54.9771 H   0  0  0  0  0  0  0  0  0  0  0  0
   -1.0071  150.6884   56.3178 H   0  0  0  0  0  0  0  0  0  0  0  0
   -0.1858  150.4756   52.9051 C   0  0  0  0  0  0  0  0  0  0  0  0
   -1.9194  150.9768   52.2617 Br  0  0  0  0  0  0  0  0  0  0  0  0
    0.6180  149.5737   52.1828 C   0  0  0  0  0  0  0  0  0  0  0  0
    0.2832  149.1707   51.2314 H   0  0  0  0  0  0  0  0  0  0  0  0
    1.8929  149.2221   52.6621 C   0  0  0  0  0  0  0  0  0  0  0  0
    2.7554  148.4059   51.9707 O   0  0  0  0  0  0  0  0  0  0  0  0
    2.1454  147.3146   51.2781 C   0  0  0  0  0  0  0  0  0  0  0  0
    2.9116  146.6034   50.9553 H   0  0  0  0  0  0  0  0  0  0  0  0
    1.6032  147.6641   50.3956 H   0  0  0  0  0  0  0  0  0  0  0  0
    1.4501  146.7913   51.9402 H   0  0  0  0  0  0  0  0  0  0  0  0
    3.8899  145.4742   56.4831 C   0  0  0  0  0  0  0  0  0  0  0  0
    4.2867  146.1529   57.2174 H   0  0  0  0  0  0  0  0  0  0  0  0
    3.7456  144.1579   56.7816 C   0  0  0  0  0  0  0  0  0  0  0  0
    4.1027  143.7736   58.0214 N   0  0  0  0  0  0  0  0  0  0  0  0
    4.0673  142.7871   58.2566 H   0  0  0  0  0  0  0  0  0  0  0  0
    4.4822  144.4619   58.6684 H   0  0  0  0  0  0  0  0  0  0  0  0
    3.3089  143.2516   55.8408 C   0  0  0  0  0  0  0  0  0  0  0  0
    3.1693  141.8679   56.1644 C   0  0  0  0  0  0  0  0  0  0  0  0
    3.0649  140.7394   56.4300 N   0  0  0  0  0  0  0  0  0  0  0  0
    2.5620  141.4986   53.4515 O   0  0  0  0  0  0  0  0  0  0  0  0
  1  2  1  0
  2  3  2  0
  3  4  1  0
  4  5  1  0
  4  6  2  0
  6  7  1  0
  7  8  2  0
  8  9  1  0
  9 10  1  0
 10 11  1  0
 10 12  1  0
 12 13  2  0
 12 14  1  0
 14 15  1  0
 14 16  1  0
 14 17  1  0
 17 18  2  0
 18 19  1  0
 18 20  1  0
 20 21  1  0
 21 22  1  0
 22 23  1  0
 22 24  1  0
 22 25  1  0
 20 26  2  0
 26 27  1  0
 26 28  1  0
 28 29  1  0
 28 30  2  0
 30 31  1  0
 31 32  1  0
 32 33  1  0
 32 34  1  0
 32 35  1  0
  9 36  2  0
 36 37  1  0
 36 38  1  0
 38 39  1  0
 39 40  1  0
 39 41  1  0
 38 42  2  0
 42 43  1  0
 43 44  3  0
  6 45  1  0
 45  2  1  0
 42  7  1  0
 30 17  1  0
M  END
>  <score>  (155) 
7.03713

$$$$

     RDKit          3D

 46 48  0  0  0  0  0  0  0  0999 V2000
    0.2385  149.1251   51.2539 H   0  0  0  0  0  0  0  0  0  0  0  0
    0.5961  149.5514   52.1862 C   0  0  0  0  0  0  0  0  0  0  0  0
   -0.2165  150.4658   52.8782 C   0  0  0  0  0  0  0  0  0  0  0  0
   -1.9542  150.9232   52.2080 Br  0  0  0  0  0  0  0  0  0  0  0  0
    0.2571  151.0504   54.0629 C   0  0  0  0  0  0  0  0  0  0  0  0
   -0.4512  151.9977   54.7453 O   0  0  0  0  0  0  0  0  0  0  0  0
   -1.4559  151.4031   55.5557 C   0  0  0  0  0  0  0  0  0  0  0  0
   -1.9509  152.1772   56.1444 H   0  0  0  0  0  0  0  0  0  0  0  0
   -1.0081  150.6756   56.2362 H   0  0  0  0  0  0  0  0  0  0  0  0
   -2.1959  150.8966   54.9298 H   0  0  0  0  0  0  0  0  0  0  0  0
    1.5005  150.6791   54.5578 C   0  0  0  0  0  0  0  0  0  0  0  0
    1.8369  151.1157   55.4896 H   0  0  0  0  0  0  0  0  0  0  0  0
    2.3246  149.7916   53.8690 C   0  0  0  0  0  0  0  0  0  0  0  0
    3.6720  149.5126   54.4757 C   0  0  0  0  0  0  0  0  0  0  0  0
    3.8829  150.3105   55.1750 H   0  0  0  0  0  0  0  0  0  0  0  0
    4.4389  149.5016   53.6946 H   0  0  0  0  0  0  0  0  0  0  0  0
    3.7120  148.2177   55.2611 C   0  0  0  0  0  0  0  0  0  0  0  0
    3.8007  148.2254   56.4753 O   0  0  0  0  0  0  0  0  0  0  0  0
    3.7220  147.0577   54.5689 N   0  0  0  0  0  0  0  0  0  0  0  0
    3.4295  147.0768   53.6066 H   0  0  0  0  0  0  0  0  0  0  0  0
    3.6770  145.8461   55.1322 C   0  0  0  0  0  0  0  0  0  0  0  0
    3.3020  145.0104   54.1974 N   0  0  0  0  0  0  0  0  0  0  0  0
    3.1472  143.7152   54.4968 C   0  0  0  0  0  0  0  0  0  0  0  0
    2.6406  142.8360   53.4057 C   0  0  0  0  0  0  0  0  0  0  0  0
    2.6454  141.5129   53.4057 N   0  0  0  0  0  0  0  0  0  0  0  0
    2.0664  141.1486   52.2266 N   0  0  0  0  0  0  0  0  0  0  0  0
    1.9429  140.1730   51.9632 H   0  0  0  0  0  0  0  0  0  0  0  0
    1.6728  142.2229   51.4582 C   0  0  0  0  0  0  0  0  0  0  0  0
    1.1788  142.2008   50.4896 H   0  0  0  0  0  0  0  0  0  0  0  0
    2.0321  143.3196   52.1685 C   0  0  0  0  0  0  0  0  0  0  0  0
    1.8880  144.3580   51.8892 H   0  0  0  0  0  0  0  0  0  0  0  0
    3.4052  143.2667   55.8004 C   0  0  0  0  0  0  0  0  0  0  0  0
    3.2367  141.8936   56.1432 C   0  0  0  0  0  0  0  0  0  0  0  0
    3.1002  140.7704   56.4026 N   0  0  0  0  0  0  0  0  0  0  0  0
    3.7728  144.1862   56.7598 C   0  0  0  0  0  0  0  0  0  0  0  0
    3.9707  143.8191   58.0555 N   0  0  0  0  0  0  0  0  0  0  0  0
    4.4517  144.4911   58.6403 H   0  0  0  0  0  0  0  0  0  0  0  0
    4.1182  142.8331   58.2590 H   0  0  0  0  0  0  0  0  0  0  0  0
    3.9216  145.5028   56.4359 C   0  0  0  0  0  0  0  0  0  0  0  0
    4.2089  146.2186   57.1924 H   0  0  0  0  0  0  0  0  0  0  0  0
    1.8809  149.2182   52.6632 C   0  0  0  0  0  0  0  0  0  0  0  0
    2.7273  148.3771   51.9826 O   0  0  0  0  0  0  0  0  0  0  0  0
    2.0988  147.3146   51.2630 C   0  0  0  0  0  0  0  0  0  0  0  0
    2.8682  146.6159   50.9188 H   0  0  0  0  0  0  0  0  0  0  0  0
    1.4003  146.7759   51.9142 H   0  0  0  0  0  0  0  0  0  0  0  0
    1.5596  147.7060   50.3945 H   0  0  0  0  0  0  0  0  0  0  0  0
  1  2  1  0
  2  3  2  0
  3  4  1  0
  3  5  1  0
  5  6  1  0
  6  7  1  0
  7  8  1  0
  7  9  1  0
  7 10  1  0
  5 11  2  0
 11 12  1  0
 11 13  1  0
 13 14  1  0
 14 15  1  0
 14 16  1  0
 14 17  1  0
 17 18  2  0
 17 19  1  0
 19 20  1  0
 19 21  1  0
 21 22  2  0
 22 23  1  0
 23 24  1  0
 24 25  2  0
 25 26  1  0
 26 27  1  0
 26 28  1  0
 28 29  1  0
 28 30  2  0
 30 31  1  0
 23 32  2  0
 32 33  1  0
 33 34  3  0
 32 35  1  0
 35 36  1  0
 36 37  1  0
 36 38  1  0
 35 39  2  0
 39 40  1  0
 13 41  2  0
 41 42  1  0
 42 43  1  0
 43 44  1  0
 43 45  1  0
 43 46  1  0
 41  2  1  0
 39 21  1  0
 30 24  1  0
M  END
>  <score>  (156) 
7.03824

$$$$

     RDKit          3D

 53 55  0  0  0  0  0  0  0  0999 V2000
    2.0610  143.6536   51.7806 H   0  0  0  0  0  0  0  0  0  0  0  0
    1.5279  143.1977   52.4595 O   0  0  0  0  0  0  0  0  0  0  0  0
    2.3742  142.6294   53.4974 C   0  0  2  0  0  0  0  0  0  0  0  0
    1.7213  142.0364   54.1334 H   0  0  0  0  0  0  0  0  0  0  0  0
    3.0557  143.5849   54.4929 C   0  0  0  0  0  0  0  0  0  0  0  0
    3.2577  144.8610   54.1324 N   0  0  0  0  0  0  0  0  0  0  0  0
    3.6653  145.7266   55.0260 C   0  0  0  0  0  0  0  0  0  0  0  0
    3.6980  146.9599   54.4809 N   0  0  0  0  0  0  0  0  0  0  0  0
    3.4189  147.0000   53.5110 H   0  0  0  0  0  0  0  0  0  0  0  0
    3.6823  148.1051   55.2170 C   0  0  0  0  0  0  0  0  0  0  0  0
    3.8019  148.0530   56.4293 O   0  0  0  0  0  0  0  0  0  0  0  0
    3.6357  149.4545   54.5182 C   0  0  0  0  0  0  0  0  0  0  0  0
    4.4199  149.4847   53.7649 H   0  0  0  0  0  0  0  0  0  0  0  0
    3.8534  150.2287   55.2503 H   0  0  0  0  0  0  0  0  0  0  0  0
    2.3049  149.7714   53.8887 C   0  0  0  0  0  0  0  0  0  0  0  0
    1.4898  150.6844   54.5598 C   0  0  0  0  0  0  0  0  0  0  0  0
    1.8170  151.1145   55.5020 H   0  0  0  0  0  0  0  0  0  0  0  0
    0.2558  151.0590   54.0390 C   0  0  0  0  0  0  0  0  0  0  0  0
   -0.4782  151.9926   54.7135 O   0  0  0  0  0  0  0  0  0  0  0  0
   -1.4807  151.4005   55.5372 C   0  0  0  0  0  0  0  0  0  0  0  0
   -1.0302  150.6625   56.2049 H   0  0  0  0  0  0  0  0  0  0  0  0
   -1.9727  152.1697   56.1412 H   0  0  0  0  0  0  0  0  0  0  0  0
   -2.2328  150.9035   54.9194 H   0  0  0  0  0  0  0  0  0  0  0  0
   -0.2120  150.4628   52.8582 C   0  0  0  0  0  0  0  0  0  0  0  0
   -1.9511  150.8911   52.1741 Br  0  0  0  0  0  0  0  0  0  0  0  0
    0.6006  149.5442   52.1788 C   0  0  0  0  0  0  0  0  0  0  0  0
    0.2337  149.0942   51.2617 H   0  0  0  0  0  0  0  0  0  0  0  0
    1.8765  149.2056   52.6698 C   0  0  0  0  0  0  0  0  0  0  0  0
    2.7159  148.3423   52.0044 O   0  0  0  0  0  0  0  0  0  0  0  0
    2.0734  147.3087   51.2484 C   0  0  0  0  0  0  0  0  0  0  0  0
    1.5332  147.7196   50.3912 H   0  0  0  0  0  0  0  0  0  0  0  0
    2.8257  146.6056   50.8820 H   0  0  0  0  0  0  0  0  0  0  0  0
    1.3672  146.7586   51.8763 H   0  0  0  0  0  0  0  0  0  0  0  0
    3.9183  145.4077   56.3318 C   0  0  0  0  0  0  0  0  0  0  0  0
    4.2109  146.1588   57.0444 H   0  0  0  0  0  0  0  0  0  0  0  0
    3.7664  144.1077   56.7064 C   0  0  0  0  0  0  0  0  0  0  0  0
    3.9724  143.8255   58.0143 N   0  0  0  0  0  0  0  0  0  0  0  0
    4.1378  142.8494   58.2496 H   0  0  0  0  0  0  0  0  0  0  0  0
    4.4277  144.5479   58.5702 H   0  0  0  0  0  0  0  0  0  0  0  0
    3.3606  143.1549   55.7946 C   0  0  0  0  0  0  0  0  0  0  0  0
    3.2087  141.7882   56.1793 C   0  0  0  0  0  0  0  0  0  0  0  0
    3.0948  140.6626   56.4597 N   0  0  0  0  0  0  0  0  0  0  0  0
    3.3868  141.7276   52.8407 C   0  0  0  0  0  0  0  0  0  0  0  0
    3.4835  140.3874   53.2332 C   0  0  0  0  0  0  0  0  0  0  0  0
    2.7990  140.0136   53.9864 H   0  0  0  0  0  0  0  0  0  0  0  0
    4.4688  139.5614   52.6918 C   0  0  0  0  0  0  0  0  0  0  0  0
    4.5724  138.5306   53.0100 H   0  0  0  0  0  0  0  0  0  0  0  0
    5.3349  140.0572   51.7169 C   0  0  0  0  0  0  0  0  0  0  0  0
    6.1206  139.4358   51.3066 H   0  0  0  0  0  0  0  0  0  0  0  0
    5.2198  141.3775   51.2764 C   0  0  0  0  0  0  0  0  0  0  0  0
    5.8974  141.7310   50.4982 H   0  0  0  0  0  0  0  0  0  0  0  0
    4.2620  142.2202   51.8584 C   0  0  0  0  0  0  0  0  0  0  0  0
    4.1907  143.2657   51.5614 H   0  0  0  0  0  0  0  0  0  0  0  0
  1  2  1  0
  2  3  1  0
  3  4  1  1
  3  5  1  0
  5  6  2  0
  6  7  1  0
  7  8  1  0
  8  9  1  0
  8 10  1  0
 10 11  2  0
 10 12  1  0
 12 13  1  0
 12 14  1  0
 12 15  1  0
 15 16  2  0
 16 17  1  0
 16 18  1  0
 18 19  1  0
 19 20  1  0
 20 21  1  0
 20 22  1  0
 20 23  1  0
 18 24  2  0
 24 25  1  0
 24 26  1  0
 26 27  1  0
 26 28  2  0
 28 29  1  0
 29 30  1  0
 30 31  1  0
 30 32  1  0
 30 33  1  0
  7 34  2  0
 34 35  1  0
 34 36  1  0
 36 37  1  0
 37 38  1  0
 37 39  1  0
 36 40  2  0
 40 41  1  0
 41 42  3  0
  3 43  1  0
 43 44  2  0
 44 45  1  0
 44 46  1  0
 46 47  1  0
 46 48  2  0
 48 49  1  0
 48 50  1  0
 50 51  1  0
 50 52  2  0
 52 53  1  0
 40  5  1  0
 52 43  1  0
 28 15  1  0
M  END
>  <score>  (157) 
7.03861

$$$$

     RDKit          3D

 53 55  0  0  0  0  0  0  0  0999 V2000
    5.8676  142.5251   49.8001 H   0  0  0  0  0  0  0  0  0  0  0  0
    4.9344  142.5889   50.3428 C   0  0  0  0  0  0  0  0  0  0  0  0
    4.2052  141.4241   50.5751 C   0  0  0  0  0  0  0  0  0  0  0  0
    4.5715  140.4856   50.1836 H   0  0  0  0  0  0  0  0  0  0  0  0
    3.0499  141.4771   51.3558 C   0  0  0  0  0  0  0  0  0  0  0  0
    2.5049  140.5681   51.5883 H   0  0  0  0  0  0  0  0  0  0  0  0
    2.6277  142.7048   51.8854 C   0  0  0  0  0  0  0  0  0  0  0  0
    1.4684  142.7990   52.8161 C   0  0  0  0  0  0  0  0  0  0  0  0
    0.9960  143.7880   52.7792 H   0  0  0  0  0  0  0  0  0  0  0  0
    0.7338  142.0576   52.5001 H   0  0  0  0  0  0  0  0  0  0  0  0
    1.9253  142.5124   54.1384 O   0  0  0  0  0  0  0  0  0  0  0  0
    2.6732  143.4736   54.7631 C   0  0  0  0  0  0  0  0  0  0  0  0
    2.7999  144.7084   54.2504 N   0  0  0  0  0  0  0  0  0  0  0  0
    3.4043  145.6180   54.9873 C   0  0  0  0  0  0  0  0  0  0  0  0
    3.4979  146.8413   54.4020 N   0  0  0  0  0  0  0  0  0  0  0  0
    3.2726  146.8802   53.4236 H   0  0  0  0  0  0  0  0  0  0  0  0
    3.6072  148.0037   55.1292 C   0  0  0  0  0  0  0  0  0  0  0  0
    3.7432  147.9382   56.3358 O   0  0  0  0  0  0  0  0  0  0  0  0
    3.6279  149.3928   54.4912 C   0  0  0  0  0  0  0  0  0  0  0  0
    3.8470  150.1271   55.2683 H   0  0  0  0  0  0  0  0  0  0  0  0
    4.4243  149.4497   53.7487 H   0  0  0  0  0  0  0  0  0  0  0  0
    2.3077  149.7621   53.8732 C   0  0  0  0  0  0  0  0  0  0  0  0
    1.4976  150.6854   54.5478 C   0  0  0  0  0  0  0  0  0  0  0  0
    1.8256  151.1234   55.4866 H   0  0  0  0  0  0  0  0  0  0  0  0
    0.2544  151.0566   54.0327 C   0  0  0  0  0  0  0  0  0  0  0  0
   -0.4939  151.9840   54.7062 O   0  0  0  0  0  0  0  0  0  0  0  0
   -1.5037  151.3948   55.5322 C   0  0  0  0  0  0  0  0  0  0  0  0
   -1.9854  152.1651   56.1417 H   0  0  0  0  0  0  0  0  0  0  0  0
   -2.2704  150.9063   54.9238 H   0  0  0  0  0  0  0  0  0  0  0  0
   -1.0644  150.6529   56.2029 H   0  0  0  0  0  0  0  0  0  0  0  0
   -0.1989  150.4653   52.8432 C   0  0  0  0  0  0  0  0  0  0  0  0
   -1.9322  150.8801   52.1463 Br  0  0  0  0  0  0  0  0  0  0  0  0
    0.6092  149.5391   52.1710 C   0  0  0  0  0  0  0  0  0  0  0  0
    0.2502  149.0812   51.2578 H   0  0  0  0  0  0  0  0  0  0  0  0
    1.8750  149.1867   52.6651 C   0  0  0  0  0  0  0  0  0  0  0  0
    2.6990  148.2961   52.0143 O   0  0  0  0  0  0  0  0  0  0  0  0
    2.0532  147.2843   51.2267 C   0  0  0  0  0  0  0  0  0  0  0  0
    2.8044  146.6058   50.8108 H   0  0  0  0  0  0  0  0  0  0  0  0
    1.3710  146.6979   51.8495 H   0  0  0  0  0  0  0  0  0  0  0  0
    1.4860  147.7186   50.3973 H   0  0  0  0  0  0  0  0  0  0  0  0
    3.8671  145.3628   56.2421 C   0  0  0  0  0  0  0  0  0  0  0  0
    4.3389  146.1204   56.8407 H   0  0  0  0  0  0  0  0  0  0  0  0
    3.7375  144.1101   56.7242 C   0  0  0  0  0  0  0  0  0  0  0  0
    4.1206  143.9076   57.9922 N   0  0  0  0  0  0  0  0  0  0  0  0
    4.1615  142.9605   58.3496 H   0  0  0  0  0  0  0  0  0  0  0  0
    4.4797  144.6968   58.5249 H   0  0  0  0  0  0  0  0  0  0  0  0
    3.2002  143.1128   55.9786 C   0  0  0  0  0  0  0  0  0  0  0  0
    3.1612  141.7582   56.4146 C   0  0  0  0  0  0  0  0  0  0  0  0
    3.1293  140.6267   56.6929 N   0  0  0  0  0  0  0  0  0  0  0  0
    3.3363  143.8704   51.6049 C   0  0  0  0  0  0  0  0  0  0  0  0
    3.0415  144.8265   52.0186 H   0  0  0  0  0  0  0  0  0  0  0  0
    4.4902  143.8152   50.8401 C   0  0  0  0  0  0  0  0  0  0  0  0
    5.0411  144.7343   50.6919 H   0  0  0  0  0  0  0  0  0  0  0  0
  1  2  1  0
  2  3  2  0
  3  4  1  0
  3  5  1  0
  5  6  1  0
  5  7  2  0
  7  8  1  0
  8  9  1  0
  8 10  1  0
  8 11  1  0
 11 12  1  0
 12 13  2  0
 13 14  1  0
 14 15  1  0
 15 16  1  0
 15 17  1  0
 17 18  2  0
 17 19  1  0
 19 20  1  0
 19 21  1  0
 19 22  1  0
 22 23  2  0
 23 24  1  0
 23 25  1  0
 25 26  1  0
 26 27  1  0
 27 28  1  0
 27 29  1  0
 27 30  1  0
 25 31  2  0
 31 32  1  0
 31 33  1  0
 33 34  1  0
 33 35  2  0
 35 36  1  0
 36 37  1  0
 37 38  1  0
 37 39  1  0
 37 40  1  0
 14 41  2  0
 41 42  1  0
 41 43  1  0
 43 44  1  0
 44 45  1  0
 44 46  1  0
 43 47  2  0
 47 48  1  0
 48 49  3  0
  7 50  1  0
 50 51  1  0
 50 52  2  0
 52 53  1  0
 52  2  1  0
 47 12  1  0
 35 22  1  0
M  END
>  <score>  (158) 
7.03998

$$$$

     RDKit          3D

 58 60  0  0  0  0  0  0  0  0999 V2000
    7.1251  138.9062   49.0337 H   0  0  0  0  0  0  0  0  0  0  0  0
    6.2731  139.3479   49.5432 C   0  0  0  0  0  0  0  0  0  0  0  0
    5.7342  140.5647   49.1110 C   0  0  0  0  0  0  0  0  0  0  0  0
    6.1734  141.0675   48.2559 H   0  0  0  0  0  0  0  0  0  0  0  0
    4.6585  141.1433   49.8005 C   0  0  0  0  0  0  0  0  0  0  0  0
    4.2482  142.0907   49.4634 H   0  0  0  0  0  0  0  0  0  0  0  0
    4.1304  140.5239   50.9446 C   0  0  0  0  0  0  0  0  0  0  0  0
    2.9705  141.1575   51.6860 C   0  0  0  0  0  0  0  0  0  0  0  0
    2.3362  140.3842   52.1325 H   0  0  0  0  0  0  0  0  0  0  0  0
    2.3469  141.7255   50.9845 H   0  0  0  0  0  0  0  0  0  0  0  0
    3.5094  142.0855   52.7803 C   0  0  0  0  0  0  0  0  0  0  0  0
    4.1455  142.8461   52.3088 H   0  0  0  0  0  0  0  0  0  0  0  0
    4.1238  141.4922   53.4685 H   0  0  0  0  0  0  0  0  0  0  0  0
    2.3878  142.7850   53.5725 C   0  0  0  0  0  0  0  0  0  0  0  0
    1.7496  142.0500   54.0596 H   0  0  0  0  0  0  0  0  0  0  0  0
    1.7708  143.3780   52.8890 H   0  0  0  0  0  0  0  0  0  0  0  0
    2.9256  143.6906   54.6458 C   0  0  0  0  0  0  0  0  0  0  0  0
    3.0614  144.9780   54.3319 N   0  0  0  0  0  0  0  0  0  0  0  0
    3.5439  145.8020   55.2367 C   0  0  0  0  0  0  0  0  0  0  0  0
    3.7118  147.0012   54.6508 N   0  0  0  0  0  0  0  0  0  0  0  0
    3.5270  146.9616   53.6628 H   0  0  0  0  0  0  0  0  0  0  0  0
    3.7516  148.2145   55.2699 C   0  0  0  0  0  0  0  0  0  0  0  0
    3.8521  148.2732   56.4848 O   0  0  0  0  0  0  0  0  0  0  0  0
    3.7292  149.4754   54.3971 C   0  0  0  0  0  0  0  0  0  0  0  0
    3.9988  150.3546   54.9700 H   0  0  0  0  0  0  0  0  0  0  0  0
    4.4181  149.3564   53.5581 H   0  0  0  0  0  0  0  0  0  0  0  0
    2.3826  149.7870   53.8566 C   0  0  0  0  0  0  0  0  0  0  0  0
    1.5987  150.6925   54.5724 C   0  0  0  0  0  0  0  0  0  0  0  0
    1.9910  151.1464   55.4734 H   0  0  0  0  0  0  0  0  0  0  0  0
    0.3345  151.0597   54.1325 C   0  0  0  0  0  0  0  0  0  0  0  0
   -0.3793  151.9765   54.8618 O   0  0  0  0  0  0  0  0  0  0  0  0
   -1.4273  151.4048   55.6497 C   0  0  0  0  0  0  0  0  0  0  0  0
   -2.1539  150.8749   55.0249 H   0  0  0  0  0  0  0  0  0  0  0  0
   -1.9444  152.2009   56.1944 H   0  0  0  0  0  0  0  0  0  0  0  0
   -1.0150  150.7038   56.3772 H   0  0  0  0  0  0  0  0  0  0  0  0
   -0.1432  150.5013   52.9351 C   0  0  0  0  0  0  0  0  0  0  0  0
   -1.8682  150.9835   52.2756 Br  0  0  0  0  0  0  0  0  0  0  0  0
    0.6598  149.6081   52.1960 C   0  0  0  0  0  0  0  0  0  0  0  0
    0.3075  149.2031   51.2546 H   0  0  0  0  0  0  0  0  0  0  0  0
    1.9357  149.2410   52.6481 C   0  0  0  0  0  0  0  0  0  0  0  0
    2.7762  148.4025   51.9505 O   0  0  0  0  0  0  0  0  0  0  0  0
    2.1662  147.2963   51.2817 C   0  0  0  0  0  0  0  0  0  0  0  0
    2.9503  146.5965   50.9727 H   0  0  0  0  0  0  0  0  0  0  0  0
    1.4752  146.7687   51.9489 H   0  0  0  0  0  0  0  0  0  0  0  0
    1.6241  147.6349   50.3939 H   0  0  0  0  0  0  0  0  0  0  0  0
    3.8933  145.4340   56.5087 C   0  0  0  0  0  0  0  0  0  0  0  0
    4.3146  146.1267   57.2215 H   0  0  0  0  0  0  0  0  0  0  0  0
    3.7480  144.1131   56.8148 C   0  0  0  0  0  0  0  0  0  0  0  0
    4.1502  143.7206   58.0353 N   0  0  0  0  0  0  0  0  0  0  0  0
    4.0636  142.7423   58.3027 H   0  0  0  0  0  0  0  0  0  0  0  0
    4.5030  144.4258   58.6765 H   0  0  0  0  0  0  0  0  0  0  0  0
    3.2647  143.2082   55.9040 C   0  0  0  0  0  0  0  0  0  0  0  0
    3.1393  141.8255   56.2266 C   0  0  0  0  0  0  0  0  0  0  0  0
    3.0369  140.6876   56.4489 N   0  0  0  0  0  0  0  0  0  0  0  0
    4.7234  139.3292   51.3951 C   0  0  0  0  0  0  0  0  0  0  0  0
    4.4066  138.8498   52.3125 H   0  0  0  0  0  0  0  0  0  0  0  0
    5.7676  138.7316   50.6869 C   0  0  0  0  0  0  0  0  0  0  0  0
    6.2033  137.8040   51.0496 H   0  0  0  0  0  0  0  0  0  0  0  0
  1  2  1  0
  2  3  2  0
  3  4  1  0
  3  5  1  0
  5  6  1  0
  5  7  2  0
  7  8  1  0
  8  9  1  0
  8 10  1  0
  8 11  1  0
 11 12  1  0
 11 13  1  0
 11 14  1  0
 14 15  1  0
 14 16  1  0
 14 17  1  0
 17 18  2  0
 18 19  1  0
 19 20  1  0
 20 21  1  0
 20 22  1  0
 22 23  2  0
 22 24  1  0
 24 25  1  0
 24 26  1  0
 24 27  1  0
 27 28  2  0
 28 29  1  0
 28 30  1  0
 30 31  1  0
 31 32  1  0
 32 33  1  0
 32 34  1  0
 32 35  1  0
 30 36  2  0
 36 37  1  0
 36 38  1  0
 38 39  1  0
 38 40  2  0
 40 41  1  0
 41 42  1  0
 42 43  1  0
 42 44  1  0
 42 45  1  0
 19 46  2  0
 46 47  1  0
 46 48  1  0
 48 49  1  0
 49 50  1  0
 49 51  1  0
 48 52  2  0
 52 53  1  0
 53 54  3  0
  7 55  1  0
 55 56  1  0
 55 57  2  0
 57 58  1  0
 57  2  1  0
 52 17  1  0
 40 27  1  0
M  END
>  <score>  (159) 
7.04038

$$$$

     RDKit          3D

 56 57  0  0  0  0  0  0  0  0999 V2000
    0.2314  149.1028   51.2549 H   0  0  0  0  0  0  0  0  0  0  0  0
    0.5930  149.5457   52.1762 C   0  0  0  0  0  0  0  0  0  0  0  0
   -0.2200  150.4620   52.8586 C   0  0  0  0  0  0  0  0  0  0  0  0
   -1.9611  150.9025   52.1889 Br  0  0  0  0  0  0  0  0  0  0  0  0
    0.2503  151.0528   54.0403 C   0  0  0  0  0  0  0  0  0  0  0  0
   -0.4678  151.9934   54.7179 O   0  0  0  0  0  0  0  0  0  0  0  0
   -1.4696  151.4007   55.5387 C   0  0  0  0  0  0  0  0  0  0  0  0
   -1.0206  150.6637   56.2086 H   0  0  0  0  0  0  0  0  0  0  0  0
   -2.2178  150.9007   54.9181 H   0  0  0  0  0  0  0  0  0  0  0  0
   -1.9629  152.1696   56.1401 H   0  0  0  0  0  0  0  0  0  0  0  0
    1.4868  150.6866   54.5534 C   0  0  0  0  0  0  0  0  0  0  0  0
    1.8190  151.1167   55.4933 H   0  0  0  0  0  0  0  0  0  0  0  0
    2.3053  149.7905   53.8739 C   0  0  0  0  0  0  0  0  0  0  0  0
    3.6413  149.5056   54.4998 C   0  0  0  0  0  0  0  0  0  0  0  0
    4.4241  149.5162   53.7456 H   0  0  0  0  0  0  0  0  0  0  0  0
    3.8518  150.2962   55.2128 H   0  0  0  0  0  0  0  0  0  0  0  0
    3.6880  148.1929   55.2548 C   0  0  0  0  0  0  0  0  0  0  0  0
    3.7935  148.1892   56.4665 O   0  0  0  0  0  0  0  0  0  0  0  0
    3.6723  147.0223   54.5698 N   0  0  0  0  0  0  0  0  0  0  0  0
    3.3582  147.0187   53.6126 H   0  0  0  0  0  0  0  0  0  0  0  0
    3.6189  145.8203   55.1649 C   0  0  0  0  0  0  0  0  0  0  0  0
    3.1904  144.9563   54.2806 N   0  0  0  0  0  0  0  0  0  0  0  0
    3.0679  143.6701   54.6274 C   0  0  0  0  0  0  0  0  0  0  0  0
    2.4348  142.7307   53.5852 C   0  0  0  0  0  0  0  0  0  0  0  0
    1.9275  143.3560   52.8489 H   0  0  0  0  0  0  0  0  0  0  0  0
    1.6523  142.1866   54.1145 H   0  0  0  0  0  0  0  0  0  0  0  0
    3.2980  141.7654   52.8257 N   0  0  0  0  0  0  0  0  0  0  0  0
    2.6144  140.6203   52.2163 C   0  0  0  0  0  0  0  0  0  0  0  0
    2.1709  139.9898   52.9801 H   0  0  0  0  0  0  0  0  0  0  0  0
    3.3752  140.0214   51.7091 H   0  0  0  0  0  0  0  0  0  0  0  0
    1.5741  141.0807   51.1921 C   0  0  0  0  0  0  0  0  0  0  0  0
    1.9512  140.8400   50.1943 H   0  0  0  0  0  0  0  0  0  0  0  0
    0.5997  140.6064   51.3650 H   0  0  0  0  0  0  0  0  0  0  0  0
    1.4356  142.1610   51.2250 H   0  0  0  0  0  0  0  0  0  0  0  0
    4.1760  142.3461   51.7926 C   0  0  0  0  0  0  0  0  0  0  0  0
    3.6054  142.5132   50.8688 H   0  0  0  0  0  0  0  0  0  0  0  0
    4.5367  143.3208   52.1132 H   0  0  0  0  0  0  0  0  0  0  0  0
    5.3369  141.3685   51.5241 C   0  0  0  0  0  0  0  0  0  0  0  0
    5.8741  141.1560   52.4567 H   0  0  0  0  0  0  0  0  0  0  0  0
    4.9669  140.4171   51.1337 H   0  0  0  0  0  0  0  0  0  0  0  0
    6.0323  141.7976   50.7912 H   0  0  0  0  0  0  0  0  0  0  0  0
    3.3740  143.2640   55.9312 C   0  0  0  0  0  0  0  0  0  0  0  0
    3.2341  141.8941   56.2934 C   0  0  0  0  0  0  0  0  0  0  0  0
    3.1193  140.7600   56.5277 N   0  0  0  0  0  0  0  0  0  0  0  0
    3.7892  144.2139   56.8467 C   0  0  0  0  0  0  0  0  0  0  0  0
    4.0316  143.8957   58.1488 N   0  0  0  0  0  0  0  0  0  0  0  0
    4.1725  142.9129   58.3681 H   0  0  0  0  0  0  0  0  0  0  0  0
    4.5022  144.5916   58.7247 H   0  0  0  0  0  0  0  0  0  0  0  0
    3.9264  145.5184   56.4668 C   0  0  0  0  0  0  0  0  0  0  0  0
    4.2570  146.2692   57.1654 H   0  0  0  0  0  0  0  0  0  0  0  0
    1.8742  149.2167   52.6619 C   0  0  0  0  0  0  0  0  0  0  0  0
    2.7213  148.3672   51.9918 O   0  0  0  0  0  0  0  0  0  0  0  0
    2.0840  147.3177   51.2543 C   0  0  0  0  0  0  0  0  0  0  0  0
    2.8393  146.6123   50.8967 H   0  0  0  0  0  0  0  0  0  0  0  0
    1.3812  146.7731   51.8930 H   0  0  0  0  0  0  0  0  0  0  0  0
    1.5407  147.7154   50.3920 H   0  0  0  0  0  0  0  0  0  0  0  0
  1  2  1  0
  2  3  2  0
  3  4  1  0
  3  5  1  0
  5  6  1  0
  6  7  1  0
  7  8  1  0
  7  9  1  0
  7 10  1  0
  5 11  2  0
 11 12  1  0
 11 13  1  0
 13 14  1  0
 14 15  1  0
 14 16  1  0
 14 17  1  0
 17 18  2  0
 17 19  1  0
 19 20  1  0
 19 21  1  0
 21 22  2  0
 22 23  1  0
 23 24  1  0
 24 25  1  0
 24 26  1  0
 24 27  1  0
 27 28  1  0
 28 29  1  0
 28 30  1  0
 28 31  1  0
 31 32  1  0
 31 33  1  0
 31 34  1  0
 27 35  1  0
 35 36  1  0
 35 37  1  0
 35 38  1  0
 38 39  1  0
 38 40  1  0
 38 41  1  0
 23 42  2  0
 42 43  1  0
 43 44  3  0
 42 45  1  0
 45 46  1  0
 46 47  1  0
 46 48  1  0
 45 49  2  0
 49 50  1  0
 13 51  2  0
 51 52  1  0
 52 53  1  0
 53 54  1  0
 53 55  1  0
 53 56  1  0
 51  2  1  0
 49 21  1  0
M  END
>  <score>  (160) 
7.04242

$$$$

     RDKit          3D

 59 61  0  0  0  0  0  0  0  0999 V2000
    0.2301  149.1030   51.2660 H   0  0  0  0  0  0  0  0  0  0  0  0
    0.6055  149.5535   52.1776 C   0  0  0  0  0  0  0  0  0  0  0  0
   -0.2043  150.4742   52.8577 C   0  0  0  0  0  0  0  0  0  0  0  0
   -1.9409  150.8924   52.1673 Br  0  0  0  0  0  0  0  0  0  0  0  0
    0.2567  151.0645   54.0444 C   0  0  0  0  0  0  0  0  0  0  0  0
   -0.4813  151.9946   54.7251 O   0  0  0  0  0  0  0  0  0  0  0  0
   -1.4870  151.4016   55.5481 C   0  0  0  0  0  0  0  0  0  0  0  0
   -2.2417  150.9022   54.9338 H   0  0  0  0  0  0  0  0  0  0  0  0
   -1.0372  150.6666   56.2195 H   0  0  0  0  0  0  0  0  0  0  0  0
   -1.9801  152.1703   56.1518 H   0  0  0  0  0  0  0  0  0  0  0  0
    1.4989  150.6910   54.5517 C   0  0  0  0  0  0  0  0  0  0  0  0
    1.8251  151.1143   55.4967 H   0  0  0  0  0  0  0  0  0  0  0  0
    2.3205  149.7879   53.8693 C   0  0  0  0  0  0  0  0  0  0  0  0
    3.6559  149.4816   54.4948 C   0  0  0  0  0  0  0  0  0  0  0  0
    3.8753  150.2856   55.1922 H   0  0  0  0  0  0  0  0  0  0  0  0
    4.4398  149.4617   53.7372 H   0  0  0  0  0  0  0  0  0  0  0  0
    3.6788  148.1739   55.2717 C   0  0  0  0  0  0  0  0  0  0  0  0
    3.7850  148.1835   56.4825 O   0  0  0  0  0  0  0  0  0  0  0  0
    3.6790  146.9902   54.6054 N   0  0  0  0  0  0  0  0  0  0  0  0
    3.3992  146.9710   53.6386 H   0  0  0  0  0  0  0  0  0  0  0  0
    3.6116  145.8030   55.2198 C   0  0  0  0  0  0  0  0  0  0  0  0
    3.1448  144.9567   54.3612 N   0  0  0  0  0  0  0  0  0  0  0  0
    2.9948  143.6934   54.7242 C   0  0  0  0  0  0  0  0  0  0  0  0
    2.5011  142.8482   53.7571 O   0  0  0  0  0  0  0  0  0  0  0  0
    2.3680  143.4250   52.4263 C   0  0  0  0  0  0  0  0  0  0  0  0
    1.5190  144.1216   52.4127 H   0  0  0  0  0  0  0  0  0  0  0  0
    3.2689  143.9846   52.1396 H   0  0  0  0  0  0  0  0  0  0  0  0
    2.1387  142.3458   51.3792 C   0  0  0  0  0  0  0  0  0  0  0  0
    3.0011  141.6670   51.3510 H   0  0  0  0  0  0  0  0  0  0  0  0
    1.2531  141.7783   51.6823 H   0  0  0  0  0  0  0  0  0  0  0  0
    1.9091  142.9503   50.0447 N   0  0  0  0  0  0  0  0  0  0  0  0
    0.8511  142.2832   49.2623 C   0  0  0  0  0  0  0  0  0  0  0  0
    0.0906  141.9406   49.9616 H   0  0  0  0  0  0  0  0  0  0  0  0
    0.3706  142.9732   48.5628 H   0  0  0  0  0  0  0  0  0  0  0  0
    1.4120  141.0777   48.5063 C   0  0  0  0  0  0  0  0  0  0  0  0
    0.6296  140.6400   47.8759 H   0  0  0  0  0  0  0  0  0  0  0  0
    1.7105  140.3373   49.2516 H   0  0  0  0  0  0  0  0  0  0  0  0
    2.5347  141.4433   47.6844 O   0  0  0  0  0  0  0  0  0  0  0  0
    3.6093  142.0240   48.4398 C   0  0  0  0  0  0  0  0  0  0  0  0
    4.3903  142.3185   47.7347 H   0  0  0  0  0  0  0  0  0  0  0  0
    4.0445  141.2827   49.1169 H   0  0  0  0  0  0  0  0  0  0  0  0
    3.1190  143.2531   49.2308 C   0  0  0  0  0  0  0  0  0  0  0  0
    2.8814  144.0245   48.4988 H   0  0  0  0  0  0  0  0  0  0  0  0
    3.9307  143.6419   49.8495 H   0  0  0  0  0  0  0  0  0  0  0  0
    3.3298  143.2600   55.9972 C   0  0  0  0  0  0  0  0  0  0  0  0
    3.2071  141.8800   56.3210 C   0  0  0  0  0  0  0  0  0  0  0  0
    3.1160  140.7379   56.5240 N   0  0  0  0  0  0  0  0  0  0  0  0
    3.7987  144.2000   56.8913 C   0  0  0  0  0  0  0  0  0  0  0  0
    4.1130  143.8795   58.1709 N   0  0  0  0  0  0  0  0  0  0  0  0
    4.1526  142.9016   58.4491 H   0  0  0  0  0  0  0  0  0  0  0  0
    4.4990  144.5983   58.7824 H   0  0  0  0  0  0  0  0  0  0  0  0
    3.9549  145.5004   56.5042 C   0  0  0  0  0  0  0  0  0  0  0  0
    4.3449  146.2588   57.1645 H   0  0  0  0  0  0  0  0  0  0  0  0
    1.8835  149.2115   52.6584 C   0  0  0  0  0  0  0  0  0  0  0  0
    2.7127  148.3352   51.9950 O   0  0  0  0  0  0  0  0  0  0  0  0
    2.0731  147.2932   51.2426 C   0  0  0  0  0  0  0  0  0  0  0  0
    1.5341  147.6979   50.3806 H   0  0  0  0  0  0  0  0  0  0  0  0
    2.8311  146.5916   50.8801 H   0  0  0  0  0  0  0  0  0  0  0  0
    1.3674  146.7385   51.8696 H   0  0  0  0  0  0  0  0  0  0  0  0
  1  2  1  0
  2  3  2  0
  3  4  1  0
  3  5  1  0
  5  6  1  0
  6  7  1  0
  7  8  1  0
  7  9  1  0
  7 10  1  0
  5 11  2  0
 11 12  1  0
 11 13  1  0
 13 14  1  0
 14 15  1  0
 14 16  1  0
 14 17  1  0
 17 18  2  0
 17 19  1  0
 19 20  1  0
 19 21  1  0
 21 22  2  0
 22 23  1  0
 23 24  1  0
 24 25  1  0
 25 26  1  0
 25 27  1  0
 25 28  1  0
 28 29  1  0
 28 30  1  0
 28 31  1  0
 31 32  1  0
 32 33  1  0
 32 34  1  0
 32 35  1  0
 35 36  1  0
 35 37  1  0
 35 38  1  0
 38 39  1  0
 39 40  1  0
 39 41  1  0
 39 42  1  0
 42 43  1  0
 42 44  1  0
 23 45  2  0
 45 46  1  0
 46 47  3  0
 45 48  1  0
 48 49  1  0
 49 50  1  0
 49 51  1  0
 48 52  2  0
 52 53  1  0
 13 54  2  0
 54 55  1  0
 55 56  1  0
 56 57  1  0
 56 58  1  0
 56 59  1  0
 54  2  1  0
 52 21  1  0
 42 31  1  0
M  END
>  <score>  (161) 
7.04309

$$$$

     RDKit          3D

 50 52  0  0  0  0  0  0  0  0999 V2000
    0.7904  144.4920   54.2025 H   0  0  0  0  0  0  0  0  0  0  0  0
    0.3771  144.1232   53.4020 O   0  0  0  0  0  0  0  0  0  0  0  0
    1.1206  143.0581   52.9847 C   0  0  0  0  0  0  0  0  0  0  0  0
    0.6556  142.2255   51.9683 C   0  0  0  0  0  0  0  0  0  0  0  0
   -0.3322  142.4119   51.5607 H   0  0  0  0  0  0  0  0  0  0  0  0
    1.4690  141.1942   51.4742 C   0  0  0  0  0  0  0  0  0  0  0  0
    1.1388  140.5924   50.6275 H   0  0  0  0  0  0  0  0  0  0  0  0
    2.7241  140.9632   52.0671 C   0  0  0  0  0  0  0  0  0  0  0  0
    3.3923  140.1938   51.6857 H   0  0  0  0  0  0  0  0  0  0  0  0
    3.1500  141.7423   53.1510 C   0  0  0  0  0  0  0  0  0  0  0  0
    4.1196  141.5510   53.6189 H   0  0  0  0  0  0  0  0  0  0  0  0
    2.3495  142.8104   53.5954 C   0  0  0  0  0  0  0  0  0  0  0  0
    2.8183  143.7006   54.6473 C   0  0  0  0  0  0  0  0  0  0  0  0
    2.9279  144.9848   54.3270 N   0  0  0  0  0  0  0  0  0  0  0  0
    3.4778  145.7964   55.1937 C   0  0  0  0  0  0  0  0  0  0  0  0
    3.6816  146.9644   54.5777 N   0  0  0  0  0  0  0  0  0  0  0  0
    3.4029  146.9581   53.6044 H   0  0  0  0  0  0  0  0  0  0  0  0
    3.7431  148.1589   55.2193 C   0  0  0  0  0  0  0  0  0  0  0  0
    3.8076  148.2037   56.4310 O   0  0  0  0  0  0  0  0  0  0  0  0
    3.6982  149.4455   54.4181 C   0  0  0  0  0  0  0  0  0  0  0  0
    4.4272  149.4126   53.6089 H   0  0  0  0  0  0  0  0  0  0  0  0
    3.9608  150.2453   55.0912 H   0  0  0  0  0  0  0  0  0  0  0  0
    2.3410  149.7645   53.8716 C   0  0  0  0  0  0  0  0  0  0  0  0
    1.5607  150.6792   54.5785 C   0  0  0  0  0  0  0  0  0  0  0  0
    1.9389  151.1325   55.4968 H   0  0  0  0  0  0  0  0  0  0  0  0
    0.3072  151.0368   54.0993 C   0  0  0  0  0  0  0  0  0  0  0  0
   -0.3885  151.9758   54.8052 O   0  0  0  0  0  0  0  0  0  0  0  0
   -1.4225  151.4059   55.6062 C   0  0  0  0  0  0  0  0  0  0  0  0
   -1.0072  150.6885   56.3164 H   0  0  0  0  0  0  0  0  0  0  0  0
   -2.1489  150.8871   54.9761 H   0  0  0  0  0  0  0  0  0  0  0  0
   -1.9369  152.1935   56.1657 H   0  0  0  0  0  0  0  0  0  0  0  0
   -0.1841  150.4749   52.9052 C   0  0  0  0  0  0  0  0  0  0  0  0
   -1.9205  150.9757   52.2592 Br  0  0  0  0  0  0  0  0  0  0  0  0
    0.6174  149.5737   52.1832 C   0  0  0  0  0  0  0  0  0  0  0  0
    0.2821  149.1715   51.2333 H   0  0  0  0  0  0  0  0  0  0  0  0
    1.8893  149.2203   52.6587 C   0  0  0  0  0  0  0  0  0  0  0  0
    2.7543  148.4043   51.9701 O   0  0  0  0  0  0  0  0  0  0  0  0
    2.1443  147.3121   51.2782 C   0  0  0  0  0  0  0  0  0  0  0  0
    2.9108  146.6036   50.9507 H   0  0  0  0  0  0  0  0  0  0  0  0
    1.5970  147.6602   50.3981 H   0  0  0  0  0  0  0  0  0  0  0  0
    1.4541  146.7853   51.9430 H   0  0  0  0  0  0  0  0  0  0  0  0
    3.8631  145.4461   56.4591 C   0  0  0  0  0  0  0  0  0  0  0  0
    4.3125  146.1327   57.1625 H   0  0  0  0  0  0  0  0  0  0  0  0
    3.7223  144.1326   56.7850 C   0  0  0  0  0  0  0  0  0  0  0  0
    4.1668  143.7533   57.9997 N   0  0  0  0  0  0  0  0  0  0  0  0
    4.0665  142.7843   58.2837 H   0  0  0  0  0  0  0  0  0  0  0  0
    4.4757  144.4627   58.6608 H   0  0  0  0  0  0  0  0  0  0  0  0
    3.2153  143.2240   55.8853 C   0  0  0  0  0  0  0  0  0  0  0  0
    3.1334  141.8324   56.1953 C   0  0  0  0  0  0  0  0  0  0  0  0
    3.0904  140.6962   56.4370 N   0  0  0  0  0  0  0  0  0  0  0  0
  1  2  1  0
  2  3  1  0
  3  4  2  0
  4  5  1  0
  4  6  1  0
  6  7  1  0
  6  8  2  0
  8  9  1  0
  8 10  1  0
 10 11  1  0
 10 12  2  0
 12 13  1  0
 13 14  2  0
 14 15  1  0
 15 16  1  0
 16 17  1  0
 16 18  1  0
 18 19  2  0
 18 20  1  0
 20 21  1  0
 20 22  1  0
 20 23  1  0
 23 24  2  0
 24 25  1  0
 24 26  1  0
 26 27  1  0
 27 28  1  0
 28 29  1  0
 28 30  1  0
 28 31  1  0
 26 32  2  0
 32 33  1  0
 32 34  1  0
 34 35  1  0
 34 36  2  0
 36 37  1  0
 37 38  1  0
 38 39  1  0
 38 40  1  0
 38 41  1  0
 15 42  2  0
 42 43  1  0
 42 44  1  0
 44 45  1  0
 45 46  1  0
 45 47  1  0
 44 48  2  0
 48 49  1  0
 49 50  3  0
 12  3  1  0
 48 13  1  0
 36 23  1  0
M  END
>  <score>  (162) 
7.04588

$$$$

     RDKit          3D

 50 52  0  0  0  0  0  0  0  0999 V2000
    0.6384  144.0905   53.2946 H   0  0  0  0  0  0  0  0  0  0  0  0
    1.2022  143.2080   52.9829 C   0  0  0  0  0  0  0  0  0  0  0  0
    0.7525  142.5288   51.9321 N   0  0  0  0  0  0  0  0  0  0  0  0
    1.4862  141.5162   51.5209 C   0  0  0  0  0  0  0  0  0  0  0  0
    1.0422  140.9608   50.3866 N   0  0  0  0  0  0  0  0  0  0  0  0
    0.0502  141.1060   50.2672 H   0  0  0  0  0  0  0  0  0  0  0  0
    1.4438  140.0592   50.1552 H   0  0  0  0  0  0  0  0  0  0  0  0
    2.6236  141.0350   52.1285 C   0  0  0  0  0  0  0  0  0  0  0  0
    3.1300  140.1976   51.6626 H   0  0  0  0  0  0  0  0  0  0  0  0
    3.0758  141.6759   53.2714 C   0  0  0  0  0  0  0  0  0  0  0  0
    3.9709  141.3105   53.7845 H   0  0  0  0  0  0  0  0  0  0  0  0
    2.3545  142.8149   53.6614 C   0  0  0  0  0  0  0  0  0  0  0  0
    2.8427  143.6771   54.6753 C   0  0  0  0  0  0  0  0  0  0  0  0
    2.9604  144.9497   54.3234 N   0  0  0  0  0  0  0  0  0  0  0  0
    3.4926  145.7794   55.1858 C   0  0  0  0  0  0  0  0  0  0  0  0
    3.6703  146.9688   54.5866 N   0  0  0  0  0  0  0  0  0  0  0  0
    3.4507  146.9597   53.6046 H   0  0  0  0  0  0  0  0  0  0  0  0
    3.7436  148.1667   55.2272 C   0  0  0  0  0  0  0  0  0  0  0  0
    3.8208  148.2145   56.4435 O   0  0  0  0  0  0  0  0  0  0  0  0
    3.7083  149.4513   54.4121 C   0  0  0  0  0  0  0  0  0  0  0  0
    4.4220  149.3868   53.5928 H   0  0  0  0  0  0  0  0  0  0  0  0
    3.9860  150.2733   55.0495 H   0  0  0  0  0  0  0  0  0  0  0  0
    2.3545  149.7734   53.8666 C   0  0  0  0  0  0  0  0  0  0  0  0
    1.5769  150.6855   54.5778 C   0  0  0  0  0  0  0  0  0  0  0  0
    1.9629  151.1375   55.4908 H   0  0  0  0  0  0  0  0  0  0  0  0
    0.3172  151.0415   54.1122 C   0  0  0  0  0  0  0  0  0  0  0  0
   -0.3815  151.9744   54.8275 O   0  0  0  0  0  0  0  0  0  0  0  0
   -1.4229  151.4063   55.6239 C   0  0  0  0  0  0  0  0  0  0  0  0
   -1.0107  150.6945   56.3402 H   0  0  0  0  0  0  0  0  0  0  0  0
   -1.9400  152.1959   56.1769 H   0  0  0  0  0  0  0  0  0  0  0  0
   -2.1480  150.8828   54.9964 H   0  0  0  0  0  0  0  0  0  0  0  0
   -0.1673  150.4851   52.9122 C   0  0  0  0  0  0  0  0  0  0  0  0
   -1.9019  150.9805   52.2669 Br  0  0  0  0  0  0  0  0  0  0  0  0
    0.6333  149.5845   52.1864 C   0  0  0  0  0  0  0  0  0  0  0  0
    0.2919  149.1855   51.2395 H   0  0  0  0  0  0  0  0  0  0  0  0
    1.9053  149.2255   52.6565 C   0  0  0  0  0  0  0  0  0  0  0  0
    2.7641  148.4062   51.9625 O   0  0  0  0  0  0  0  0  0  0  0  0
    2.1544  147.3072   51.2794 C   0  0  0  0  0  0  0  0  0  0  0  0
    1.6080  147.6491   50.3959 H   0  0  0  0  0  0  0  0  0  0  0  0
    2.9254  146.6001   50.9585 H   0  0  0  0  0  0  0  0  0  0  0  0
    1.4637  146.7799   51.9450 H   0  0  0  0  0  0  0  0  0  0  0  0
    3.8702  145.4276   56.4528 C   0  0  0  0  0  0  0  0  0  0  0  0
    4.2933  146.1214   57.1606 H   0  0  0  0  0  0  0  0  0  0  0  0
    3.7430  144.1122   56.7776 C   0  0  0  0  0  0  0  0  0  0  0  0
    4.1549  143.7369   58.0001 N   0  0  0  0  0  0  0  0  0  0  0  0
    4.0636  142.7671   58.2831 H   0  0  0  0  0  0  0  0  0  0  0  0
    4.4786  144.4456   58.6507 H   0  0  0  0  0  0  0  0  0  0  0  0
    3.2473  143.1927   55.8946 C   0  0  0  0  0  0  0  0  0  0  0  0
    3.1506  141.8058   56.2090 C   0  0  0  0  0  0  0  0  0  0  0  0
    3.0659  140.6680   56.4416 N   0  0  0  0  0  0  0  0  0  0  0  0
  1  2  1  0
  2  3  2  0
  3  4  1  0
  4  5  1  0
  5  6  1  0
  5  7  1  0
  4  8  2  0
  8  9  1  0
  8 10  1  0
 10 11  1  0
 10 12  2  0
 12 13  1  0
 13 14  2  0
 14 15  1  0
 15 16  1  0
 16 17  1  0
 16 18  1  0
 18 19  2  0
 18 20  1  0
 20 21  1  0
 20 22  1  0
 20 23  1  0
 23 24  2  0
 24 25  1  0
 24 26  1  0
 26 27  1  0
 27 28  1  0
 28 29  1  0
 28 30  1  0
 28 31  1  0
 26 32  2  0
 32 33  1  0
 32 34  1  0
 34 35  1  0
 34 36  2  0
 36 37  1  0
 37 38  1  0
 38 39  1  0
 38 40  1  0
 38 41  1  0
 15 42  2  0
 42 43  1  0
 42 44  1  0
 44 45  1  0
 45 46  1  0
 45 47  1  0
 44 48  2  0
 48 49  1  0
 49 50  3  0
 12  2  1  0
 48 13  1  0
 36 23  1  0
M  END
>  <score>  (163) 
7.04761

$$$$

     RDKit          3D

 48 50  0  0  0  0  0  0  0  0999 V2000
    0.9062  140.7175   50.7688 H   0  0  0  0  0  0  0  0  0  0  0  0
    1.3148  141.3082   51.5806 C   0  0  0  0  0  0  0  0  0  0  0  0
    0.6461  142.3983   51.9767 N   0  0  0  0  0  0  0  0  0  0  0  0
    1.1852  143.1550   52.9444 C   0  0  0  0  0  0  0  0  0  0  0  0
    0.6480  144.0643   53.1977 H   0  0  0  0  0  0  0  0  0  0  0  0
    2.3602  142.7961   53.6166 C   0  0  0  0  0  0  0  0  0  0  0  0
    2.8670  143.6765   54.6492 C   0  0  0  0  0  0  0  0  0  0  0  0
    2.9782  144.9655   54.3276 N   0  0  0  0  0  0  0  0  0  0  0  0
    3.5051  145.7888   55.2171 C   0  0  0  0  0  0  0  0  0  0  0  0
    3.7038  146.9838   54.6323 N   0  0  0  0  0  0  0  0  0  0  0  0
    3.5052  146.9420   53.6451 H   0  0  0  0  0  0  0  0  0  0  0  0
    3.7472  148.1990   55.2612 C   0  0  0  0  0  0  0  0  0  0  0  0
    3.8467  148.2498   56.4778 O   0  0  0  0  0  0  0  0  0  0  0  0
    3.7238  149.4725   54.4038 C   0  0  0  0  0  0  0  0  0  0  0  0
    4.4063  149.3621   53.5583 H   0  0  0  0  0  0  0  0  0  0  0  0
    3.9955  150.3496   54.9857 H   0  0  0  0  0  0  0  0  0  0  0  0
    2.3777  149.7797   53.8605 C   0  0  0  0  0  0  0  0  0  0  0  0
    1.5930  150.6863   54.5722 C   0  0  0  0  0  0  0  0  0  0  0  0
    1.9876  151.1447   55.4691 H   0  0  0  0  0  0  0  0  0  0  0  0
    0.3316  151.0581   54.1299 C   0  0  0  0  0  0  0  0  0  0  0  0
   -0.3789  151.9761   54.8587 O   0  0  0  0  0  0  0  0  0  0  0  0
   -1.4256  151.4031   55.6454 C   0  0  0  0  0  0  0  0  0  0  0  0
   -1.9392  152.2028   56.1884 H   0  0  0  0  0  0  0  0  0  0  0  0
   -2.1524  150.8749   55.0183 H   0  0  0  0  0  0  0  0  0  0  0  0
   -1.0124  150.7010   56.3723 H   0  0  0  0  0  0  0  0  0  0  0  0
   -0.1474  150.4979   52.9351 C   0  0  0  0  0  0  0  0  0  0  0  0
   -1.8714  150.9855   52.2786 Br  0  0  0  0  0  0  0  0  0  0  0  0
    0.6568  149.6040   52.1941 C   0  0  0  0  0  0  0  0  0  0  0  0
    0.3068  149.1981   51.2482 H   0  0  0  0  0  0  0  0  0  0  0  0
    1.9331  149.2369   52.6496 C   0  0  0  0  0  0  0  0  0  0  0  0
    2.7739  148.4018   51.9491 O   0  0  0  0  0  0  0  0  0  0  0  0
    2.1628  147.2970   51.2813 C   0  0  0  0  0  0  0  0  0  0  0  0
    1.4729  146.7710   51.9509 H   0  0  0  0  0  0  0  0  0  0  0  0
    1.6206  147.6405   50.3955 H   0  0  0  0  0  0  0  0  0  0  0  0
    2.9495  146.5998   50.9722 H   0  0  0  0  0  0  0  0  0  0  0  0
    3.8809  145.4233   56.4837 C   0  0  0  0  0  0  0  0  0  0  0  0
    4.3077  146.1131   57.1989 H   0  0  0  0  0  0  0  0  0  0  0  0
    3.7491  144.1042   56.7898 C   0  0  0  0  0  0  0  0  0  0  0  0
    4.1504  143.7209   58.0117 N   0  0  0  0  0  0  0  0  0  0  0  0
    4.4918  144.4338   58.6514 H   0  0  0  0  0  0  0  0  0  0  0  0
    4.0585  142.7450   58.2860 H   0  0  0  0  0  0  0  0  0  0  0  0
    3.2649  143.1952   55.8861 C   0  0  0  0  0  0  0  0  0  0  0  0
    3.1506  141.8138   56.2155 C   0  0  0  0  0  0  0  0  0  0  0  0
    3.0415  140.6794   56.4499 N   0  0  0  0  0  0  0  0  0  0  0  0
    3.0505  141.6426   53.2269 C   0  0  0  0  0  0  0  0  0  0  0  0
    3.9855  141.3141   53.6874 H   0  0  0  0  0  0  0  0  0  0  0  0
    2.5352  140.9417   52.1499 C   0  0  0  0  0  0  0  0  0  0  0  0
    3.1132  140.1315   51.7394 H   0  0  0  0  0  0  0  0  0  0  0  0
  1  2  1  0
  2  3  2  0
  3  4  1  0
  4  5  1  0
  4  6  2  0
  6  7  1  0
  7  8  2  0
  8  9  1  0
  9 10  1  0
 10 11  1  0
 10 12  1  0
 12 13  2  0
 12 14  1  0
 14 15  1  0
 14 16  1  0
 14 17  1  0
 17 18  2  0
 18 19  1  0
 18 20  1  0
 20 21  1  0
 21 22  1  0
 22 23  1  0
 22 24  1  0
 22 25  1  0
 20 26  2  0
 26 27  1  0
 26 28  1  0
 28 29  1  0
 28 30  2  0
 30 31  1  0
 31 32  1  0
 32 33  1  0
 32 34  1  0
 32 35  1  0
  9 36  2  0
 36 37  1  0
 36 38  1  0
 38 39  1  0
 39 40  1  0
 39 41  1  0
 38 42  2  0
 42 43  1  0
 43 44  3  0
  6 45  1  0
 45 46  1  0
 45 47  2  0
 47 48  1  0
 47  2  1  0
 42  7  1  0
 30 17  1  0
M  END
>  <score>  (164) 
7.04816

$$$$

     RDKit          3D

 53 55  0  0  0  0  0  0  0  0999 V2000
    0.1451  149.6754   51.0729 H   0  0  0  0  0  0  0  0  0  0  0  0
    0.5271  149.8882   52.0651 C   0  0  0  0  0  0  0  0  0  0  0  0
   -0.1984  150.7253   52.9220 C   0  0  0  0  0  0  0  0  0  0  0  0
   -1.8230  151.5322   52.2964 Br  0  0  0  0  0  0  0  0  0  0  0  0
    0.3050  151.0030   54.2060 C   0  0  0  0  0  0  0  0  0  0  0  0
   -0.3131  151.8873   55.0490 O   0  0  0  0  0  0  0  0  0  0  0  0
   -1.5433  151.4306   55.6190 C   0  0  0  0  0  0  0  0  0  0  0  0
   -2.2490  151.0805   54.8602 H   0  0  0  0  0  0  0  0  0  0  0  0
   -1.3470  150.6142   56.3096 H   0  0  0  0  0  0  0  0  0  0  0  0
   -2.0150  152.2449   56.1783 H   0  0  0  0  0  0  0  0  0  0  0  0
    1.5293  150.4536   54.6024 C   0  0  0  0  0  0  0  0  0  0  0  0
    1.9213  150.6863   55.5870 H   0  0  0  0  0  0  0  0  0  0  0  0
    2.2832  149.6752   53.7220 C   0  0  0  0  0  0  0  0  0  0  0  0
    3.6742  149.2344   54.1310 C   0  0  0  0  0  0  0  0  0  0  0  0
    4.2883  150.1171   54.3201 H   0  0  0  0  0  0  0  0  0  0  0  0
    4.1097  148.7135   53.2799 H   0  0  0  0  0  0  0  0  0  0  0  0
    3.7443  148.3276   55.3665 C   0  0  0  0  0  0  0  0  0  0  0  0
    2.8311  148.2475   56.1677 O   0  0  0  0  0  0  0  0  0  0  0  0
    4.8864  147.6029   55.6042 N   0  0  0  0  0  0  0  0  0  0  0  0
    5.5831  147.7077   54.8887 H   0  0  0  0  0  0  0  0  0  0  0  0
    4.5955  146.3006   55.7980 C   0  0  0  0  0  0  0  0  0  0  0  0
    4.3184  145.6425   54.6866 N   0  0  0  0  0  0  0  0  0  0  0  0
    3.9696  144.3527   54.7836 C   0  0  0  0  0  0  0  0  0  0  0  0
    3.4270  143.6875   53.5600 C   0  0  0  0  0  0  0  0  0  0  0  0
    2.3391  142.8201   53.7324 C   0  0  0  0  0  0  0  0  0  0  0  0
    1.9191  142.6404   54.7173 H   0  0  0  0  0  0  0  0  0  0  0  0
    1.7376  142.2153   52.6428 C   0  0  0  0  0  0  0  0  0  0  0  0
    0.8312  141.6406   52.7865 H   0  0  0  0  0  0  0  0  0  0  0  0
    2.2408  142.3649   51.3451 C   0  0  0  0  0  0  0  0  0  0  0  0
    1.5643  141.6609   50.2613 C   0  0  0  0  0  0  0  0  0  0  0  0
    0.6236  140.9417   50.5091 O   0  0  0  0  0  0  0  0  0  0  0  0
    1.8781  141.7075   48.9332 N   0  0  0  0  0  0  0  0  0  0  0  0
    2.7979  142.0499   48.6865 H   0  0  0  0  0  0  0  0  0  0  0  0
    1.4467  140.9657   48.3889 H   0  0  0  0  0  0  0  0  0  0  0  0
    3.3382  143.2076   51.1434 C   0  0  0  0  0  0  0  0  0  0  0  0
    3.7659  143.3548   50.1529 H   0  0  0  0  0  0  0  0  0  0  0  0
    3.8791  143.9061   52.2231 C   0  0  0  0  0  0  0  0  0  0  0  0
    4.6618  144.6080   51.9506 H   0  0  0  0  0  0  0  0  0  0  0  0
    3.9713  143.6944   56.0252 C   0  0  0  0  0  0  0  0  0  0  0  0
    3.7214  142.2943   56.1263 C   0  0  0  0  0  0  0  0  0  0  0  0
    3.5214  141.1471   56.1885 N   0  0  0  0  0  0  0  0  0  0  0  0
    4.2110  144.4516   57.1482 C   0  0  0  0  0  0  0  0  0  0  0  0
    4.0780  143.9773   58.4030 N   0  0  0  0  0  0  0  0  0  0  0  0
    4.3289  144.6149   59.1568 H   0  0  0  0  0  0  0  0  0  0  0  0
    4.1883  142.9798   58.5488 H   0  0  0  0  0  0  0  0  0  0  0  0
    4.5647  145.7534   57.0415 C   0  0  0  0  0  0  0  0  0  0  0  0
    4.7854  146.3319   57.9226 H   0  0  0  0  0  0  0  0  0  0  0  0
    1.7726  149.3705   52.4444 C   0  0  0  0  0  0  0  0  0  0  0  0
    2.5184  148.6171   51.5722 O   0  0  0  0  0  0  0  0  0  0  0  0
    1.8293  147.4672   51.0711 C   0  0  0  0  0  0  0  0  0  0  0  0
    1.1975  147.7429   50.2232 H   0  0  0  0  0  0  0  0  0  0  0  0
    2.5596  146.7215   50.7449 H   0  0  0  0  0  0  0  0  0  0  0  0
    1.1977  147.0094   51.8397 H   0  0  0  0  0  0  0  0  0  0  0  0
  1  2  1  0
  2  3  2  0
  3  4  1  0
  3  5  1  0
  5  6  1  0
  6  7  1  0
  7  8  1  0
  7  9  1  0
  7 10  1  0
  5 11  2  0
 11 12  1  0
 11 13  1  0
 13 14  1  0
 14 15  1  0
 14 16  1  0
 14 17  1  0
 17 18  2  0
 17 19  1  0
 19 20  1  0
 19 21  1  0
 21 22  2  0
 22 23  1  0
 23 24  1  0
 24 25  2  0
 25 26  1  0
 25 27  1  0
 27 28  1  0
 27 29  2  0
 29 30  1  0
 30 31  2  0
 30 32  1  0
 32 33  1  0
 32 34  1  0
 29 35  1  0
 35 36  1  0
 35 37  2  0
 37 38  1  0
 23 39  2  0
 39 40  1  0
 40 41  3  0
 39 42  1  0
 42 43  1  0
 43 44  1  0
 43 45  1  0
 42 46  2  0
 46 47  1  0
 13 48  2  0
 48 49  1  0
 49 50  1  0
 50 51  1  0
 50 52  1  0
 50 53  1  0
 48  2  1  0
 46 21  1  0
 37 24  1  0
M  END
>  <score>  (165) 
7.0499

$$$$

     RDKit          3D

 53 54  0  0  0  0  0  0  0  0999 V2000
    0.3095  149.1946   51.2516 H   0  0  0  0  0  0  0  0  0  0  0  0
    0.6523  149.5978   52.1945 C   0  0  0  0  0  0  0  0  0  0  0  0
   -0.1503  150.4906   52.9303 C   0  0  0  0  0  0  0  0  0  0  0  0
   -1.8777  150.9856   52.2812 Br  0  0  0  0  0  0  0  0  0  0  0  0
    0.3291  151.0493   54.1257 C   0  0  0  0  0  0  0  0  0  0  0  0
   -0.3756  151.9734   54.8475 O   0  0  0  0  0  0  0  0  0  0  0  0
   -1.4219  151.4031   55.6357 C   0  0  0  0  0  0  0  0  0  0  0  0
   -1.0115  150.6982   56.3599 H   0  0  0  0  0  0  0  0  0  0  0  0
   -1.9342  152.2008   56.1806 H   0  0  0  0  0  0  0  0  0  0  0  0
   -2.1489  150.8766   55.0099 H   0  0  0  0  0  0  0  0  0  0  0  0
    1.5883  150.6843   54.5729 C   0  0  0  0  0  0  0  0  0  0  0  0
    1.9807  151.1440   55.4734 H   0  0  0  0  0  0  0  0  0  0  0  0
    2.3631  149.7707   53.8604 C   0  0  0  0  0  0  0  0  0  0  0  0
    3.7066  149.4527   54.4019 C   0  0  0  0  0  0  0  0  0  0  0  0
    4.4035  149.3684   53.5656 H   0  0  0  0  0  0  0  0  0  0  0  0
    3.9599  150.3198   55.0032 H   0  0  0  0  0  0  0  0  0  0  0  0
    3.7406  148.1678   55.2432 C   0  0  0  0  0  0  0  0  0  0  0  0
    3.8366  148.2146   56.4568 O   0  0  0  0  0  0  0  0  0  0  0  0
    3.6943  146.9557   54.6113 N   0  0  0  0  0  0  0  0  0  0  0  0
    3.4814  146.9159   53.6310 H   0  0  0  0  0  0  0  0  0  0  0  0
    3.5171  145.7680   55.2028 C   0  0  0  0  0  0  0  0  0  0  0  0
    3.0107  144.9484   54.3138 N   0  0  0  0  0  0  0  0  0  0  0  0
    2.8894  143.6772   54.6593 C   0  0  0  0  0  0  0  0  0  0  0  0
    2.3724  142.8124   53.7131 N   0  0  0  0  0  0  0  0  0  0  0  0
    3.3084  141.8526   53.1170 C   0  0  0  0  0  0  0  0  0  0  0  0
    4.2195  141.7690   53.7123 H   0  0  0  0  0  0  0  0  0  0  0  0
    3.5644  142.1986   52.1153 H   0  0  0  0  0  0  0  0  0  0  0  0
    2.8018  140.4398   52.9648 C   0  0  0  0  0  0  0  0  0  0  0  0
    2.6348  139.9456   53.9307 H   0  0  0  0  0  0  0  0  0  0  0  0
    3.6162  139.9177   52.4531 H   0  0  0  0  0  0  0  0  0  0  0  0
    1.8890  140.3861   52.3507 H   0  0  0  0  0  0  0  0  0  0  0  0
    1.1349  143.1522   52.9949 C   0  0  0  0  0  0  0  0  0  0  0  0
    0.5542  142.2357   52.9376 H   0  0  0  0  0  0  0  0  0  0  0  0
    0.5641  143.9105   53.5416 H   0  0  0  0  0  0  0  0  0  0  0  0
    1.3138  143.6295   51.5680 C   0  0  0  0  0  0  0  0  0  0  0  0
    0.3578  144.0248   51.2081 H   0  0  0  0  0  0  0  0  0  0  0  0
    2.0753  144.4114   51.4973 H   0  0  0  0  0  0  0  0  0  0  0  0
    1.5923  142.7816   50.9370 H   0  0  0  0  0  0  0  0  0  0  0  0
    3.2745  143.1972   55.8850 C   0  0  0  0  0  0  0  0  0  0  0  0
    3.1544  141.8141   56.2059 C   0  0  0  0  0  0  0  0  0  0  0  0
    3.0403  140.6795   56.4269 N   0  0  0  0  0  0  0  0  0  0  0  0
    3.7506  144.1068   56.7772 C   0  0  0  0  0  0  0  0  0  0  0  0
    4.1443  143.7280   57.9968 N   0  0  0  0  0  0  0  0  0  0  0  0
    4.0561  142.7530   58.2682 H   0  0  0  0  0  0  0  0  0  0  0  0
    4.4831  144.4401   58.6356 H   0  0  0  0  0  0  0  0  0  0  0  0
    3.8796  145.4210   56.4711 C   0  0  0  0  0  0  0  0  0  0  0  0
    4.2927  146.1157   57.1874 H   0  0  0  0  0  0  0  0  0  0  0  0
    1.9239  149.2325   52.6494 C   0  0  0  0  0  0  0  0  0  0  0  0
    2.7737  148.4062   51.9542 O   0  0  0  0  0  0  0  0  0  0  0  0
    2.1608  147.3040   51.2833 C   0  0  0  0  0  0  0  0  0  0  0  0
    2.9414  146.6036   50.9709 H   0  0  0  0  0  0  0  0  0  0  0  0
    1.4700  146.7762   51.9502 H   0  0  0  0  0  0  0  0  0  0  0  0
    1.6157  147.6470   50.3991 H   0  0  0  0  0  0  0  0  0  0  0  0
  1  2  1  0
  2  3  2  0
  3  4  1  0
  3  5  1  0
  5  6  1  0
  6  7  1  0
  7  8  1  0
  7  9  1  0
  7 10  1  0
  5 11  2  0
 11 12  1  0
 11 13  1  0
 13 14  1  0
 14 15  1  0
 14 16  1  0
 14 17  1  0
 17 18  2  0
 17 19  1  0
 19 20  1  0
 19 21  1  0
 21 22  2  0
 22 23  1  0
 23 24  1  0
 24 25  1  0
 25 26  1  0
 25 27  1  0
 25 28  1  0
 28 29  1  0
 28 30  1  0
 28 31  1  0
 24 32  1  0
 32 33  1  0
 32 34  1  0
 32 35  1  0
 35 36  1  0
 35 37  1  0
 35 38  1  0
 23 39  2  0
 39 40  1  0
 40 41  3  0
 39 42  1  0
 42 43  1  0
 43 44  1  0
 43 45  1  0
 42 46  2  0
 46 47  1  0
 13 48  2  0
 48 49  1  0
 49 50  1  0
 50 51  1  0
 50 52  1  0
 50 53  1  0
 48  2  1  0
 46 21  1  0
M  END
>  <score>  (166) 
7.05007

$$$$

     RDKit          3D

 52 53  0  0  0  0  0  0  0  0999 V2000
    0.2724  149.1632   51.2364 H   0  0  0  0  0  0  0  0  0  0  0  0
    0.6126  149.5720   52.1837 C   0  0  0  0  0  0  0  0  0  0  0  0
   -0.1920  150.4723   52.9058 C   0  0  0  0  0  0  0  0  0  0  0  0
   -1.9244  150.9653   52.2499 Br  0  0  0  0  0  0  0  0  0  0  0  0
    0.3024  151.0411   54.0922 C   0  0  0  0  0  0  0  0  0  0  0  0
   -0.3980  151.9808   54.7929 O   0  0  0  0  0  0  0  0  0  0  0  0
   -1.4275  151.4043   55.5936 C   0  0  0  0  0  0  0  0  0  0  0  0
   -1.9363  152.1893   56.1596 H   0  0  0  0  0  0  0  0  0  0  0  0
   -2.1569  150.8896   54.9631 H   0  0  0  0  0  0  0  0  0  0  0  0
   -1.0062  150.6860   56.2995 H   0  0  0  0  0  0  0  0  0  0  0  0
    1.5516  150.6681   54.5719 C   0  0  0  0  0  0  0  0  0  0  0  0
    1.9175  151.1178   55.4908 H   0  0  0  0  0  0  0  0  0  0  0  0
    2.3406  149.7598   53.8695 C   0  0  0  0  0  0  0  0  0  0  0  0
    3.6901  149.4296   54.4247 C   0  0  0  0  0  0  0  0  0  0  0  0
    4.4281  149.4159   53.6182 H   0  0  0  0  0  0  0  0  0  0  0  0
    3.9414  150.2064   55.1338 H   0  0  0  0  0  0  0  0  0  0  0  0
    3.7154  148.1235   55.1918 C   0  0  0  0  0  0  0  0  0  0  0  0
    3.8017  148.1323   56.4066 O   0  0  0  0  0  0  0  0  0  0  0  0
    3.7003  146.9450   54.5209 N   0  0  0  0  0  0  0  0  0  0  0  0
    3.4024  146.9396   53.5577 H   0  0  0  0  0  0  0  0  0  0  0  0
    3.5827  145.7566   55.1298 C   0  0  0  0  0  0  0  0  0  0  0  0
    3.1055  144.9133   54.2586 N   0  0  0  0  0  0  0  0  0  0  0  0
    2.9447  143.6706   54.6432 C   0  0  0  0  0  0  0  0  0  0  0  0
    2.4069  142.8317   53.7196 N   0  0  0  0  0  0  0  0  0  0  0  0
    1.9406  142.0042   54.0438 H   0  0  0  0  0  0  0  0  0  0  0  0
    2.4184  143.1362   52.3812 C   0  0  0  0  0  0  0  0  0  0  0  0
    2.9980  144.1336   51.9784 O   0  0  0  0  0  0  0  0  0  0  0  0
    1.5834  142.2771   51.4282 C   0  0  0  0  0  0  0  0  0  0  0  0
    0.8594  141.7159   52.0346 H   0  0  0  0  0  0  0  0  0  0  0  0
    0.8666  143.1625   50.4064 C   0  0  0  0  0  0  0  0  0  0  0  0
    1.5505  143.9051   49.9644 H   0  0  0  0  0  0  0  0  0  0  0  0
    0.4635  142.5252   49.6072 H   0  0  0  0  0  0  0  0  0  0  0  0
    0.0345  143.6913   50.8812 H   0  0  0  0  0  0  0  0  0  0  0  0
    2.3976  141.2863   50.5929 C   0  0  0  0  0  0  0  0  0  0  0  0
    3.0736  141.8152   49.9102 H   0  0  0  0  0  0  0  0  0  0  0  0
    1.7005  140.7005   49.9828 H   0  0  0  0  0  0  0  0  0  0  0  0
    2.9788  140.6109   51.2256 H   0  0  0  0  0  0  0  0  0  0  0  0
    3.2601  143.2135   55.8964 C   0  0  0  0  0  0  0  0  0  0  0  0
    3.1343  141.8316   56.2182 C   0  0  0  0  0  0  0  0  0  0  0  0
    3.0456  140.6914   56.4152 N   0  0  0  0  0  0  0  0  0  0  0  0
    3.7391  144.1341   56.7870 C   0  0  0  0  0  0  0  0  0  0  0  0
    4.0797  143.7756   58.0365 N   0  0  0  0  0  0  0  0  0  0  0  0
    4.4856  144.4794   58.6513 H   0  0  0  0  0  0  0  0  0  0  0  0
    4.0849  142.7853   58.2788 H   0  0  0  0  0  0  0  0  0  0  0  0
    3.8932  145.4390   56.4298 C   0  0  0  0  0  0  0  0  0  0  0  0
    4.2614  146.1619   57.1399 H   0  0  0  0  0  0  0  0  0  0  0  0
    1.8884  149.2204   52.6569 C   0  0  0  0  0  0  0  0  0  0  0  0
    2.7453  148.3982   51.9675 O   0  0  0  0  0  0  0  0  0  0  0  0
    2.1375  147.3067   51.2760 C   0  0  0  0  0  0  0  0  0  0  0  0
    1.5740  147.6628   50.4100 H   0  0  0  0  0  0  0  0  0  0  0  0
    1.4652  146.7674   51.9479 H   0  0  0  0  0  0  0  0  0  0  0  0
    2.9100  146.6130   50.9302 H   0  0  0  0  0  0  0  0  0  0  0  0
  1  2  1  0
  2  3  2  0
  3  4  1  0
  3  5  1  0
  5  6  1  0
  6  7  1  0
  7  8  1  0
  7  9  1  0
  7 10  1  0
  5 11  2  0
 11 12  1  0
 11 13  1  0
 13 14  1  0
 14 15  1  0
 14 16  1  0
 14 17  1  0
 17 18  2  0
 17 19  1  0
 19 20  1  0
 19 21  1  0
 21 22  2  0
 22 23  1  0
 23 24  1  0
 24 25  1  0
 24 26  1  0
 26 27  2  0
 26 28  1  0
 28 29  1  0
 28 30  1  0
 30 31  1  0
 30 32  1  0
 30 33  1  0
 28 34  1  0
 34 35  1  0
 34 36  1  0
 34 37  1  0
 23 38  2  0
 38 39  1  0
 39 40  3  0
 38 41  1  0
 41 42  1  0
 42 43  1  0
 42 44  1  0
 41 45  2  0
 45 46  1  0
 13 47  2  0
 47 48  1  0
 48 49  1  0
 49 50  1  0
 49 51  1  0
 49 52  1  0
 47  2  1  0
 45 21  1  0
M  END
>  <score>  (167) 
7.05124

$$$$

     RDKit          3D

 52 53  0  0  0  0  0  0  0  0999 V2000
    0.2363  149.1273   51.2673 H   0  0  0  0  0  0  0  0  0  0  0  0
    0.6011  149.5586   52.1923 C   0  0  0  0  0  0  0  0  0  0  0  0
   -0.2148  150.4744   52.8778 C   0  0  0  0  0  0  0  0  0  0  0  0
   -1.9512  150.9159   52.1954 Br  0  0  0  0  0  0  0  0  0  0  0  0
    0.2511  151.0604   54.0635 C   0  0  0  0  0  0  0  0  0  0  0  0
   -0.4670  152.0018   54.7471 O   0  0  0  0  0  0  0  0  0  0  0  0
   -1.4673  151.4058   55.5659 C   0  0  0  0  0  0  0  0  0  0  0  0
   -2.2094  150.8946   54.9465 H   0  0  0  0  0  0  0  0  0  0  0  0
   -1.9661  152.1757   56.1586 H   0  0  0  0  0  0  0  0  0  0  0  0
   -1.0135  150.6819   56.2458 H   0  0  0  0  0  0  0  0  0  0  0  0
    1.4998  150.6979   54.5546 C   0  0  0  0  0  0  0  0  0  0  0  0
    1.8311  151.1346   55.4895 H   0  0  0  0  0  0  0  0  0  0  0  0
    2.3328  149.8152   53.8631 C   0  0  0  0  0  0  0  0  0  0  0  0
    3.6898  149.5667   54.4640 C   0  0  0  0  0  0  0  0  0  0  0  0
    4.4560  149.5282   53.6833 H   0  0  0  0  0  0  0  0  0  0  0  0
    3.8836  150.4123   55.1098 H   0  0  0  0  0  0  0  0  0  0  0  0
    3.7605  148.3054   55.3074 C   0  0  0  0  0  0  0  0  0  0  0  0
    3.8107  148.3362   56.5243 O   0  0  0  0  0  0  0  0  0  0  0  0
    3.7887  147.1303   54.6432 N   0  0  0  0  0  0  0  0  0  0  0  0
    3.5579  147.1639   53.6634 H   0  0  0  0  0  0  0  0  0  0  0  0
    3.6966  145.9127   55.2101 C   0  0  0  0  0  0  0  0  0  0  0  0
    3.3437  145.0584   54.2814 N   0  0  0  0  0  0  0  0  0  0  0  0
    3.2138  143.7458   54.5674 C   0  0  0  0  0  0  0  0  0  0  0  0
    2.9007  142.7847   53.4269 C   0  0  0  0  0  0  0  0  0  0  0  0
    2.6891  141.5962   53.6473 O   0  0  0  0  0  0  0  0  0  0  0  0
    2.8129  143.1767   52.0909 N   0  0  0  0  0  0  0  0  0  0  0  0
    2.7863  144.1844   51.9421 H   0  0  0  0  0  0  0  0  0  0  0  0
    2.0779  142.3781   51.1181 C   0  0  0  0  0  0  0  0  0  0  0  0
    2.2489  141.3006   51.2679 H   0  0  0  0  0  0  0  0  0  0  0  0
    2.4065  142.6050   50.0941 H   0  0  0  0  0  0  0  0  0  0  0  0
    0.6059  142.7294   51.3613 C   0  0  0  0  0  0  0  0  0  0  0  0
   -0.0109  142.1141   50.7028 H   0  0  0  0  0  0  0  0  0  0  0  0
    0.3581  142.4675   52.3989 H   0  0  0  0  0  0  0  0  0  0  0  0
    0.3542  144.2386   51.1427 C   0  0  0  0  0  0  0  0  0  0  0  0
    0.9428  144.8115   51.8719 H   0  0  0  0  0  0  0  0  0  0  0  0
   -0.7024  144.4807   51.2885 H   0  0  0  0  0  0  0  0  0  0  0  0
    0.6469  144.5447   50.1296 H   0  0  0  0  0  0  0  0  0  0  0  0
    3.3906  143.3244   55.8959 C   0  0  0  0  0  0  0  0  0  0  0  0
    3.2216  141.9476   56.2405 C   0  0  0  0  0  0  0  0  0  0  0  0
    3.0888  140.8106   56.4441 N   0  0  0  0  0  0  0  0  0  0  0  0
    3.7707  144.2496   56.8527 C   0  0  0  0  0  0  0  0  0  0  0  0
    3.9897  143.8622   58.1443 N   0  0  0  0  0  0  0  0  0  0  0  0
    4.1271  142.8697   58.3194 H   0  0  0  0  0  0  0  0  0  0  0  0
    4.5000  144.5045   58.7425 H   0  0  0  0  0  0  0  0  0  0  0  0
    3.9568  145.5668   56.5124 C   0  0  0  0  0  0  0  0  0  0  0  0
    4.2982  146.2948   57.2326 H   0  0  0  0  0  0  0  0  0  0  0  0
    1.8881  149.2275   52.6642 C   0  0  0  0  0  0  0  0  0  0  0  0
    2.7298  148.3744   51.9888 O   0  0  0  0  0  0  0  0  0  0  0  0
    2.0996  147.3125   51.2640 C   0  0  0  0  0  0  0  0  0  0  0  0
    1.5557  147.7014   50.3972 H   0  0  0  0  0  0  0  0  0  0  0  0
    2.8680  146.6165   50.9124 H   0  0  0  0  0  0  0  0  0  0  0  0
    1.4044  146.7653   51.9110 H   0  0  0  0  0  0  0  0  0  0  0  0
  1  2  1  0
  2  3  2  0
  3  4  1  0
  3  5  1  0
  5  6  1  0
  6  7  1  0
  7  8  1  0
  7  9  1  0
  7 10  1  0
  5 11  2  0
 11 12  1  0
 11 13  1  0
 13 14  1  0
 14 15  1  0
 14 16  1  0
 14 17  1  0
 17 18  2  0
 17 19  1  0
 19 20  1  0
 19 21  1  0
 21 22  2  0
 22 23  1  0
 23 24  1  0
 24 25  2  0
 24 26  1  0
 26 27  1  0
 26 28  1  0
 28 29  1  0
 28 30  1  0
 28 31  1  0
 31 32  1  0
 31 33  1  0
 31 34  1  0
 34 35  1  0
 34 36  1  0
 34 37  1  0
 23 38  2  0
 38 39  1  0
 39 40  3  0
 38 41  1  0
 41 42  1  0
 42 43  1  0
 42 44  1  0
 41 45  2  0
 45 46  1  0
 13 47  2  0
 47 48  1  0
 48 49  1  0
 49 50  1  0
 49 51  1  0
 49 52  1  0
 47  2  1  0
 45 21  1  0
M  END
>  <score>  (168) 
7.0545

$$$$

     RDKit          3D

 46 48  0  0  0  0  0  0  0  0999 V2000
    0.3064  149.2040   51.2531 H   0  0  0  0  0  0  0  0  0  0  0  0
    0.6612  149.6086   52.1970 C   0  0  0  0  0  0  0  0  0  0  0  0
   -0.1426  150.5028   52.9359 C   0  0  0  0  0  0  0  0  0  0  0  0
   -1.8691  150.9838   52.2748 Br  0  0  0  0  0  0  0  0  0  0  0  0
    0.3358  151.0602   54.1337 C   0  0  0  0  0  0  0  0  0  0  0  0
   -0.3798  151.9760   54.8621 O   0  0  0  0  0  0  0  0  0  0  0  0
   -1.4273  151.4046   55.6504 C   0  0  0  0  0  0  0  0  0  0  0  0
   -2.1535  150.8752   55.0259 H   0  0  0  0  0  0  0  0  0  0  0  0
   -1.9446  152.2007   56.1947 H   0  0  0  0  0  0  0  0  0  0  0  0
   -1.0145  150.7042   56.3772 H   0  0  0  0  0  0  0  0  0  0  0  0
    1.5999  150.6907   54.5751 C   0  0  0  0  0  0  0  0  0  0  0  0
    1.9945  151.1423   55.4759 H   0  0  0  0  0  0  0  0  0  0  0  0
    2.3852  149.7883   53.8576 C   0  0  0  0  0  0  0  0  0  0  0  0
    3.7306  149.4756   54.3986 C   0  0  0  0  0  0  0  0  0  0  0  0
    4.0041  150.3516   54.9709 H   0  0  0  0  0  0  0  0  0  0  0  0
    4.4205  149.3544   53.5611 H   0  0  0  0  0  0  0  0  0  0  0  0
    3.7505  148.2178   55.2710 C   0  0  0  0  0  0  0  0  0  0  0  0
    3.8516  148.2825   56.4858 O   0  0  0  0  0  0  0  0  0  0  0  0
    3.7117  147.0023   54.6516 N   0  0  0  0  0  0  0  0  0  0  0  0
    3.5290  146.9687   53.6609 H   0  0  0  0  0  0  0  0  0  0  0  0
    3.5322  145.8050   55.2434 C   0  0  0  0  0  0  0  0  0  0  0  0
    3.0221  144.9755   54.3566 N   0  0  0  0  0  0  0  0  0  0  0  0
    2.8852  143.6865   54.6763 C   0  0  0  0  0  0  0  0  0  0  0  0
    2.3464  142.7555   53.6067 C   0  0  0  0  0  0  0  0  0  0  0  0
    1.3121  142.4608   53.8098 H   0  0  0  0  0  0  0  0  0  0  0  0
    2.7540  142.9359   52.1344 C   0  0  0  0  0  0  0  0  0  0  0  0
    2.0113  142.7457   51.3509 H   0  0  0  0  0  0  0  0  0  0  0  0
    3.4473  143.7509   51.8945 H   0  0  0  0  0  0  0  0  0  0  0  0
    3.2682  141.7308   52.9268 C   0  0  0  0  0  0  0  0  0  0  0  0
    4.3204  141.7051   53.2223 H   0  0  0  0  0  0  0  0  0  0  0  0
    2.8638  140.7459   52.6700 H   0  0  0  0  0  0  0  0  0  0  0  0
    3.2379  143.2094   55.9299 C   0  0  0  0  0  0  0  0  0  0  0  0
    3.1254  141.8237   56.2462 C   0  0  0  0  0  0  0  0  0  0  0  0
    3.0392  140.6811   56.4518 N   0  0  0  0  0  0  0  0  0  0  0  0
    3.7418  144.1170   56.8279 C   0  0  0  0  0  0  0  0  0  0  0  0
    4.1633  143.7198   58.0406 N   0  0  0  0  0  0  0  0  0  0  0  0
    4.5070  144.4229   58.6885 H   0  0  0  0  0  0  0  0  0  0  0  0
    4.0645  142.7446   58.3122 H   0  0  0  0  0  0  0  0  0  0  0  0
    3.8973  145.4367   56.5126 C   0  0  0  0  0  0  0  0  0  0  0  0
    4.3260  146.1306   57.2220 H   0  0  0  0  0  0  0  0  0  0  0  0
    1.9376  149.2400   52.6501 C   0  0  0  0  0  0  0  0  0  0  0  0
    2.7761  148.4020   51.9473 O   0  0  0  0  0  0  0  0  0  0  0  0
    2.1664  147.2939   51.2805 C   0  0  0  0  0  0  0  0  0  0  0  0
    2.9507  146.5941   50.9721 H   0  0  0  0  0  0  0  0  0  0  0  0
    1.4765  146.7681   51.9494 H   0  0  0  0  0  0  0  0  0  0  0  0
    1.6248  147.6324   50.3930 H   0  0  0  0  0  0  0  0  0  0  0  0
  1  2  1  0
  2  3  2  0
  3  4  1  0
  3  5  1  0
  5  6  1  0
  6  7  1  0
  7  8  1  0
  7  9  1  0
  7 10  1  0
  5 11  2  0
 11 12  1  0
 11 13  1  0
 13 14  1  0
 14 15  1  0
 14 16  1  0
 14 17  1  0
 17 18  2  0
 17 19  1  0
 19 20  1  0
 19 21  1  0
 21 22  2  0
 22 23  1  0
 23 24  1  0
 24 25  1  0
 24 26  1  0
 26 27  1  0
 26 28  1  0
 26 29  1  0
 29 30  1  0
 29 31  1  0
 23 32  2  0
 32 33  1  0
 33 34  3  0
 32 35  1  0
 35 36  1  0
 36 37  1  0
 36 38  1  0
 35 39  2  0
 39 40  1  0
 13 41  2  0
 41 42  1  0
 42 43  1  0
 43 44  1  0
 43 45  1  0
 43 46  1  0
 41  2  1  0
 39 21  1  0
 29 24  1  0
M  END
>  <score>  (169) 
7.06013

$$$$

     RDKit          3D

 54 56  0  0  0  0  0  0  0  0999 V2000
    0.3069  149.2013   51.2517 H   0  0  0  0  0  0  0  0  0  0  0  0
    0.6578  149.6052   52.1957 C   0  0  0  0  0  0  0  0  0  0  0  0
   -0.1448  150.4999   52.9345 C   0  0  0  0  0  0  0  0  0  0  0  0
   -1.8716  150.9848   52.2761 Br  0  0  0  0  0  0  0  0  0  0  0  0
    0.3324  151.0587   54.1321 C   0  0  0  0  0  0  0  0  0  0  0  0
   -0.3800  151.9766   54.8591 O   0  0  0  0  0  0  0  0  0  0  0  0
   -1.4266  151.4041   55.6475 C   0  0  0  0  0  0  0  0  0  0  0  0
   -1.0130  150.7022   56.3736 H   0  0  0  0  0  0  0  0  0  0  0  0
   -1.9426  152.2015   56.1916 H   0  0  0  0  0  0  0  0  0  0  0  0
   -2.1530  150.8753   55.0214 H   0  0  0  0  0  0  0  0  0  0  0  0
    1.5951  150.6912   54.5751 C   0  0  0  0  0  0  0  0  0  0  0  0
    1.9918  151.1431   55.4768 H   0  0  0  0  0  0  0  0  0  0  0  0
    2.3794  149.7889   53.8559 C   0  0  0  0  0  0  0  0  0  0  0  0
    3.7280  149.4932   54.3986 C   0  0  0  0  0  0  0  0  0  0  0  0
    4.4178  149.3654   53.5614 H   0  0  0  0  0  0  0  0  0  0  0  0
    3.9956  150.3716   54.9693 H   0  0  0  0  0  0  0  0  0  0  0  0
    3.7532  148.2495   55.2852 C   0  0  0  0  0  0  0  0  0  0  0  0
    3.8562  148.3161   56.4987 O   0  0  0  0  0  0  0  0  0  0  0  0
    3.7436  147.0357   54.6736 N   0  0  0  0  0  0  0  0  0  0  0  0
    3.5322  146.9826   53.6906 H   0  0  0  0  0  0  0  0  0  0  0  0
    3.6320  145.8410   55.2697 C   0  0  0  0  0  0  0  0  0  0  0  0
    3.2146  145.0164   54.3357 N   0  0  0  0  0  0  0  0  0  0  0  0
    2.9958  143.7178   54.6014 C   0  0  0  0  0  0  0  0  0  0  0  0
    2.3069  142.9033   53.5194 C   0  0  0  0  0  0  0  0  0  0  0  0
    1.2406  142.3528   53.7529 O   0  0  0  0  0  0  0  0  0  0  0  0
    2.6072  142.9945   52.1584 N   0  0  0  0  0  0  0  0  0  0  0  0
    3.9075  143.4652   51.7549 C   0  0  0  0  0  0  0  0  0  0  0  0
    3.9389  144.5606   51.7319 H   0  0  0  0  0  0  0  0  0  0  0  0
    4.5828  143.0874   52.5035 H   0  0  0  0  0  0  0  0  0  0  0  0
    4.3236  142.8766   50.4091 C   0  0  0  0  0  0  0  0  0  0  0  0
    5.2529  143.3225   50.0985 H   0  0  0  0  0  0  0  0  0  0  0  0
    4.5138  141.8058   50.5161 H   0  0  0  0  0  0  0  0  0  0  0  0
    3.3104  143.0911   49.4183 O   0  0  0  0  0  0  0  0  0  0  0  0
    2.1181  142.3862   49.7928 C   0  0  0  0  0  0  0  0  0  0  0  0
    2.3563  141.3204   49.8742 H   0  0  0  0  0  0  0  0  0  0  0  0
    1.3535  142.5109   49.0209 H   0  0  0  0  0  0  0  0  0  0  0  0
    1.5667  142.8919   51.1374 C   0  0  0  0  0  0  0  0  0  0  0  0
    1.1411  143.8917   51.0041 H   0  0  0  0  0  0  0  0  0  0  0  0
    0.7783  142.2133   51.4850 H   0  0  0  0  0  0  0  0  0  0  0  0
    3.3120  143.2380   55.8820 C   0  0  0  0  0  0  0  0  0  0  0  0
    3.1554  141.8592   56.2193 C   0  0  0  0  0  0  0  0  0  0  0  0
    3.0418  140.7279   56.4635 N   0  0  0  0  0  0  0  0  0  0  0  0
    3.7805  144.1399   56.8265 C   0  0  0  0  0  0  0  0  0  0  0  0
    4.1474  143.7325   58.0594 N   0  0  0  0  0  0  0  0  0  0  0  0
    4.5096  144.4239   58.7102 H   0  0  0  0  0  0  0  0  0  0  0  0
    4.0684  142.7499   58.3162 H   0  0  0  0  0  0  0  0  0  0  0  0
    3.9241  145.4742   56.5546 C   0  0  0  0  0  0  0  0  0  0  0  0
    4.3266  146.1591   57.2945 H   0  0  0  0  0  0  0  0  0  0  0  0
    1.9337  149.2380   52.6479 C   0  0  0  0  0  0  0  0  0  0  0  0
    2.7767  148.4022   51.9485 O   0  0  0  0  0  0  0  0  0  0  0  0
    2.1663  147.2955   51.2794 C   0  0  0  0  0  0  0  0  0  0  0  0
    2.9526  146.6168   50.9315 H   0  0  0  0  0  0  0  0  0  0  0  0
    1.5089  146.7441   51.9614 H   0  0  0  0  0  0  0  0  0  0  0  0
    1.5878  147.6401   50.4170 H   0  0  0  0  0  0  0  0  0  0  0  0
  1  2  1  0
  2  3  2  0
  3  4  1  0
  3  5  1  0
  5  6  1  0
  6  7  1  0
  7  8  1  0
  7  9  1  0
  7 10  1  0
  5 11  2  0
 11 12  1  0
 11 13  1  0
 13 14  1  0
 14 15  1  0
 14 16  1  0
 14 17  1  0
 17 18  2  0
 17 19  1  0
 19 20  1  0
 19 21  1  0
 21 22  2  0
 22 23  1  0
 23 24  1  0
 24 25  2  0
 24 26  1  0
 26 27  1  0
 27 28  1  0
 27 29  1  0
 27 30  1  0
 30 31  1  0
 30 32  1  0
 30 33  1  0
 33 34  1  0
 34 35  1  0
 34 36  1  0
 34 37  1  0
 37 38  1  0
 37 39  1  0
 23 40  2  0
 40 41  1  0
 41 42  3  0
 40 43  1  0
 43 44  1  0
 44 45  1  0
 44 46  1  0
 43 47  2  0
 47 48  1  0
 13 49  2  0
 49 50  1  0
 50 51  1  0
 51 52  1  0
 51 53  1  0
 51 54  1  0
 49  2  1  0
 47 21  1  0
 37 26  1  0
M  END
>  <score>  (170) 
7.06108

$$$$

     RDKit          3D

 52 54  0  0  0  0  0  0  0  0999 V2000
    2.4745  143.5257   50.5477 H   0  0  0  0  0  0  0  0  0  0  0  0
    1.6102  143.0889   50.4439 O   0  0  0  0  0  0  0  0  0  0  0  0
    1.2793  142.3317   51.6164 C   0  0  2  0  0  0  0  0  0  0  0  0
    0.3080  141.8451   51.4713 H   0  0  0  0  0  0  0  0  0  0  0  0
    1.2224  143.2069   52.8668 C   0  0  0  0  0  0  0  0  0  0  0  0
    1.2703  144.2682   52.6086 H   0  0  0  0  0  0  0  0  0  0  0  0
    0.2735  143.0288   53.3726 H   0  0  0  0  0  0  0  0  0  0  0  0
    2.3585  142.7903   53.7086 N   0  0  0  0  0  0  0  0  0  0  0  0
    2.9022  143.6606   54.6384 C   0  0  0  0  0  0  0  0  0  0  0  0
    3.0278  144.9213   54.2655 N   0  0  0  0  0  0  0  0  0  0  0  0
    3.5294  145.7488   55.1425 C   0  0  0  0  0  0  0  0  0  0  0  0
    3.6646  146.9311   54.5383 N   0  0  0  0  0  0  0  0  0  0  0  0
    3.3918  146.9227   53.5693 H   0  0  0  0  0  0  0  0  0  0  0  0
    3.7253  148.1186   55.1998 C   0  0  0  0  0  0  0  0  0  0  0  0
    3.8048  148.1507   56.4144 O   0  0  0  0  0  0  0  0  0  0  0  0
    3.6868  149.4220   54.4242 C   0  0  0  0  0  0  0  0  0  0  0  0
    3.9579  150.2130   55.1086 H   0  0  0  0  0  0  0  0  0  0  0  0
    4.4119  149.4017   53.6109 H   0  0  0  0  0  0  0  0  0  0  0  0
    2.3332  149.7506   53.8770 C   0  0  0  0  0  0  0  0  0  0  0  0
    1.5607  150.6707   54.5811 C   0  0  0  0  0  0  0  0  0  0  0  0
    1.9410  151.1275   55.4966 H   0  0  0  0  0  0  0  0  0  0  0  0
    0.3078  151.0317   54.0992 C   0  0  0  0  0  0  0  0  0  0  0  0
   -0.3827  151.9742   54.8037 O   0  0  0  0  0  0  0  0  0  0  0  0
   -1.4188  151.4050   55.6028 C   0  0  0  0  0  0  0  0  0  0  0  0
   -1.0049  150.6859   56.3137 H   0  0  0  0  0  0  0  0  0  0  0  0
   -2.1451  150.8873   54.9707 H   0  0  0  0  0  0  0  0  0  0  0  0
   -1.9309  152.1958   56.1601 H   0  0  0  0  0  0  0  0  0  0  0  0
   -0.1856  150.4709   52.9041 C   0  0  0  0  0  0  0  0  0  0  0  0
   -1.9195  150.9779   52.2641 Br  0  0  0  0  0  0  0  0  0  0  0  0
    0.6151  149.5693   52.1813 C   0  0  0  0  0  0  0  0  0  0  0  0
    0.2852  149.1702   51.2291 H   0  0  0  0  0  0  0  0  0  0  0  0
    1.8867  149.2134   52.6605 C   0  0  0  0  0  0  0  0  0  0  0  0
    2.7541  148.4042   51.9685 O   0  0  0  0  0  0  0  0  0  0  0  0
    2.1428  147.3141   51.2774 C   0  0  0  0  0  0  0  0  0  0  0  0
    1.4483  146.7923   51.9428 H   0  0  0  0  0  0  0  0  0  0  0  0
    2.9089  146.6032   50.9542 H   0  0  0  0  0  0  0  0  0  0  0  0
    1.5986  147.6649   50.3957 H   0  0  0  0  0  0  0  0  0  0  0  0
    3.8788  145.4258   56.4265 C   0  0  0  0  0  0  0  0  0  0  0  0
    4.2665  146.1395   57.1438 H   0  0  0  0  0  0  0  0  0  0  0  0
    3.7566  144.1152   56.7571 C   0  0  0  0  0  0  0  0  0  0  0  0
    4.1422  143.7552   57.9896 N   0  0  0  0  0  0  0  0  0  0  0  0
    4.0673  142.7842   58.2674 H   0  0  0  0  0  0  0  0  0  0  0  0
    4.4654  144.4704   58.6369 H   0  0  0  0  0  0  0  0  0  0  0  0
    3.2806  143.1898   55.8682 C   0  0  0  0  0  0  0  0  0  0  0  0
    3.1633  141.8006   56.1753 C   0  0  0  0  0  0  0  0  0  0  0  0
    3.0774  140.6677   56.4189 N   0  0  0  0  0  0  0  0  0  0  0  0
    3.2243  141.8171   53.0350 C   0  0  0  0  0  0  0  0  0  0  0  0
    3.5293  141.0056   53.7053 H   0  0  0  0  0  0  0  0  0  0  0  0
    4.1280  142.2873   52.6333 H   0  0  0  0  0  0  0  0  0  0  0  0
    2.3558  141.2882   51.9001 C   0  0  0  0  0  0  0  0  0  0  0  0
    1.8693  140.3677   52.2297 H   0  0  0  0  0  0  0  0  0  0  0  0
    2.9536  141.0746   51.0086 H   0  0  0  0  0  0  0  0  0  0  0  0
  1  2  1  0
  2  3  1  0
  3  4  1  6
  3  5  1  0
  5  6  1  0
  5  7  1  0
  5  8  1  0
  8  9  1  0
  9 10  2  0
 10 11  1  0
 11 12  1  0
 12 13  1  0
 12 14  1  0
 14 15  2  0
 14 16  1  0
 16 17  1  0
 16 18  1  0
 16 19  1  0
 19 20  2  0
 20 21  1  0
 20 22  1  0
 22 23  1  0
 23 24  1  0
 24 25  1  0
 24 26  1  0
 24 27  1  0
 22 28  2  0
 28 29  1  0
 28 30  1  0
 30 31  1  0
 30 32  2  0
 32 33  1  0
 33 34  1  0
 34 35  1  0
 34 36  1  0
 34 37  1  0
 11 38  2  0
 38 39  1  0
 38 40  1  0
 40 41  1  0
 41 42  1  0
 41 43  1  0
 40 44  2  0
 44 45  1  0
 45 46  3  0
  8 47  1  0
 47 48  1  0
 47 49  1  0
 47 50  1  0
 50 51  1  0
 50 52  1  0
 50  3  1  0
 44  9  1  0
 32 19  1  0
M  END
>  <score>  (171) 
7.06214

$$$$

     RDKit          3D

 53 55  0  0  0  0  0  0  0  0999 V2000
    0.2508  149.0532   51.2793 H   0  0  0  0  0  0  0  0  0  0  0  0
    0.6011  149.5356   52.1845 C   0  0  0  0  0  0  0  0  0  0  0  0
   -0.2263  150.4660   52.8295 C   0  0  0  0  0  0  0  0  0  0  0  0
   -1.9590  150.8455   52.1149 Br  0  0  0  0  0  0  0  0  0  0  0  0
    0.2068  151.0817   54.0139 C   0  0  0  0  0  0  0  0  0  0  0  0
   -0.5541  152.0068   54.6738 O   0  0  0  0  0  0  0  0  0  0  0  0
   -1.5300  151.3957   55.5206 C   0  0  0  0  0  0  0  0  0  0  0  0
   -2.0056  152.1560   56.1465 H   0  0  0  0  0  0  0  0  0  0  0  0
   -1.0653  150.6530   56.1766 H   0  0  0  0  0  0  0  0  0  0  0  0
   -2.3014  150.9039   54.9195 H   0  0  0  0  0  0  0  0  0  0  0  0
    1.4480  150.7426   54.5437 C   0  0  0  0  0  0  0  0  0  0  0  0
    1.7594  151.1852   55.4884 H   0  0  0  0  0  0  0  0  0  0  0  0
    2.2942  149.8454   53.8861 C   0  0  0  0  0  0  0  0  0  0  0  0
    3.6252  149.6063   54.5497 C   0  0  0  0  0  0  0  0  0  0  0  0
    4.4342  149.6250   53.8135 H   0  0  0  0  0  0  0  0  0  0  0  0
    3.7835  150.4039   55.2796 H   0  0  0  0  0  0  0  0  0  0  0  0
    3.6629  148.2740   55.2690 C   0  0  0  0  0  0  0  0  0  0  0  0
    3.7566  148.1993   56.4803 O   0  0  0  0  0  0  0  0  0  0  0  0
    3.7172  147.1673   54.4940 N   0  0  0  0  0  0  0  0  0  0  0  0
    3.5128  147.2602   53.5100 H   0  0  0  0  0  0  0  0  0  0  0  0
    3.6640  145.9141   54.9497 C   0  0  0  0  0  0  0  0  0  0  0  0
    3.3648  145.1279   53.9550 N   0  0  0  0  0  0  0  0  0  0  0  0
    3.2098  143.8326   54.1941 C   0  0  0  0  0  0  0  0  0  0  0  0
    2.8358  143.0432   52.9649 C   0  0  0  0  0  0  0  0  0  0  0  0
    3.0213  143.6832   52.0993 H   0  0  0  0  0  0  0  0  0  0  0  0
    3.7250  141.8090   52.7646 C   0  0  0  0  0  0  0  0  0  0  0  0
    4.7496  142.1111   52.5706 H   0  0  0  0  0  0  0  0  0  0  0  0
    3.7158  141.1610   53.6450 H   0  0  0  0  0  0  0  0  0  0  0  0
    3.2737  141.0638   51.5324 C   0  0  0  0  0  0  0  0  0  0  0  0
    3.3845  141.7137   50.6574 H   0  0  0  0  0  0  0  0  0  0  0  0
    3.9159  140.1892   51.3913 H   0  0  0  0  0  0  0  0  0  0  0  0
    1.9028  140.6731   51.7085 O   0  0  0  0  0  0  0  0  0  0  0  0
    0.9925  141.7815   51.7736 C   0  0  0  0  0  0  0  0  0  0  0  0
   -0.0458  141.4261   51.8629 H   0  0  0  0  0  0  0  0  0  0  0  0
    1.0630  142.3330   50.8359 H   0  0  0  0  0  0  0  0  0  0  0  0
    1.3325  142.7127   52.9415 C   0  0  0  0  0  0  0  0  0  0  0  0
    0.7401  143.6426   52.8638 H   0  0  0  0  0  0  0  0  0  0  0  0
    1.0761  142.2130   53.8767 H   0  0  0  0  0  0  0  0  0  0  0  0
    3.3332  143.3028   55.4730 C   0  0  0  0  0  0  0  0  0  0  0  0
    3.1707  141.9064   55.7196 C   0  0  0  0  0  0  0  0  0  0  0  0
    3.0676  140.7581   55.8785 N   0  0  0  0  0  0  0  0  0  0  0  0
    3.6437  144.1802   56.4820 C   0  0  0  0  0  0  0  0  0  0  0  0
    3.7993  143.7636   57.7499 N   0  0  0  0  0  0  0  0  0  0  0  0
    3.9935  142.7705   57.8701 H   0  0  0  0  0  0  0  0  0  0  0  0
    4.2573  144.4237   58.3666 H   0  0  0  0  0  0  0  0  0  0  0  0
    3.8225  145.5075   56.2391 C   0  0  0  0  0  0  0  0  0  0  0  0
    4.0894  146.2036   57.0192 H   0  0  0  0  0  0  0  0  0  0  0  0
    1.8759  149.2165   52.6876 C   0  0  0  0  0  0  0  0  0  0  0  0
    2.7024  148.3080   52.0567 O   0  0  0  0  0  0  0  0  0  0  0  0
    2.0539  147.3085   51.2450 C   0  0  0  0  0  0  0  0  0  0  0  0
    2.7959  146.6064   50.8493 H   0  0  0  0  0  0  0  0  0  0  0  0
    1.5226  147.7542   50.3957 H   0  0  0  0  0  0  0  0  0  0  0  0
    1.3369  146.7403   51.8473 H   0  0  0  0  0  0  0  0  0  0  0  0
  1  2  1  0
  2  3  2  0
  3  4  1  0
  3  5  1  0
  5  6  1  0
  6  7  1  0
  7  8  1  0
  7  9  1  0
  7 10  1  0
  5 11  2  0
 11 12  1  0
 11 13  1  0
 13 14  1  0
 14 15  1  0
 14 16  1  0
 14 17  1  0
 17 18  2  0
 17 19  1  0
 19 20  1  0
 19 21  1  0
 21 22  2  0
 22 23  1  0
 23 24  1  0
 24 25  1  0
 24 26  1  0
 26 27  1  0
 26 28  1  0
 26 29  1  0
 29 30  1  0
 29 31  1  0
 29 32  1  0
 32 33  1  0
 33 34  1  0
 33 35  1  0
 33 36  1  0
 36 37  1  0
 36 38  1  0
 23 39  2  0
 39 40  1  0
 40 41  3  0
 39 42  1  0
 42 43  1  0
 43 44  1  0
 43 45  1  0
 42 46  2  0
 46 47  1  0
 13 48  2  0
 48 49  1  0
 49 50  1  0
 50 51  1  0
 50 52  1  0
 50 53  1  0
 48  2  1  0
 46 21  1  0
 36 24  1  0
M  END
>  <score>  (172) 
7.06259

$$$$

     RDKit          3D

 51 53  0  0  0  0  0  0  0  0999 V2000
    0.0755  141.2934   52.2320 H   0  0  0  0  0  0  0  0  0  0  0  0
    1.0224  141.7991   52.0933 C   0  0  0  0  0  0  0  0  0  0  0  0
    1.5226  141.8592   50.8566 N   0  0  0  0  0  0  0  0  0  0  0  0
    2.7083  142.4548   50.6821 C   0  0  0  0  0  0  0  0  0  0  0  0
    3.3241  142.3223   49.3208 C   0  0  0  0  0  0  0  0  0  0  0  0
    3.2117  143.2574   48.7600 H   0  0  0  0  0  0  0  0  0  0  0  0
    4.3796  142.0659   49.4290 H   0  0  0  0  0  0  0  0  0  0  0  0
    2.8541  141.5040   48.7585 H   0  0  0  0  0  0  0  0  0  0  0  0
    3.3824  143.1299   51.7321 C   0  0  0  0  0  0  0  0  0  0  0  0
    4.2923  143.6868   51.5140 H   0  0  0  0  0  0  0  0  0  0  0  0
    2.8841  143.0544   53.0563 C   0  0  0  0  0  0  0  0  0  0  0  0
    3.4422  143.8069   54.2326 C   0  0  0  0  0  0  0  0  0  0  0  0
    3.6792  145.0961   53.9919 N   0  0  0  0  0  0  0  0  0  0  0  0
    3.8722  145.9072   54.9936 C   0  0  0  0  0  0  0  0  0  0  0  0
    3.8479  147.1610   54.5226 N   0  0  0  0  0  0  0  0  0  0  0  0
    3.6779  147.2240   53.5318 H   0  0  0  0  0  0  0  0  0  0  0  0
    3.7085  148.2844   55.2720 C   0  0  0  0  0  0  0  0  0  0  0  0
    3.7902  148.2345   56.4853 O   0  0  0  0  0  0  0  0  0  0  0  0
    3.6337  149.6133   54.5395 C   0  0  0  0  0  0  0  0  0  0  0  0
    4.4250  149.6303   53.7913 H   0  0  0  0  0  0  0  0  0  0  0  0
    3.7992  150.4400   55.2333 H   0  0  0  0  0  0  0  0  0  0  0  0
    2.2986  149.8428   53.8888 C   0  0  0  0  0  0  0  0  0  0  0  0
    1.4545  150.7381   54.5468 C   0  0  0  0  0  0  0  0  0  0  0  0
    1.7678  151.1813   55.4875 H   0  0  0  0  0  0  0  0  0  0  0  0
    0.2147  151.0840   54.0181 C   0  0  0  0  0  0  0  0  0  0  0  0
   -0.5478  152.0065   54.6816 O   0  0  0  0  0  0  0  0  0  0  0  0
   -1.5235  151.3988   55.5310 C   0  0  0  0  0  0  0  0  0  0  0  0
   -2.2911  150.9015   54.9326 H   0  0  0  0  0  0  0  0  0  0  0  0
   -1.0574  150.6607   56.1888 H   0  0  0  0  0  0  0  0  0  0  0  0
   -2.0057  152.1589   56.1519 H   0  0  0  0  0  0  0  0  0  0  0  0
   -0.2248  150.4663   52.8367 C   0  0  0  0  0  0  0  0  0  0  0  0
   -1.9600  150.8524   52.1263 Br  0  0  0  0  0  0  0  0  0  0  0  0
    0.6006  149.5407   52.1823 C   0  0  0  0  0  0  0  0  0  0  0  0
    0.2396  149.0576   51.2784 H   0  0  0  0  0  0  0  0  0  0  0  0
    1.8783  149.2262   52.6857 C   0  0  0  0  0  0  0  0  0  0  0  0
    2.7051  148.3278   52.0456 O   0  0  0  0  0  0  0  0  0  0  0  0
    2.0646  147.3110   51.2499 C   0  0  0  0  0  0  0  0  0  0  0  0
    1.5292  147.7392   50.3965 H   0  0  0  0  0  0  0  0  0  0  0  0
    1.3507  146.7478   51.8566 H   0  0  0  0  0  0  0  0  0  0  0  0
    2.8092  146.6052   50.8654 H   0  0  0  0  0  0  0  0  0  0  0  0
    3.9471  145.5219   56.2927 C   0  0  0  0  0  0  0  0  0  0  0  0
    4.1257  146.2534   57.0593 H   0  0  0  0  0  0  0  0  0  0  0  0
    3.7724  144.1985   56.5524 C   0  0  0  0  0  0  0  0  0  0  0  0
    3.8651  143.8274   57.8461 N   0  0  0  0  0  0  0  0  0  0  0  0
    4.2915  144.5169   58.4678 H   0  0  0  0  0  0  0  0  0  0  0  0
    4.0188  142.8359   58.0150 H   0  0  0  0  0  0  0  0  0  0  0  0
    3.4877  143.3004   55.5421 C   0  0  0  0  0  0  0  0  0  0  0  0
    3.2124  141.9289   55.8342 C   0  0  0  0  0  0  0  0  0  0  0  0
    3.0077  140.8102   56.0792 N   0  0  0  0  0  0  0  0  0  0  0  0
    1.6996  142.3316   53.1964 C   0  0  0  0  0  0  0  0  0  0  0  0
    1.2900  142.2224   54.1872 H   0  0  0  0  0  0  0  0  0  0  0  0
  1  2  1  0
  2  3  2  0
  3  4  1  0
  4  5  1  0
  5  6  1  0
  5  7  1  0
  5  8  1  0
  4  9  2  0
  9 10  1  0
  9 11  1  0
 11 12  1  0
 12 13  2  0
 13 14  1  0
 14 15  1  0
 15 16  1  0
 15 17  1  0
 17 18  2  0
 17 19  1  0
 19 20  1  0
 19 21  1  0
 19 22  1  0
 22 23  2  0
 23 24  1  0
 23 25  1  0
 25 26  1  0
 26 27  1  0
 27 28  1  0
 27 29  1  0
 27 30  1  0
 25 31  2  0
 31 32  1  0
 31 33  1  0
 33 34  1  0
 33 35  2  0
 35 36  1  0
 36 37  1  0
 37 38  1  0
 37 39  1  0
 37 40  1  0
 14 41  2  0
 41 42  1  0
 41 43  1  0
 43 44  1  0
 44 45  1  0
 44 46  1  0
 43 47  2  0
 47 48  1  0
 48 49  3  0
 11 50  2  0
 50 51  1  0
 50  2  1  0
 47 12  1  0
 35 22  1  0
M  END
>  <score>  (173) 
7.06388

$$$$

     RDKit          3D

 52 54  0  0  0  0  0  0  0  0999 V2000
    0.0273  141.3194   52.2620 H   0  0  0  0  0  0  0  0  0  0  0  0
    1.0043  141.7729   52.1380 C   0  0  0  0  0  0  0  0  0  0  0  0
    1.5196  141.7834   50.9185 N   0  0  0  0  0  0  0  0  0  0  0  0
    2.6956  142.3988   50.7168 C   0  0  0  0  0  0  0  0  0  0  0  0
    3.2008  142.3779   49.4394 O   0  0  0  0  0  0  0  0  0  0  0  0
    2.5232  141.4511   48.5564 C   0  0  0  0  0  0  0  0  0  0  0  0
    2.6092  140.4282   48.9400 H   0  0  0  0  0  0  0  0  0  0  0  0
    1.4515  141.6752   48.4893 H   0  0  0  0  0  0  0  0  0  0  0  0
    2.9427  141.4862   47.5468 H   0  0  0  0  0  0  0  0  0  0  0  0
    3.3775  143.0783   51.7570 C   0  0  0  0  0  0  0  0  0  0  0  0
    4.3018  143.6051   51.5232 H   0  0  0  0  0  0  0  0  0  0  0  0
    2.8829  143.0208   53.0834 C   0  0  0  0  0  0  0  0  0  0  0  0
    3.4223  143.7859   54.2574 C   0  0  0  0  0  0  0  0  0  0  0  0
    3.6299  145.0772   54.0110 N   0  0  0  0  0  0  0  0  0  0  0  0
    3.8420  145.8934   55.0082 C   0  0  0  0  0  0  0  0  0  0  0  0
    3.8254  147.1459   54.5258 N   0  0  0  0  0  0  0  0  0  0  0  0
    3.6211  147.2093   53.5370 H   0  0  0  0  0  0  0  0  0  0  0  0
    3.7141  148.2711   55.2739 C   0  0  0  0  0  0  0  0  0  0  0  0
    3.7921  148.2320   56.4913 O   0  0  0  0  0  0  0  0  0  0  0  0
    3.6440  149.5907   54.5236 C   0  0  0  0  0  0  0  0  0  0  0  0
    3.8309  150.4228   55.2023 H   0  0  0  0  0  0  0  0  0  0  0  0
    4.4256  149.5906   53.7646 H   0  0  0  0  0  0  0  0  0  0  0  0
    2.3058  149.8267   53.8831 C   0  0  0  0  0  0  0  0  0  0  0  0
    1.4715  150.7194   54.5524 C   0  0  0  0  0  0  0  0  0  0  0  0
    1.7943  151.1549   55.4931 H   0  0  0  0  0  0  0  0  0  0  0  0
    0.2339  151.0723   54.0334 C   0  0  0  0  0  0  0  0  0  0  0  0
   -0.5098  151.9999   54.7064 O   0  0  0  0  0  0  0  0  0  0  0  0
   -1.5003  151.4008   55.5411 C   0  0  0  0  0  0  0  0  0  0  0  0
   -2.2581  150.9002   54.9320 H   0  0  0  0  0  0  0  0  0  0  0  0
   -1.9887  152.1687   56.1498 H   0  0  0  0  0  0  0  0  0  0  0  0
   -1.0404  150.6648   56.2057 H   0  0  0  0  0  0  0  0  0  0  0  0
   -0.2174  150.4657   52.8527 C   0  0  0  0  0  0  0  0  0  0  0  0
   -1.9523  150.8756   52.1581 Br  0  0  0  0  0  0  0  0  0  0  0  0
    0.6028  149.5444   52.1858 C   0  0  0  0  0  0  0  0  0  0  0  0
    0.2380  149.0785   51.2769 H   0  0  0  0  0  0  0  0  0  0  0  0
    1.8832  149.2228   52.6768 C   0  0  0  0  0  0  0  0  0  0  0  0
    2.7185  148.3426   52.0236 O   0  0  0  0  0  0  0  0  0  0  0  0
    2.0770  147.3119   51.2543 C   0  0  0  0  0  0  0  0  0  0  0  0
    2.8296  146.6094   50.8842 H   0  0  0  0  0  0  0  0  0  0  0  0
    1.3664  146.7543   51.8719 H   0  0  0  0  0  0  0  0  0  0  0  0
    1.5393  147.7272   50.3964 H   0  0  0  0  0  0  0  0  0  0  0  0
    3.9415  145.5192   56.3177 C   0  0  0  0  0  0  0  0  0  0  0  0
    4.1378  146.2459   57.0945 H   0  0  0  0  0  0  0  0  0  0  0  0
    3.7564  144.1931   56.5785 C   0  0  0  0  0  0  0  0  0  0  0  0
    3.8681  143.8181   57.8684 N   0  0  0  0  0  0  0  0  0  0  0  0
    4.3218  144.4923   58.4821 H   0  0  0  0  0  0  0  0  0  0  0  0
    4.0285  142.8273   58.0260 H   0  0  0  0  0  0  0  0  0  0  0  0
    3.4664  143.2937   55.5685 C   0  0  0  0  0  0  0  0  0  0  0  0
    3.2034  141.9229   55.8645 C   0  0  0  0  0  0  0  0  0  0  0  0
    3.0000  140.8045   56.1140 N   0  0  0  0  0  0  0  0  0  0  0  0
    1.6861  142.3236   53.2218 C   0  0  0  0  0  0  0  0  0  0  0  0
    1.2642  142.2564   54.2049 H   0  0  0  0  0  0  0  0  0  0  0  0
  1  2  1  0
  2  3  2  0
  3  4  1  0
  4  5  1  0
  5  6  1  0
  6  7  1  0
  6  8  1  0
  6  9  1  0
  4 10  2  0
 10 11  1  0
 10 12  1  0
 12 13  1  0
 13 14  2  0
 14 15  1  0
 15 16  1  0
 16 17  1  0
 16 18  1  0
 18 19  2  0
 18 20  1  0
 20 21  1  0
 20 22  1  0
 20 23  1  0
 23 24  2  0
 24 25  1  0
 24 26  1  0
 26 27  1  0
 27 28  1  0
 28 29  1  0
 28 30  1  0
 28 31  1  0
 26 32  2  0
 32 33  1  0
 32 34  1  0
 34 35  1  0
 34 36  2  0
 36 37  1  0
 37 38  1  0
 38 39  1  0
 38 40  1  0
 38 41  1  0
 15 42  2  0
 42 43  1  0
 42 44  1  0
 44 45  1  0
 45 46  1  0
 45 47  1  0
 44 48  2  0
 48 49  1  0
 49 50  3  0
 12 51  2  0
 51 52  1  0
 51  2  1  0
 48 13  1  0
 36 23  1  0
M  END
>  <score>  (174) 
7.06402

$$$$

     RDKit          3D

 53 54  0  0  0  0  0  0  0  0999 V2000
    0.2930  149.1791   51.2323 H   0  0  0  0  0  0  0  0  0  0  0  0
    0.6297  149.5804   52.1839 C   0  0  0  0  0  0  0  0  0  0  0  0
   -0.1711  150.4809   52.9157 C   0  0  0  0  0  0  0  0  0  0  0  0
   -1.9043  150.9818   52.2716 Br  0  0  0  0  0  0  0  0  0  0  0  0
    0.3153  151.0420   54.1116 C   0  0  0  0  0  0  0  0  0  0  0  0
   -0.3820  151.9757   54.8243 O   0  0  0  0  0  0  0  0  0  0  0  0
   -1.4203  151.4035   55.6171 C   0  0  0  0  0  0  0  0  0  0  0  0
   -2.1457  150.8829   54.9859 H   0  0  0  0  0  0  0  0  0  0  0  0
   -1.9316  152.1983   56.1679 H   0  0  0  0  0  0  0  0  0  0  0  0
   -1.0055  150.6900   56.3321 H   0  0  0  0  0  0  0  0  0  0  0  0
    1.5696  150.6742   54.5806 C   0  0  0  0  0  0  0  0  0  0  0  0
    1.9598  151.1300   55.4872 H   0  0  0  0  0  0  0  0  0  0  0  0
    2.3472  149.7641   53.8717 C   0  0  0  0  0  0  0  0  0  0  0  0
    3.6985  149.4571   54.4196 C   0  0  0  0  0  0  0  0  0  0  0  0
    3.9695  150.2828   55.0624 H   0  0  0  0  0  0  0  0  0  0  0  0
    4.4084  149.4005   53.5964 H   0  0  0  0  0  0  0  0  0  0  0  0
    3.7383  148.1737   55.2305 C   0  0  0  0  0  0  0  0  0  0  0  0
    3.8206  148.2166   56.4470 O   0  0  0  0  0  0  0  0  0  0  0  0
    3.7147  146.9780   54.5822 N   0  0  0  0  0  0  0  0  0  0  0  0
    3.4491  146.9453   53.6095 H   0  0  0  0  0  0  0  0  0  0  0  0
    3.5748  145.7903   55.1795 C   0  0  0  0  0  0  0  0  0  0  0  0
    3.1053  144.9621   54.2750 N   0  0  0  0  0  0  0  0  0  0  0  0
    2.9336  143.6917   54.6128 C   0  0  0  0  0  0  0  0  0  0  0  0
    2.3805  142.7955   53.5575 C   0  0  0  0  0  0  0  0  0  0  0  0
    1.7604  142.0415   54.0367 H   0  0  0  0  0  0  0  0  0  0  0  0
    1.7623  143.3720   52.8671 H   0  0  0  0  0  0  0  0  0  0  0  0
    3.5482  142.1536   52.8195 C   0  0  0  0  0  0  0  0  0  0  0  0
    4.1727  142.9289   52.3647 H   0  0  0  0  0  0  0  0  0  0  0  0
    4.1507  141.6111   53.5504 H   0  0  0  0  0  0  0  0  0  0  0  0
    3.1668  141.2055   51.7621 N   0  0  0  0  0  0  0  0  0  0  0  0
    4.2861  140.2591   51.5401 C   0  0  0  0  0  0  0  0  0  0  0  0
    4.4018  139.6210   52.4339 H   0  0  0  0  0  0  0  0  0  0  0  0
    4.1079  139.6281   50.6685 H   0  0  0  0  0  0  0  0  0  0  0  0
    5.2100  140.8168   51.3355 H   0  0  0  0  0  0  0  0  0  0  0  0
    2.6028  141.8211   50.5365 C   0  0  0  0  0  0  0  0  0  0  0  0
    2.1876  141.0638   49.8603 H   0  0  0  0  0  0  0  0  0  0  0  0
    3.3830  142.3630   49.9861 H   0  0  0  0  0  0  0  0  0  0  0  0
    1.7946  142.5272   50.7750 H   0  0  0  0  0  0  0  0  0  0  0  0
    3.2689  143.2129   55.8699 C   0  0  0  0  0  0  0  0  0  0  0  0
    3.1446  141.8279   56.1903 C   0  0  0  0  0  0  0  0  0  0  0  0
    3.0611  140.6944   56.4420 N   0  0  0  0  0  0  0  0  0  0  0  0
    3.7446  144.1283   56.7793 C   0  0  0  0  0  0  0  0  0  0  0  0
    4.1260  143.7499   58.0140 N   0  0  0  0  0  0  0  0  0  0  0  0
    4.4815  144.4501   58.6582 H   0  0  0  0  0  0  0  0  0  0  0  0
    4.0677  142.7725   58.2813 H   0  0  0  0  0  0  0  0  0  0  0  0
    3.8909  145.4457   56.4672 C   0  0  0  0  0  0  0  0  0  0  0  0
    4.2801  146.1381   57.2027 H   0  0  0  0  0  0  0  0  0  0  0  0
    1.9042  149.2201   52.6573 C   0  0  0  0  0  0  0  0  0  0  0  0
    2.7620  148.4057   51.9566 O   0  0  0  0  0  0  0  0  0  0  0  0
    2.1513  147.3086   51.2785 C   0  0  0  0  0  0  0  0  0  0  0  0
    1.4602  146.7872   51.9493 H   0  0  0  0  0  0  0  0  0  0  0  0
    2.9253  146.6035   50.9595 H   0  0  0  0  0  0  0  0  0  0  0  0
    1.6060  147.6585   50.3970 H   0  0  0  0  0  0  0  0  0  0  0  0
  1  2  1  0
  2  3  2  0
  3  4  1  0
  3  5  1  0
  5  6  1  0
  6  7  1  0
  7  8  1  0
  7  9  1  0
  7 10  1  0
  5 11  2  0
 11 12  1  0
 11 13  1  0
 13 14  1  0
 14 15  1  0
 14 16  1  0
 14 17  1  0
 17 18  2  0
 17 19  1  0
 19 20  1  0
 19 21  1  0
 21 22  2  0
 22 23  1  0
 23 24  1  0
 24 25  1  0
 24 26  1  0
 24 27  1  0
 27 28  1  0
 27 29  1  0
 27 30  1  0
 30 31  1  0
 31 32  1  0
 31 33  1  0
 31 34  1  0
 30 35  1  0
 35 36  1  0
 35 37  1  0
 35 38  1  0
 23 39  2  0
 39 40  1  0
 40 41  3  0
 39 42  1  0
 42 43  1  0
 43 44  1  0
 43 45  1  0
 42 46  2  0
 46 47  1  0
 13 48  2  0
 48 49  1  0
 49 50  1  0
 50 51  1  0
 50 52  1  0
 50 53  1  0
 48  2  1  0
 46 21  1  0
M  END
>  <score>  (175) 
7.06602

$$$$

     RDKit          3D

 50 51  0  0  0  0  0  0  0  0999 V2000
    1.6897  140.6872   49.3998 H   0  0  0  0  0  0  0  0  0  0  0  0
    1.8217  141.6334   49.2044 O   0  0  0  0  0  0  0  0  0  0  0  0
    2.2545  142.3627   50.3707 C   0  0  0  0  0  0  0  0  0  0  0  0
    3.0779  141.8353   50.8651 H   0  0  0  0  0  0  0  0  0  0  0  0
    2.6287  143.3504   50.0740 H   0  0  0  0  0  0  0  0  0  0  0  0
    1.0891  142.5352   51.3500 C   0  0  0  0  0  0  0  0  0  0  0  0
    0.6997  141.5451   51.6140 H   0  0  0  0  0  0  0  0  0  0  0  0
    0.2950  143.0858   50.8439 H   0  0  0  0  0  0  0  0  0  0  0  0
    1.4770  143.2813   52.5532 N   0  0  0  0  0  0  0  0  0  0  0  0
    1.2437  144.2736   52.6010 H   0  0  0  0  0  0  0  0  0  0  0  0
    2.3322  142.7854   53.5418 C   0  0  0  0  0  0  0  0  0  0  0  0
    2.6197  141.5886   53.4731 O   0  0  0  0  0  0  0  0  0  0  0  0
    2.9021  143.6848   54.6369 C   0  0  0  0  0  0  0  0  0  0  0  0
    3.0599  145.0027   54.3736 N   0  0  0  0  0  0  0  0  0  0  0  0
    3.5611  145.8270   55.2707 C   0  0  0  0  0  0  0  0  0  0  0  0
    3.7253  147.0212   54.6724 N   0  0  0  0  0  0  0  0  0  0  0  0
    3.5388  146.9813   53.6825 H   0  0  0  0  0  0  0  0  0  0  0  0
    3.7546  148.2381   55.2817 C   0  0  0  0  0  0  0  0  0  0  0  0
    3.8552  148.3043   56.4953 O   0  0  0  0  0  0  0  0  0  0  0  0
    3.7327  149.4860   54.3964 C   0  0  0  0  0  0  0  0  0  0  0  0
    4.0021  150.3679   54.9624 H   0  0  0  0  0  0  0  0  0  0  0  0
    4.4222  149.3572   53.5588 H   0  0  0  0  0  0  0  0  0  0  0  0
    2.3864  149.7918   53.8554 C   0  0  0  0  0  0  0  0  0  0  0  0
    1.6004  150.6927   54.5742 C   0  0  0  0  0  0  0  0  0  0  0  0
    1.9952  151.1435   55.4758 H   0  0  0  0  0  0  0  0  0  0  0  0
    0.3358  151.0604   54.1341 C   0  0  0  0  0  0  0  0  0  0  0  0
   -0.3797  151.9757   54.8620 O   0  0  0  0  0  0  0  0  0  0  0  0
   -1.4274  151.4049   55.6510 C   0  0  0  0  0  0  0  0  0  0  0  0
   -2.1543  150.8748   55.0275 H   0  0  0  0  0  0  0  0  0  0  0  0
   -1.9453  152.2006   56.1959 H   0  0  0  0  0  0  0  0  0  0  0  0
   -1.0152  150.7049   56.3785 H   0  0  0  0  0  0  0  0  0  0  0  0
   -0.1415  150.5034   52.9369 C   0  0  0  0  0  0  0  0  0  0  0  0
   -1.8669  150.9836   52.2752 Br  0  0  0  0  0  0  0  0  0  0  0  0
    0.6623  149.6100   52.1984 C   0  0  0  0  0  0  0  0  0  0  0  0
    0.3081  149.2051   51.2555 H   0  0  0  0  0  0  0  0  0  0  0  0
    1.9386  149.2418   52.6495 C   0  0  0  0  0  0  0  0  0  0  0  0
    2.7765  148.4009   51.9500 O   0  0  0  0  0  0  0  0  0  0  0  0
    2.1664  147.2945   51.2804 C   0  0  0  0  0  0  0  0  0  0  0  0
    1.4647  146.7762   51.9426 H   0  0  0  0  0  0  0  0  0  0  0  0
    2.9486  146.5874   50.9841 H   0  0  0  0  0  0  0  0  0  0  0  0
    1.6373  147.6316   50.3849 H   0  0  0  0  0  0  0  0  0  0  0  0
    3.9134  145.4458   56.5353 C   0  0  0  0  0  0  0  0  0  0  0  0
    4.3304  146.1348   57.2554 H   0  0  0  0  0  0  0  0  0  0  0  0
    3.7676  144.1181   56.8264 C   0  0  0  0  0  0  0  0  0  0  0  0
    4.1558  143.7210   58.0524 N   0  0  0  0  0  0  0  0  0  0  0  0
    4.5101  144.4232   58.6948 H   0  0  0  0  0  0  0  0  0  0  0  0
    4.0718  142.7418   58.3187 H   0  0  0  0  0  0  0  0  0  0  0  0
    3.2789  143.2092   55.9044 C   0  0  0  0  0  0  0  0  0  0  0  0
    3.1533  141.8273   56.2400 C   0  0  0  0  0  0  0  0  0  0  0  0
    3.0401  140.6936   56.4815 N   0  0  0  0  0  0  0  0  0  0  0  0
  1  2  1  0
  2  3  1  0
  3  4  1  0
  3  5  1  0
  3  6  1  0
  6  7  1  0
  6  8  1  0
  6  9  1  0
  9 10  1  0
  9 11  1  0
 11 12  2  0
 11 13  1  0
 13 14  2  0
 14 15  1  0
 15 16  1  0
 16 17  1  0
 16 18  1  0
 18 19  2  0
 18 20  1  0
 20 21  1  0
 20 22  1  0
 20 23  1  0
 23 24  2  0
 24 25  1  0
 24 26  1  0
 26 27  1  0
 27 28  1  0
 28 29  1  0
 28 30  1  0
 28 31  1  0
 26 32  2  0
 32 33  1  0
 32 34  1  0
 34 35  1  0
 34 36  2  0
 36 37  1  0
 37 38  1  0
 38 39  1  0
 38 40  1  0
 38 41  1  0
 15 42  2  0
 42 43  1  0
 42 44  1  0
 44 45  1  0
 45 46  1  0
 45 47  1  0
 44 48  2  0
 48 49  1  0
 49 50  3  0
 48 13  1  0
 36 23  1  0
M  END
>  <score>  (176) 
7.06963

$$$$

     RDKit          3D

 47 49  0  0  0  0  0  0  0  0999 V2000
    0.3087  149.2009   51.2546 H   0  0  0  0  0  0  0  0  0  0  0  0
    0.6586  149.6064   52.1963 C   0  0  0  0  0  0  0  0  0  0  0  0
   -0.1451  150.4992   52.9346 C   0  0  0  0  0  0  0  0  0  0  0  0
   -1.8688  150.9843   52.2772 Br  0  0  0  0  0  0  0  0  0  0  0  0
    0.3322  151.0582   54.1314 C   0  0  0  0  0  0  0  0  0  0  0  0
   -0.3790  151.9769   54.8599 O   0  0  0  0  0  0  0  0  0  0  0  0
   -1.4267  151.4041   55.6477 C   0  0  0  0  0  0  0  0  0  0  0  0
   -1.9423  152.2017   56.1922 H   0  0  0  0  0  0  0  0  0  0  0  0
   -2.1537  150.8747   55.0220 H   0  0  0  0  0  0  0  0  0  0  0  0
   -1.0140  150.7024   56.3751 H   0  0  0  0  0  0  0  0  0  0  0  0
    1.5955  150.6926   54.5717 C   0  0  0  0  0  0  0  0  0  0  0  0
    1.9890  151.1473   55.4724 H   0  0  0  0  0  0  0  0  0  0  0  0
    2.3784  149.7890   53.8541 C   0  0  0  0  0  0  0  0  0  0  0  0
    3.7255  149.4909   54.3953 C   0  0  0  0  0  0  0  0  0  0  0  0
    3.9878  150.3732   54.9661 H   0  0  0  0  0  0  0  0  0  0  0  0
    4.4151  149.3652   53.5558 H   0  0  0  0  0  0  0  0  0  0  0  0
    3.7564  148.2435   55.2828 C   0  0  0  0  0  0  0  0  0  0  0  0
    3.8562  148.3015   56.4969 O   0  0  0  0  0  0  0  0  0  0  0  0
    3.7540  147.0253   54.6790 N   0  0  0  0  0  0  0  0  0  0  0  0
    3.5256  146.9650   53.6991 H   0  0  0  0  0  0  0  0  0  0  0  0
    3.5766  145.8473   55.2900 C   0  0  0  0  0  0  0  0  0  0  0  0
    3.0860  145.0512   54.3701 N   0  0  0  0  0  0  0  0  0  0  0  0
    2.9271  143.7431   54.6048 C   0  0  0  0  0  0  0  0  0  0  0  0
    2.4404  142.8873   53.4723 C   0  0  0  0  0  0  0  0  0  0  0  0
    1.8461  143.2901   52.3655 N   0  0  0  0  0  0  0  0  0  0  0  0
    1.6306  142.1239   51.6715 C   0  0  0  0  0  0  0  0  0  0  0  0
    1.0814  142.0642   50.2952 C   0  0  0  0  0  0  0  0  0  0  0  0
    1.8935  141.8464   49.6010 H   0  0  0  0  0  0  0  0  0  0  0  0
    0.3599  141.2560   50.2365 H   0  0  0  0  0  0  0  0  0  0  0  0
    0.6158  143.0129   50.0222 H   0  0  0  0  0  0  0  0  0  0  0  0
    2.0190  141.0492   52.2947 N   0  0  0  0  0  0  0  0  0  0  0  0
    2.5758  141.5290   53.4971 O   0  0  0  0  0  0  0  0  0  0  0  0
    3.2620  143.2391   55.8710 C   0  0  0  0  0  0  0  0  0  0  0  0
    3.1381  141.8539   56.2011 C   0  0  0  0  0  0  0  0  0  0  0  0
    3.0432  140.7246   56.4571 N   0  0  0  0  0  0  0  0  0  0  0  0
    3.7508  144.1267   56.8185 C   0  0  0  0  0  0  0  0  0  0  0  0
    4.1536  143.7204   58.0413 N   0  0  0  0  0  0  0  0  0  0  0  0
    4.0666  142.7406   58.3112 H   0  0  0  0  0  0  0  0  0  0  0  0
    4.5055  144.4263   58.6867 H   0  0  0  0  0  0  0  0  0  0  0  0
    3.9174  145.4595   56.5557 C   0  0  0  0  0  0  0  0  0  0  0  0
    4.3422  146.1414   57.2864 H   0  0  0  0  0  0  0  0  0  0  0  0
    1.9338  149.2412   52.6472 C   0  0  0  0  0  0  0  0  0  0  0  0
    2.7764  148.4029   51.9519 O   0  0  0  0  0  0  0  0  0  0  0  0
    2.1652  147.2965   51.2826 C   0  0  0  0  0  0  0  0  0  0  0  0
    1.4740  146.7685   51.9499 H   0  0  0  0  0  0  0  0  0  0  0  0
    1.6226  147.6361   50.3950 H   0  0  0  0  0  0  0  0  0  0  0  0
    2.9497  146.5969   50.9733 H   0  0  0  0  0  0  0  0  0  0  0  0
  1  2  1  0
  2  3  2  0
  3  4  1  0
  3  5  1  0
  5  6  1  0
  6  7  1  0
  7  8  1  0
  7  9  1  0
  7 10  1  0
  5 11  2  0
 11 12  1  0
 11 13  1  0
 13 14  1  0
 14 15  1  0
 14 16  1  0
 14 17  1  0
 17 18  2  0
 17 19  1  0
 19 20  1  0
 19 21  1  0
 21 22  2  0
 22 23  1  0
 23 24  1  0
 24 25  2  0
 25 26  1  0
 26 27  1  0
 27 28  1  0
 27 29  1  0
 27 30  1  0
 26 31  2  0
 31 32  1  0
 23 33  2  0
 33 34  1  0
 34 35  3  0
 33 36  1  0
 36 37  1  0
 37 38  1  0
 37 39  1  0
 36 40  2  0
 40 41  1  0
 13 42  2  0
 42 43  1  0
 43 44  1  0
 44 45  1  0
 44 46  1  0
 44 47  1  0
 42  2  1  0
 40 21  1  0
 32 24  1  0
M  END
>  <score>  (177) 
7.07166

$$$$

     RDKit          3D

 47 49  0  0  0  0  0  0  0  0999 V2000
    1.1345  141.5152   50.0267 H   0  0  0  0  0  0  0  0  0  0  0  0
    1.5136  142.0107   50.9106 C   0  0  0  0  0  0  0  0  0  0  0  0
    2.5856  142.8253   50.8192 N   0  0  0  0  0  0  0  0  0  0  0  0
    2.9886  143.3823   51.9760 C   0  0  0  0  0  0  0  0  0  0  0  0
    3.8017  144.1039   51.9858 H   0  0  0  0  0  0  0  0  0  0  0  0
    2.3602  143.1167   53.2046 C   0  0  0  0  0  0  0  0  0  0  0  0
    2.9058  143.8589   54.3427 C   0  0  0  0  0  0  0  0  0  0  0  0
    3.2036  145.1277   54.0595 N   0  0  0  0  0  0  0  0  0  0  0  0
    3.6697  145.8957   55.0015 C   0  0  0  0  0  0  0  0  0  0  0  0
    3.8408  147.1169   54.4864 N   0  0  0  0  0  0  0  0  0  0  0  0
    3.5530  147.1989   53.5219 H   0  0  0  0  0  0  0  0  0  0  0  0
    3.7600  148.2369   55.2360 C   0  0  0  0  0  0  0  0  0  0  0  0
    3.7855  148.1959   56.4548 O   0  0  0  0  0  0  0  0  0  0  0  0
    3.6798  149.5388   54.4770 C   0  0  0  0  0  0  0  0  0  0  0  0
    4.4459  149.5357   53.7013 H   0  0  0  0  0  0  0  0  0  0  0  0
    3.8882  150.3381   55.1732 H   0  0  0  0  0  0  0  0  0  0  0  0
    2.3296  149.8042   53.8735 C   0  0  0  0  0  0  0  0  0  0  0  0
    1.5082  150.6954   54.5609 C   0  0  0  0  0  0  0  0  0  0  0  0
    1.8450  151.1278   55.4972 H   0  0  0  0  0  0  0  0  0  0  0  0
    0.2627  151.0567   54.0635 C   0  0  0  0  0  0  0  0  0  0  0  0
   -0.4558  151.9941   54.7494 O   0  0  0  0  0  0  0  0  0  0  0  0
   -1.4646  151.4048   55.5657 C   0  0  0  0  0  0  0  0  0  0  0  0
   -1.0183  150.6771   56.2466 H   0  0  0  0  0  0  0  0  0  0  0  0
   -1.9654  152.1770   56.1569 H   0  0  0  0  0  0  0  0  0  0  0  0
   -2.2066  150.8962   54.9444 H   0  0  0  0  0  0  0  0  0  0  0  0
   -0.2056  150.4718   52.8776 C   0  0  0  0  0  0  0  0  0  0  0  0
   -1.9424  150.9165   52.1992 Br  0  0  0  0  0  0  0  0  0  0  0  0
    0.6082  149.5577   52.1901 C   0  0  0  0  0  0  0  0  0  0  0  0
    0.2448  149.1244   51.2654 H   0  0  0  0  0  0  0  0  0  0  0  0
    1.8907  149.2227   52.6685 C   0  0  0  0  0  0  0  0  0  0  0  0
    2.7337  148.3683   51.9957 O   0  0  0  0  0  0  0  0  0  0  0  0
    2.1023  147.3101   51.2635 C   0  0  0  0  0  0  0  0  0  0  0  0
    2.8653  146.6094   50.9112 H   0  0  0  0  0  0  0  0  0  0  0  0
    1.5604  147.6997   50.3961 H   0  0  0  0  0  0  0  0  0  0  0  0
    1.4024  146.7619   51.9033 H   0  0  0  0  0  0  0  0  0  0  0  0
    3.8910  145.4833   56.2847 C   0  0  0  0  0  0  0  0  0  0  0  0
    4.2678  146.1402   57.0474 H   0  0  0  0  0  0  0  0  0  0  0  0
    3.6289  144.1785   56.5697 C   0  0  0  0  0  0  0  0  0  0  0  0
    3.8655  143.7618   57.8328 N   0  0  0  0  0  0  0  0  0  0  0  0
    3.9889  142.7644   57.9770 H   0  0  0  0  0  0  0  0  0  0  0  0
    4.3848  144.4068   58.4220 H   0  0  0  0  0  0  0  0  0  0  0  0
    3.1489  143.3222   55.6046 C   0  0  0  0  0  0  0  0  0  0  0  0
    2.9998  141.9333   55.8752 C   0  0  0  0  0  0  0  0  0  0  0  0
    2.9527  140.7954   56.1205 N   0  0  0  0  0  0  0  0  0  0  0  0
    1.2739  142.3106   53.2847 N   0  0  0  0  0  0  0  0  0  0  0  0
    0.8476  141.7674   52.1272 C   0  0  0  0  0  0  0  0  0  0  0  0
   -0.0423  141.1404   52.1292 H   0  0  0  0  0  0  0  0  0  0  0  0
  1  2  1  0
  2  3  2  0
  3  4  1  0
  4  5  1  0
  4  6  2  0
  6  7  1  0
  7  8  2  0
  8  9  1  0
  9 10  1  0
 10 11  1  0
 10 12  1  0
 12 13  2  0
 12 14  1  0
 14 15  1  0
 14 16  1  0
 14 17  1  0
 17 18  2  0
 18 19  1  0
 18 20  1  0
 20 21  1  0
 21 22  1  0
 22 23  1  0
 22 24  1  0
 22 25  1  0
 20 26  2  0
 26 27  1  0
 26 28  1  0
 28 29  1  0
 28 30  2  0
 30 31  1  0
 31 32  1  0
 32 33  1  0
 32 34  1  0
 32 35  1  0
  9 36  2  0
 36 37  1  0
 36 38  1  0
 38 39  1  0
 39 40  1  0
 39 41  1  0
 38 42  2  0
 42 43  1  0
 43 44  3  0
  6 45  1  0
 45 46  2  0
 46 47  1  0
 46  2  1  0
 42  7  1  0
 30 17  1  0
M  END
>  <score>  (178) 
7.07177

$$$$

     RDKit          3D

 49 51  0  0  0  0  0  0  0  0999 V2000
    3.8610  141.2735   53.7216 H   0  0  0  0  0  0  0  0  0  0  0  0
    2.9720  141.6647   53.2273 C   0  0  0  0  0  0  0  0  0  0  0  0
    2.5379  141.0095   52.1683 N   0  0  0  0  0  0  0  0  0  0  0  0
    1.5119  141.5492   51.5692 C   0  0  0  0  0  0  0  0  0  0  0  0
    1.1456  140.9958   50.4462 N   0  0  0  0  0  0  0  0  0  0  0  0
    0.1428  141.0638   50.3893 H   0  0  0  0  0  0  0  0  0  0  0  0
    1.5888  140.0963   50.3595 H   0  0  0  0  0  0  0  0  0  0  0  0
    0.7586  142.5429   51.9377 N   0  0  0  0  0  0  0  0  0  0  0  0
    1.2054  143.2262   52.9687 C   0  0  0  0  0  0  0  0  0  0  0  0
    0.6534  144.1153   53.2742 H   0  0  0  0  0  0  0  0  0  0  0  0
    2.3381  142.8154   53.6279 C   0  0  0  0  0  0  0  0  0  0  0  0
    2.8718  143.6330   54.6240 C   0  0  0  0  0  0  0  0  0  0  0  0
    2.9867  144.8978   54.2623 N   0  0  0  0  0  0  0  0  0  0  0  0
    3.4920  145.7357   55.1328 C   0  0  0  0  0  0  0  0  0  0  0  0
    3.6428  146.9482   54.5594 N   0  0  0  0  0  0  0  0  0  0  0  0
    3.4432  146.9639   53.5709 H   0  0  0  0  0  0  0  0  0  0  0  0
    3.7273  148.1362   55.2124 C   0  0  0  0  0  0  0  0  0  0  0  0
    3.8128  148.1704   56.4277 O   0  0  0  0  0  0  0  0  0  0  0  0
    3.7020  149.4343   54.4144 C   0  0  0  0  0  0  0  0  0  0  0  0
    4.4209  149.3825   53.5952 H   0  0  0  0  0  0  0  0  0  0  0  0
    3.9705  150.2511   55.0689 H   0  0  0  0  0  0  0  0  0  0  0  0
    2.3531  149.7656   53.8685 C   0  0  0  0  0  0  0  0  0  0  0  0
    1.5740  150.6779   54.5762 C   0  0  0  0  0  0  0  0  0  0  0  0
    1.9539  151.1318   55.4884 H   0  0  0  0  0  0  0  0  0  0  0  0
    0.3176  151.0396   54.1086 C   0  0  0  0  0  0  0  0  0  0  0  0
   -0.3810  151.9730   54.8196 O   0  0  0  0  0  0  0  0  0  0  0  0
   -1.4221  151.4061   55.6169 C   0  0  0  0  0  0  0  0  0  0  0  0
   -1.0112  150.6939   56.3332 H   0  0  0  0  0  0  0  0  0  0  0  0
   -1.9384  152.1942   56.1738 H   0  0  0  0  0  0  0  0  0  0  0  0
   -2.1495  150.8839   54.9911 H   0  0  0  0  0  0  0  0  0  0  0  0
   -0.1709  150.4819   52.9147 C   0  0  0  0  0  0  0  0  0  0  0  0
   -1.9016  150.9774   52.2655 Br  0  0  0  0  0  0  0  0  0  0  0  0
    0.6311  149.5844   52.1896 C   0  0  0  0  0  0  0  0  0  0  0  0
    0.2920  149.1826   51.2429 H   0  0  0  0  0  0  0  0  0  0  0  0
    1.9034  149.2245   52.6586 C   0  0  0  0  0  0  0  0  0  0  0  0
    2.7601  148.4035   51.9659 O   0  0  0  0  0  0  0  0  0  0  0  0
    2.1508  147.3084   51.2784 C   0  0  0  0  0  0  0  0  0  0  0  0
    1.4601  146.7808   51.9409 H   0  0  0  0  0  0  0  0  0  0  0  0
    2.9204  146.6015   50.9555 H   0  0  0  0  0  0  0  0  0  0  0  0
    1.6048  147.6527   50.3968 H   0  0  0  0  0  0  0  0  0  0  0  0
    3.8574  145.3884   56.4058 C   0  0  0  0  0  0  0  0  0  0  0  0
    4.2570  146.0974   57.1121 H   0  0  0  0  0  0  0  0  0  0  0  0
    3.7413  144.0727   56.7355 C   0  0  0  0  0  0  0  0  0  0  0  0
    4.1286  143.7235   57.9715 N   0  0  0  0  0  0  0  0  0  0  0  0
    4.4598  144.4504   58.5977 H   0  0  0  0  0  0  0  0  0  0  0  0
    4.0614  142.7531   58.2648 H   0  0  0  0  0  0  0  0  0  0  0  0
    3.2645  143.1533   55.8467 C   0  0  0  0  0  0  0  0  0  0  0  0
    3.1508  141.7707   56.1755 C   0  0  0  0  0  0  0  0  0  0  0  0
    3.0601  140.6417   56.4315 N   0  0  0  0  0  0  0  0  0  0  0  0
  1  2  1  0
  2  3  2  0
  3  4  1  0
  4  5  1  0
  5  6  1  0
  5  7  1  0
  4  8  2  0
  8  9  1  0
  9 10  1  0
  9 11  2  0
 11 12  1  0
 12 13  2  0
 13 14  1  0
 14 15  1  0
 15 16  1  0
 15 17  1  0
 17 18  2  0
 17 19  1  0
 19 20  1  0
 19 21  1  0
 19 22  1  0
 22 23  2  0
 23 24  1  0
 23 25  1  0
 25 26  1  0
 26 27  1  0
 27 28  1  0
 27 29  1  0
 27 30  1  0
 25 31  2  0
 31 32  1  0
 31 33  1  0
 33 34  1  0
 33 35  2  0
 35 36  1  0
 36 37  1  0
 37 38  1  0
 37 39  1  0
 37 40  1  0
 14 41  2  0
 41 42  1  0
 41 43  1  0
 43 44  1  0
 44 45  1  0
 44 46  1  0
 43 47  2  0
 47 48  1  0
 48 49  3  0
 11  2  1  0
 47 12  1  0
 35 22  1  0
M  END
>  <score>  (179) 
7.07514

$$$$

     RDKit          3D

 56 58  0  0  0  0  0  0  0  0999 V2000
    0.2699  149.0413   51.2688 H   0  0  0  0  0  0  0  0  0  0  0  0
    0.6064  149.5232   52.1793 C   0  0  0  0  0  0  0  0  0  0  0  0
   -0.2230  150.4558   52.8218 C   0  0  0  0  0  0  0  0  0  0  0  0
   -1.9531  150.8334   52.0952 Br  0  0  0  0  0  0  0  0  0  0  0  0
    0.2054  151.0744   54.0070 C   0  0  0  0  0  0  0  0  0  0  0  0
   -0.5675  151.9940   54.6640 O   0  0  0  0  0  0  0  0  0  0  0  0
   -1.5473  151.3873   55.5091 C   0  0  0  0  0  0  0  0  0  0  0  0
   -1.0855  150.6395   56.1598 H   0  0  0  0  0  0  0  0  0  0  0  0
   -2.0104  152.1533   56.1374 H   0  0  0  0  0  0  0  0  0  0  0  0
   -2.3256  150.9033   54.9104 H   0  0  0  0  0  0  0  0  0  0  0  0
    1.4508  150.7363   54.5340 C   0  0  0  0  0  0  0  0  0  0  0  0
    1.7672  151.1992   55.4654 H   0  0  0  0  0  0  0  0  0  0  0  0
    2.2813  149.8067   53.8914 C   0  0  0  0  0  0  0  0  0  0  0  0
    3.5941  149.4910   54.5510 C   0  0  0  0  0  0  0  0  0  0  0  0
    3.7762  150.2506   55.3072 H   0  0  0  0  0  0  0  0  0  0  0  0
    4.4030  149.5321   53.8216 H   0  0  0  0  0  0  0  0  0  0  0  0
    3.6062  148.1291   55.2293 C   0  0  0  0  0  0  0  0  0  0  0  0
    3.7742  148.0563   56.4360 O   0  0  0  0  0  0  0  0  0  0  0  0
    3.5392  146.9948   54.4743 N   0  0  0  0  0  0  0  0  0  0  0  0
    3.3320  147.0530   53.4890 H   0  0  0  0  0  0  0  0  0  0  0  0
    3.5314  145.7438   54.9793 C   0  0  0  0  0  0  0  0  0  0  0  0
    3.1548  144.8565   54.0892 N   0  0  0  0  0  0  0  0  0  0  0  0
    3.0885  143.5614   54.4444 C   0  0  0  0  0  0  0  0  0  0  0  0
    2.5354  142.5908   53.4207 C   0  0  0  0  0  0  0  0  0  0  0  0
    1.9604  141.8632   53.9914 H   0  0  0  0  0  0  0  0  0  0  0  0
    1.8489  143.1224   52.7603 H   0  0  0  0  0  0  0  0  0  0  0  0
    3.5332  141.8658   52.5997 N   0  0  0  0  0  0  0  0  0  0  0  0
    3.1833  140.4843   52.2513 C   0  0  0  0  0  0  0  0  0  0  0  0
    2.4723  140.5171   51.4219 H   0  0  0  0  0  0  0  0  0  0  0  0
    2.6990  139.9772   53.0905 H   0  0  0  0  0  0  0  0  0  0  0  0
    4.4725  139.7208   51.8578 C   0  0  0  0  0  0  0  0  0  0  0  0
    5.1644  139.7748   52.7053 H   0  0  0  0  0  0  0  0  0  0  0  0
    4.3067  138.6657   51.6602 H   0  0  0  0  0  0  0  0  0  0  0  0
    5.0729  140.3204   50.6545 N   0  0  0  0  0  0  0  0  0  0  0  0
    5.9152  139.8094   50.3710 H   0  0  0  0  0  0  0  0  0  0  0  0
    5.4248  141.6985   51.0000 C   0  0  0  0  0  0  0  0  0  0  0  0
    5.9264  142.2040   50.1748 H   0  0  0  0  0  0  0  0  0  0  0  0
    6.1408  141.5805   51.8190 H   0  0  0  0  0  0  0  0  0  0  0  0
    4.1868  142.5313   51.4508 C   0  0  0  0  0  0  0  0  0  0  0  0
    4.4549  143.5579   51.7176 H   0  0  0  0  0  0  0  0  0  0  0  0
    3.4740  142.5835   50.6236 H   0  0  0  0  0  0  0  0  0  0  0  0
    3.3696  143.1467   55.7496 C   0  0  0  0  0  0  0  0  0  0  0  0
    3.2348  141.7903   56.1711 C   0  0  0  0  0  0  0  0  0  0  0  0
    3.1147  140.6800   56.5109 N   0  0  0  0  0  0  0  0  0  0  0  0
    3.7328  144.1242   56.6376 C   0  0  0  0  0  0  0  0  0  0  0  0
    3.9498  143.8907   57.9453 N   0  0  0  0  0  0  0  0  0  0  0  0
    4.1630  142.9364   58.2243 H   0  0  0  0  0  0  0  0  0  0  0  0
    4.3832  144.6591   58.4479 H   0  0  0  0  0  0  0  0  0  0  0  0
    3.8491  145.4216   56.2637 C   0  0  0  0  0  0  0  0  0  0  0  0
    4.1602  146.1545   56.9838 H   0  0  0  0  0  0  0  0  0  0  0  0
    1.8679  149.1854   52.6939 C   0  0  0  0  0  0  0  0  0  0  0  0
    2.6886  148.2690   52.0674 O   0  0  0  0  0  0  0  0  0  0  0  0
    2.0339  147.2985   51.2320 C   0  0  0  0  0  0  0  0  0  0  0  0
    1.3077  146.7265   51.8212 H   0  0  0  0  0  0  0  0  0  0  0  0
    1.5150  147.7775   50.3934 H   0  0  0  0  0  0  0  0  0  0  0  0
    2.7735  146.6019   50.8230 H   0  0  0  0  0  0  0  0  0  0  0  0
  1  2  1  0
  2  3  2  0
  3  4  1  0
  3  5  1  0
  5  6  1  0
  6  7  1  0
  7  8  1  0
  7  9  1  0
  7 10  1  0
  5 11  2  0
 11 12  1  0
 11 13  1  0
 13 14  1  0
 14 15  1  0
 14 16  1  0
 14 17  1  0
 17 18  2  0
 17 19  1  0
 19 20  1  0
 19 21  1  0
 21 22  2  0
 22 23  1  0
 23 24  1  0
 24 25  1  0
 24 26  1  0
 24 27  1  0
 27 28  1  0
 28 29  1  0
 28 30  1  0
 28 31  1  0
 31 32  1  0
 31 33  1  0
 31 34  1  0
 34 35  1  0
 34 36  1  0
 36 37  1  0
 36 38  1  0
 36 39  1  0
 39 40  1  0
 39 41  1  0
 23 42  2  0
 42 43  1  0
 43 44  3  0
 42 45  1  0
 45 46  1  0
 46 47  1  0
 46 48  1  0
 45 49  2  0
 49 50  1  0
 13 51  2  0
 51 52  1  0
 52 53  1  0
 53 54  1  0
 53 55  1  0
 53 56  1  0
 51  2  1  0
 49 21  1  0
 39 27  1  0
M  END
>  <score>  (180) 
7.07555

$$$$

     RDKit          3D

 52 53  0  0  0  0  0  0  0  0999 V2000
    0.2644  149.1527   51.2506 H   0  0  0  0  0  0  0  0  0  0  0  0
    0.6126  149.5679   52.1886 C   0  0  0  0  0  0  0  0  0  0  0  0
   -0.1956  150.4694   52.9022 C   0  0  0  0  0  0  0  0  0  0  0  0
   -1.9278  150.9509   52.2351 Br  0  0  0  0  0  0  0  0  0  0  0  0
    0.2925  151.0460   54.0842 C   0  0  0  0  0  0  0  0  0  0  0  0
   -0.4142  151.9867   54.7782 O   0  0  0  0  0  0  0  0  0  0  0  0
   -1.4368  151.4031   55.5815 C   0  0  0  0  0  0  0  0  0  0  0  0
   -1.0068  150.6841   56.2824 H   0  0  0  0  0  0  0  0  0  0  0  0
   -2.1716  150.8908   54.9530 H   0  0  0  0  0  0  0  0  0  0  0  0
   -1.9393  152.1858   56.1546 H   0  0  0  0  0  0  0  0  0  0  0  0
    1.5396  150.6670   54.5643 C   0  0  0  0  0  0  0  0  0  0  0  0
    1.8913  151.1131   55.4868 H   0  0  0  0  0  0  0  0  0  0  0  0
    2.3386  149.7625   53.8638 C   0  0  0  0  0  0  0  0  0  0  0  0
    3.6828  149.4330   54.4323 C   0  0  0  0  0  0  0  0  0  0  0  0
    4.4362  149.4332   53.6346 H   0  0  0  0  0  0  0  0  0  0  0  0
    3.8992  150.2188   55.1432 H   0  0  0  0  0  0  0  0  0  0  0  0
    3.7097  148.1216   55.2046 C   0  0  0  0  0  0  0  0  0  0  0  0
    3.8069  148.1227   56.4195 O   0  0  0  0  0  0  0  0  0  0  0  0
    3.6851  146.9441   54.5250 N   0  0  0  0  0  0  0  0  0  0  0  0
    3.3856  146.9663   53.5649 H   0  0  0  0  0  0  0  0  0  0  0  0
    3.5543  145.7436   55.1212 C   0  0  0  0  0  0  0  0  0  0  0  0
    3.0327  144.8751   54.2777 N   0  0  0  0  0  0  0  0  0  0  0  0
    2.8690  143.6218   54.7003 C   0  0  0  0  0  0  0  0  0  0  0  0
    2.1958  142.6049   53.8291 C   0  0  0  0  0  0  0  0  0  0  0  0
    1.3803  142.1730   54.3963 H   0  0  0  0  0  0  0  0  0  0  0  0
    2.9059  141.7950   53.6451 H   0  0  0  0  0  0  0  0  0  0  0  0
    1.6772  143.1664   52.5154 C   0  0  0  0  0  0  0  0  0  0  0  0
    1.1335  144.1111   52.6609 H   0  0  0  0  0  0  0  0  0  0  0  0
    1.0124  142.4407   52.0262 H   0  0  0  0  0  0  0  0  0  0  0  0
    2.9044  143.3653   51.7784 N   0  0  0  0  0  0  0  0  0  0  0  0
    3.7754  143.2274   52.2771 H   0  0  0  0  0  0  0  0  0  0  0  0
    3.0073  143.6222   50.4303 C   0  0  0  0  0  0  0  0  0  0  0  0
    2.0483  143.7190   49.6914 O   0  0  0  0  0  0  0  0  0  0  0  0
    4.3902  143.8593   49.8933 C   0  0  0  0  0  0  0  0  0  0  0  0
    4.7941  144.7535   50.3846 H   0  0  0  0  0  0  0  0  0  0  0  0
    5.0104  142.9864   50.1078 H   0  0  0  0  0  0  0  0  0  0  0  0
    4.3870  144.0129   48.8108 H   0  0  0  0  0  0  0  0  0  0  0  0
    3.2771  143.2152   55.9556 C   0  0  0  0  0  0  0  0  0  0  0  0
    3.1812  141.8412   56.3222 C   0  0  0  0  0  0  0  0  0  0  0  0
    3.0904  140.6956   56.4871 N   0  0  0  0  0  0  0  0  0  0  0  0
    3.7793  144.1515   56.8083 C   0  0  0  0  0  0  0  0  0  0  0  0
    4.1607  143.7921   58.0517 N   0  0  0  0  0  0  0  0  0  0  0  0
    4.4776  144.5105   58.6978 H   0  0  0  0  0  0  0  0  0  0  0  0
    4.0888  142.8131   58.3291 H   0  0  0  0  0  0  0  0  0  0  0  0
    3.9053  145.4492   56.4191 C   0  0  0  0  0  0  0  0  0  0  0  0
    4.2904  146.1861   57.1074 H   0  0  0  0  0  0  0  0  0  0  0  0
    1.8912  149.2187   52.6550 C   0  0  0  0  0  0  0  0  0  0  0  0
    2.7396  148.3801   51.9755 O   0  0  0  0  0  0  0  0  0  0  0  0
    2.1212  147.3046   51.2681 C   0  0  0  0  0  0  0  0  0  0  0  0
    2.8928  146.6013   50.9397 H   0  0  0  0  0  0  0  0  0  0  0  0
    1.5852  147.6748   50.3892 H   0  0  0  0  0  0  0  0  0  0  0  0
    1.4222  146.7733   51.9218 H   0  0  0  0  0  0  0  0  0  0  0  0
  1  2  1  0
  2  3  2  0
  3  4  1  0
  3  5  1  0
  5  6  1  0
  6  7  1  0
  7  8  1  0
  7  9  1  0
  7 10  1  0
  5 11  2  0
 11 12  1  0
 11 13  1  0
 13 14  1  0
 14 15  1  0
 14 16  1  0
 14 17  1  0
 17 18  2  0
 17 19  1  0
 19 20  1  0
 19 21  1  0
 21 22  2  0
 22 23  1  0
 23 24  1  0
 24 25  1  0
 24 26  1  0
 24 27  1  0
 27 28  1  0
 27 29  1  0
 27 30  1  0
 30 31  1  0
 30 32  1  0
 32 33  2  0
 32 34  1  0
 34 35  1  0
 34 36  1  0
 34 37  1  0
 23 38  2  0
 38 39  1  0
 39 40  3  0
 38 41  1  0
 41 42  1  0
 42 43  1  0
 42 44  1  0
 41 45  2  0
 45 46  1  0
 13 47  2  0
 47 48  1  0
 48 49  1  0
 49 50  1  0
 49 51  1  0
 49 52  1  0
 47  2  1  0
 45 21  1  0
M  END
>  <score>  (181) 
7.07588

$$$$

     RDKit          3D

 53 56  0  0  0  0  0  0  0  0999 V2000
    0.2635  149.0727   51.2613 H   0  0  0  0  0  0  0  0  0  0  0  0
    0.6133  149.5435   52.1750 C   0  0  0  0  0  0  0  0  0  0  0  0
   -0.2047  150.4694   52.8455 C   0  0  0  0  0  0  0  0  0  0  0  0
   -1.9377  150.8651   52.1361 Br  0  0  0  0  0  0  0  0  0  0  0  0
    0.2395  151.0742   54.0352 C   0  0  0  0  0  0  0  0  0  0  0  0
   -0.5216  151.9949   54.7076 O   0  0  0  0  0  0  0  0  0  0  0  0
   -1.5148  151.3911   55.5404 C   0  0  0  0  0  0  0  0  0  0  0  0
   -1.9919  152.1616   56.1509 H   0  0  0  0  0  0  0  0  0  0  0  0
   -2.2827  150.8998   54.9343 H   0  0  0  0  0  0  0  0  0  0  0  0
   -1.0650  150.6531   56.2105 H   0  0  0  0  0  0  0  0  0  0  0  0
    1.4876  150.7159   54.5482 C   0  0  0  0  0  0  0  0  0  0  0  0
    1.8186  151.1659   55.4825 H   0  0  0  0  0  0  0  0  0  0  0  0
    2.3059  149.7881   53.8824 C   0  0  0  0  0  0  0  0  0  0  0  0
    3.6289  149.4585   54.5194 C   0  0  0  0  0  0  0  0  0  0  0  0
    3.8291  150.2513   55.2390 H   0  0  0  0  0  0  0  0  0  0  0  0
    4.4189  149.4513   53.7614 H   0  0  0  0  0  0  0  0  0  0  0  0
    3.6369  148.1350   55.2774 C   0  0  0  0  0  0  0  0  0  0  0  0
    3.8041  148.1269   56.4846 O   0  0  0  0  0  0  0  0  0  0  0  0
    3.5900  146.9542   54.5899 N   0  0  0  0  0  0  0  0  0  0  0  0
    3.3776  146.9458   53.6044 H   0  0  0  0  0  0  0  0  0  0  0  0
    3.5894  145.7428   55.1749 C   0  0  0  0  0  0  0  0  0  0  0  0
    3.2127  144.8325   54.3176 N   0  0  0  0  0  0  0  0  0  0  0  0
    3.1770  143.5567   54.7034 C   0  0  0  0  0  0  0  0  0  0  0  0
    2.7943  142.6105   53.6617 C   0  0  0  0  0  0  0  0  0  0  0  0
    3.5741  141.4793   53.3603 C   0  0  0  0  0  0  0  0  0  0  0  0
    4.4747  141.2931   53.9395 H   0  0  0  0  0  0  0  0  0  0  0  0
    3.2471  140.6587   52.2687 C   0  0  0  0  0  0  0  0  0  0  0  0
    3.9130  139.8273   52.0351 H   0  0  0  0  0  0  0  0  0  0  0  0
    2.0952  140.9518   51.5060 C   0  0  0  0  0  0  0  0  0  0  0  0
    1.7595  140.4017   50.6399 H   0  0  0  0  0  0  0  0  0  0  0  0
    1.3313  142.0580   51.8257 C   0  0  0  0  0  0  0  0  0  0  0  0
    1.6961  142.8966   52.8503 C   0  0  0  0  0  0  0  0  0  0  0  0
    0.8012  144.0248   52.8025 C   0  0  0  0  0  0  0  0  0  0  0  0
    0.9009  144.8861   53.4476 H   0  0  0  0  0  0  0  0  0  0  0  0
   -0.0941  143.8144   51.7845 C   0  0  0  0  0  0  0  0  0  0  0  0
   -0.8754  144.4931   51.4661 H   0  0  0  0  0  0  0  0  0  0  0  0
    0.2053  142.5788   51.2300 N   0  0  0  0  0  0  0  0  0  0  0  0
   -0.2984  142.1333   50.4668 H   0  0  0  0  0  0  0  0  0  0  0  0
    3.4902  143.1630   55.9983 C   0  0  0  0  0  0  0  0  0  0  0  0
    3.3950  141.7956   56.3946 C   0  0  0  0  0  0  0  0  0  0  0  0
    3.2862  140.6774   56.7009 N   0  0  0  0  0  0  0  0  0  0  0  0
    3.8259  144.1652   56.8781 C   0  0  0  0  0  0  0  0  0  0  0  0
    4.0574  143.9293   58.1858 N   0  0  0  0  0  0  0  0  0  0  0  0
    4.2491  142.9691   58.4611 H   0  0  0  0  0  0  0  0  0  0  0  0
    4.4830  144.6886   58.7133 H   0  0  0  0  0  0  0  0  0  0  0  0
    3.9139  145.4607   56.4690 C   0  0  0  0  0  0  0  0  0  0  0  0
    4.2058  146.2260   57.1648 H   0  0  0  0  0  0  0  0  0  0  0  0
    1.8814  149.1986   52.6722 C   0  0  0  0  0  0  0  0  0  0  0  0
    2.7044  148.2963   52.0307 O   0  0  0  0  0  0  0  0  0  0  0  0
    2.0583  147.2866   51.2396 C   0  0  0  0  0  0  0  0  0  0  0  0
    2.8068  146.5832   50.8574 H   0  0  0  0  0  0  0  0  0  0  0  0
    1.3436  146.7304   51.8558 H   0  0  0  0  0  0  0  0  0  0  0  0
    1.5299  147.7242   50.3850 H   0  0  0  0  0  0  0  0  0  0  0  0
  1  2  1  0
  2  3  2  0
  3  4  1  0
  3  5  1  0
  5  6  1  0
  6  7  1  0
  7  8  1  0
  7  9  1  0
  7 10  1  0
  5 11  2  0
 11 12  1  0
 11 13  1  0
 13 14  1  0
 14 15  1  0
 14 16  1  0
 14 17  1  0
 17 18  2  0
 17 19  1  0
 19 20  1  0
 19 21  1  0
 21 22  2  0
 22 23  1  0
 23 24  1  0
 24 25  2  0
 25 26  1  0
 25 27  1  0
 27 28  1  0
 27 29  2  0
 29 30  1  0
 29 31  1  0
 31 32  2  0
 32 33  1  0
 33 34  1  0
 33 35  2  0
 35 36  1  0
 35 37  1  0
 37 38  1  0
 23 39  2  0
 39 40  1  0
 40 41  3  0
 39 42  1  0
 42 43  1  0
 43 44  1  0
 43 45  1  0
 42 46  2  0
 46 47  1  0
 13 48  2  0
 48 49  1  0
 49 50  1  0
 50 51  1  0
 50 52  1  0
 50 53  1  0
 48  2  1  0
 46 21  1  0
 32 24  1  0
 37 31  1  0
M  END
>  <score>  (182) 
7.08136

$$$$

     RDKit          3D

 43 44  0  0  0  0  0  0  0  0999 V2000
    0.2769  149.1616   51.2287 H   0  0  0  0  0  0  0  0  0  0  0  0
    0.6075  149.5675   52.1821 C   0  0  0  0  0  0  0  0  0  0  0  0
   -0.1974  150.4678   52.9036 C   0  0  0  0  0  0  0  0  0  0  0  0
   -1.9282  150.9722   52.2580 Br  0  0  0  0  0  0  0  0  0  0  0  0
    0.3020  151.0315   54.0897 C   0  0  0  0  0  0  0  0  0  0  0  0
   -0.3910  151.9777   54.7858 O   0  0  0  0  0  0  0  0  0  0  0  0
   -1.4202  151.4042   55.5872 C   0  0  0  0  0  0  0  0  0  0  0  0
   -2.1505  150.8900   54.9573 H   0  0  0  0  0  0  0  0  0  0  0  0
   -1.9280  152.1910   56.1523 H   0  0  0  0  0  0  0  0  0  0  0  0
   -1.0031  150.6830   56.2935 H   0  0  0  0  0  0  0  0  0  0  0  0
    1.5453  150.6577   54.5781 C   0  0  0  0  0  0  0  0  0  0  0  0
    1.9164  151.1122   55.4927 H   0  0  0  0  0  0  0  0  0  0  0  0
    2.3306  149.7464   53.8790 C   0  0  0  0  0  0  0  0  0  0  0  0
    3.6777  149.4222   54.4331 C   0  0  0  0  0  0  0  0  0  0  0  0
    4.4121  149.4248   53.6257 H   0  0  0  0  0  0  0  0  0  0  0  0
    3.9245  150.1990   55.1443 H   0  0  0  0  0  0  0  0  0  0  0  0
    3.7191  148.1063   55.1821 C   0  0  0  0  0  0  0  0  0  0  0  0
    3.8023  148.1151   56.3985 O   0  0  0  0  0  0  0  0  0  0  0  0
    3.7205  146.9271   54.5075 N   0  0  0  0  0  0  0  0  0  0  0  0
    3.4000  146.9296   53.5500 H   0  0  0  0  0  0  0  0  0  0  0  0
    3.6375  145.7190   55.0913 C   0  0  0  0  0  0  0  0  0  0  0  0
    3.1592  144.8598   54.2160 N   0  0  0  0  0  0  0  0  0  0  0  0
    2.9298  143.6224   54.6259 C   0  0  0  0  0  0  0  0  0  0  0  0
    2.0155  142.6078   53.5400 S   0  0  0  0  0  0  0  0  0  0  0  0
    3.5008  142.1907   52.5953 C   0  0  0  0  0  0  0  0  0  0  0  0
    3.0911  141.5177   51.4919 F   0  0  0  0  0  0  0  0  0  0  0  0
    4.2771  141.3519   53.3341 F   0  0  0  0  0  0  0  0  0  0  0  0
    4.1597  143.3196   52.2241 F   0  0  0  0  0  0  0  0  0  0  0  0
    3.3038  143.1840   55.8728 C   0  0  0  0  0  0  0  0  0  0  0  0
    3.1643  141.8129   56.2208 C   0  0  0  0  0  0  0  0  0  0  0  0
    3.0710  140.6831   56.4773 N   0  0  0  0  0  0  0  0  0  0  0  0
    3.7854  144.1131   56.7602 C   0  0  0  0  0  0  0  0  0  0  0  0
    4.0986  143.7818   58.0229 N   0  0  0  0  0  0  0  0  0  0  0  0
    4.4746  144.4969   58.6448 H   0  0  0  0  0  0  0  0  0  0  0  0
    4.0932  142.7981   58.2850 H   0  0  0  0  0  0  0  0  0  0  0  0
    3.9211  145.4176   56.4042 C   0  0  0  0  0  0  0  0  0  0  0  0
    4.2353  146.1476   57.1364 H   0  0  0  0  0  0  0  0  0  0  0  0
    1.8799  149.2138   52.6638 C   0  0  0  0  0  0  0  0  0  0  0  0
    2.7441  148.4017   51.9686 O   0  0  0  0  0  0  0  0  0  0  0  0
    2.1349  147.3156   51.2740 C   0  0  0  0  0  0  0  0  0  0  0  0
    1.4435  146.7923   51.9383 H   0  0  0  0  0  0  0  0  0  0  0  0
    1.5898  147.6730   50.3974 H   0  0  0  0  0  0  0  0  0  0  0  0
    2.9017  146.6078   50.9454 H   0  0  0  0  0  0  0  0  0  0  0  0
  1  2  1  0
  2  3  2  0
  3  4  1  0
  3  5  1  0
  5  6  1  0
  6  7  1  0
  7  8  1  0
  7  9  1  0
  7 10  1  0
  5 11  2  0
 11 12  1  0
 11 13  1  0
 13 14  1  0
 14 15  1  0
 14 16  1  0
 14 17  1  0
 17 18  2  0
 17 19  1  0
 19 20  1  0
 19 21  1  0
 21 22  2  0
 22 23  1  0
 23 24  1  0
 24 25  1  0
 25 26  1  0
 25 27  1  0
 25 28  1  0
 23 29  2  0
 29 30  1  0
 30 31  3  0
 29 32  1  0
 32 33  1  0
 33 34  1  0
 33 35  1  0
 32 36  2  0
 36 37  1  0
 13 38  2  0
 38 39  1  0
 39 40  1  0
 40 41  1  0
 40 42  1  0
 40 43  1  0
 38  2  1  0
 36 21  1  0
M  END
>  <score>  (183) 
7.08189

$$$$

     RDKit          3D

 51 53  0  0  0  0  0  0  0  0999 V2000
   -0.4879  141.0817   51.8535 H   0  0  0  0  0  0  0  0  0  0  0  0
    0.4446  141.6307   51.7292 C   0  0  0  0  0  0  0  0  0  0  0  0
    0.9208  142.2915   52.8012 N   0  0  0  0  0  0  0  0  0  0  0  0
    2.0786  142.9932   52.7173 C   0  0  0  0  0  0  0  0  0  0  0  0
    2.6346  143.8023   53.8856 C   0  0  0  0  0  0  0  0  0  0  0  0
    2.9718  145.0895   53.6506 N   0  0  0  0  0  0  0  0  0  0  0  0
    3.4677  145.8308   54.6220 C   0  0  0  0  0  0  0  0  0  0  0  0
    3.6998  147.0837   54.2085 N   0  0  0  0  0  0  0  0  0  0  0  0
    3.4544  147.2391   53.2439 H   0  0  0  0  0  0  0  0  0  0  0  0
    3.6661  148.1403   55.0678 C   0  0  0  0  0  0  0  0  0  0  0  0
    3.6595  147.9615   56.2722 O   0  0  0  0  0  0  0  0  0  0  0  0
    3.5859  149.5606   54.5508 C   0  0  0  0  0  0  0  0  0  0  0  0
    3.6919  150.2186   55.4090 H   0  0  0  0  0  0  0  0  0  0  0  0
    4.4027  149.7589   53.8572 H   0  0  0  0  0  0  0  0  0  0  0  0
    2.2672  149.8464   53.8998 C   0  0  0  0  0  0  0  0  0  0  0  0
    1.4236  150.7840   54.5068 C   0  0  0  0  0  0  0  0  0  0  0  0
    1.7320  151.3063   55.4051 H   0  0  0  0  0  0  0  0  0  0  0  0
    0.1644  151.0659   53.9866 C   0  0  0  0  0  0  0  0  0  0  0  0
   -0.6269  151.9803   54.6295 O   0  0  0  0  0  0  0  0  0  0  0  0
   -1.5952  151.3757   55.4939 C   0  0  0  0  0  0  0  0  0  0  0  0
   -2.3871  150.8967   54.9097 H   0  0  0  0  0  0  0  0  0  0  0  0
   -1.1294  150.6213   56.1350 H   0  0  0  0  0  0  0  0  0  0  0  0
   -2.0459  152.1419   56.1331 H   0  0  0  0  0  0  0  0  0  0  0  0
   -0.2466  150.4210   52.8113 C   0  0  0  0  0  0  0  0  0  0  0  0
   -1.9556  150.8054   52.0358 Br  0  0  0  0  0  0  0  0  0  0  0  0
    0.6077  149.4972   52.1942 C   0  0  0  0  0  0  0  0  0  0  0  0
    0.3116  149.0077   51.2765 H   0  0  0  0  0  0  0  0  0  0  0  0
    1.8585  149.1779   52.7347 C   0  0  0  0  0  0  0  0  0  0  0  0
    2.6739  148.2265   52.1606 O   0  0  0  0  0  0  0  0  0  0  0  0
    2.0246  147.3070   51.2642 C   0  0  0  0  0  0  0  0  0  0  0  0
    1.2935  146.6946   51.8059 H   0  0  0  0  0  0  0  0  0  0  0  0
    2.7577  146.6377   50.8013 H   0  0  0  0  0  0  0  0  0  0  0  0
    1.5061  147.8496   50.4663 H   0  0  0  0  0  0  0  0  0  0  0  0
    3.6642  145.3967   55.8982 C   0  0  0  0  0  0  0  0  0  0  0  0
    4.0686  146.0086   56.6901 H   0  0  0  0  0  0  0  0  0  0  0  0
    3.3921  144.1018   56.1455 C   0  0  0  0  0  0  0  0  0  0  0  0
    3.6586  143.6985   57.4104 N   0  0  0  0  0  0  0  0  0  0  0  0
    4.1607  144.3705   57.9853 H   0  0  0  0  0  0  0  0  0  0  0  0
    3.8138  142.7069   57.5666 H   0  0  0  0  0  0  0  0  0  0  0  0
    2.9084  143.2678   55.1582 C   0  0  0  0  0  0  0  0  0  0  0  0
    2.8582  141.8738   55.4418 C   0  0  0  0  0  0  0  0  0  0  0  0
    2.9704  140.7530   55.7272 N   0  0  0  0  0  0  0  0  0  0  0  0
    2.7814  143.0059   51.4902 C   0  0  0  0  0  0  0  0  0  0  0  0
    4.0497  143.7783   51.4279 C   0  0  0  0  0  0  0  0  0  0  0  0
    4.7752  143.3815   50.7153 H   0  0  0  0  0  0  0  0  0  0  0  0
    4.4549  143.7104   52.4215 H   0  0  0  0  0  0  0  0  0  0  0  0
    3.8629  144.8282   51.2069 H   0  0  0  0  0  0  0  0  0  0  0  0
    2.3200  142.3089   50.3798 C   0  0  0  0  0  0  0  0  0  0  0  0
    2.8756  142.3313   49.4412 H   0  0  0  0  0  0  0  0  0  0  0  0
    1.1085  141.6381   50.4959 C   0  0  0  0  0  0  0  0  0  0  0  0
    0.6968  141.1474   49.6228 H   0  0  0  0  0  0  0  0  0  0  0  0
  1  2  1  0
  2  3  2  0
  3  4  1  0
  4  5  1  0
  5  6  2  0
  6  7  1  0
  7  8  1  0
  8  9  1  0
  8 10  1  0
 10 11  2  0
 10 12  1  0
 12 13  1  0
 12 14  1  0
 12 15  1  0
 15 16  2  0
 16 17  1  0
 16 18  1  0
 18 19  1  0
 19 20  1  0
 20 21  1  0
 20 22  1  0
 20 23  1  0
 18 24  2  0
 24 25  1  0
 24 26  1  0
 26 27  1  0
 26 28  2  0
 28 29  1  0
 29 30  1  0
 30 31  1  0
 30 32  1  0
 30 33  1  0
  7 34  2  0
 34 35  1  0
 34 36  1  0
 36 37  1  0
 37 38  1  0
 37 39  1  0
 36 40  2  0
 40 41  1  0
 41 42  3  0
  4 43  2  0
 43 44  1  0
 44 45  1  0
 44 46  1  0
 44 47  1  0
 43 48  1  0
 48 49  1  0
 48 50  2  0
 50 51  1  0
 50  2  1  0
 40  5  1  0
 28 15  1  0
M  END
>  <score>  (184) 
7.08242

$$$$

     RDKit          3D

 47 48  0  0  0  0  0  0  0  0999 V2000
    0.3063  149.2037   51.2542 H   0  0  0  0  0  0  0  0  0  0  0  0
    0.6609  149.6090   52.1968 C   0  0  0  0  0  0  0  0  0  0  0  0
   -0.1423  150.5027   52.9357 C   0  0  0  0  0  0  0  0  0  0  0  0
   -1.8677  150.9827   52.2741 Br  0  0  0  0  0  0  0  0  0  0  0  0
    0.3342  151.0611   54.1331 C   0  0  0  0  0  0  0  0  0  0  0  0
   -0.3799  151.9761   54.8629 O   0  0  0  0  0  0  0  0  0  0  0  0
   -1.4280  151.4051   55.6513 C   0  0  0  0  0  0  0  0  0  0  0  0
   -2.1542  150.8751   55.0270 H   0  0  0  0  0  0  0  0  0  0  0  0
   -1.0158  150.7048   56.3786 H   0  0  0  0  0  0  0  0  0  0  0  0
   -1.9462  152.2006   56.1963 H   0  0  0  0  0  0  0  0  0  0  0  0
    1.5994  150.6948   54.5728 C   0  0  0  0  0  0  0  0  0  0  0  0
    1.9920  151.1474   55.4745 H   0  0  0  0  0  0  0  0  0  0  0  0
    2.3853  149.7923   53.8548 C   0  0  0  0  0  0  0  0  0  0  0  0
    3.7322  149.4856   54.3950 C   0  0  0  0  0  0  0  0  0  0  0  0
    4.0028  150.3654   54.9630 H   0  0  0  0  0  0  0  0  0  0  0  0
    4.4221  149.3575   53.5582 H   0  0  0  0  0  0  0  0  0  0  0  0
    3.7573  148.2378   55.2804 C   0  0  0  0  0  0  0  0  0  0  0  0
    3.8557  148.2968   56.4932 O   0  0  0  0  0  0  0  0  0  0  0  0
    3.7301  147.0223   54.6678 N   0  0  0  0  0  0  0  0  0  0  0  0
    3.5354  146.9785   53.6806 H   0  0  0  0  0  0  0  0  0  0  0  0
    3.5565  145.8310   55.2663 C   0  0  0  0  0  0  0  0  0  0  0  0
    3.0530  145.0111   54.3633 N   0  0  0  0  0  0  0  0  0  0  0  0
    2.9020  143.7013   54.6367 C   0  0  0  0  0  0  0  0  0  0  0  0
    2.4211  142.7922   53.5327 C   0  0  0  0  0  0  0  0  0  0  0  0
    2.6110  141.5724   53.5871 O   0  0  0  0  0  0  0  0  0  0  0  0
    1.8516  143.3646   52.2179 C   0  0  0  0  0  0  0  0  0  0  0  0
    1.8447  142.5716   51.4675 H   0  0  0  0  0  0  0  0  0  0  0  0
    2.5127  144.1594   51.8544 H   0  0  0  0  0  0  0  0  0  0  0  0
    0.4328  143.9245   52.3672 C   0  0  0  0  0  0  0  0  0  0  0  0
    0.4249  144.7066   53.1321 H   0  0  0  0  0  0  0  0  0  0  0  0
   -0.2733  143.1384   52.6528 H   0  0  0  0  0  0  0  0  0  0  0  0
    0.0863  144.3563   51.4196 H   0  0  0  0  0  0  0  0  0  0  0  0
    3.2609  143.2255   55.9074 C   0  0  0  0  0  0  0  0  0  0  0  0
    3.1457  141.8427   56.2396 C   0  0  0  0  0  0  0  0  0  0  0  0
    3.0435  140.7069   56.4757 N   0  0  0  0  0  0  0  0  0  0  0  0
    3.7565  144.1264   56.8280 C   0  0  0  0  0  0  0  0  0  0  0  0
    4.1584  143.7231   58.0497 N   0  0  0  0  0  0  0  0  0  0  0  0
    4.0682  142.7435   58.3147 H   0  0  0  0  0  0  0  0  0  0  0  0
    4.5104  144.4232   58.6962 H   0  0  0  0  0  0  0  0  0  0  0  0
    3.9105  145.4513   56.5326 C   0  0  0  0  0  0  0  0  0  0  0  0
    4.3319  146.1384   57.2526 H   0  0  0  0  0  0  0  0  0  0  0  0
    1.9376  149.2421   52.6489 C   0  0  0  0  0  0  0  0  0  0  0  0
    2.7757  148.4008   51.9516 O   0  0  0  0  0  0  0  0  0  0  0  0
    2.1657  147.2946   51.2816 C   0  0  0  0  0  0  0  0  0  0  0  0
    1.4722  146.7690   51.9468 H   0  0  0  0  0  0  0  0  0  0  0  0
    1.6278  147.6336   50.3919 H   0  0  0  0  0  0  0  0  0  0  0  0
    2.9492  146.5930   50.9755 H   0  0  0  0  0  0  0  0  0  0  0  0
  1  2  1  0
  2  3  2  0
  3  4  1  0
  3  5  1  0
  5  6  1  0
  6  7  1  0
  7  8  1  0
  7  9  1  0
  7 10  1  0
  5 11  2  0
 11 12  1  0
 11 13  1  0
 13 14  1  0
 14 15  1  0
 14 16  1  0
 14 17  1  0
 17 18  2  0
 17 19  1  0
 19 20  1  0
 19 21  1  0
 21 22  2  0
 22 23  1  0
 23 24  1  0
 24 25  2  0
 24 26  1  0
 26 27  1  0
 26 28  1  0
 26 29  1  0
 29 30  1  0
 29 31  1  0
 29 32  1  0
 23 33  2  0
 33 34  1  0
 34 35  3  0
 33 36  1  0
 36 37  1  0
 37 38  1  0
 37 39  1  0
 36 40  2  0
 40 41  1  0
 13 42  2  0
 42 43  1  0
 43 44  1  0
 44 45  1  0
 44 46  1  0
 44 47  1  0
 42  2  1  0
 40 21  1  0
M  END
>  <score>  (185) 
7.08376

$$$$

     RDKit          3D

 59 61  0  0  0  0  0  0  0  0999 V2000
    0.2930  149.0024   51.2515 H   0  0  0  0  0  0  0  0  0  0  0  0
    0.5868  149.4789   52.1804 C   0  0  0  0  0  0  0  0  0  0  0  0
   -0.2669  150.4076   52.7899 C   0  0  0  0  0  0  0  0  0  0  0  0
   -1.9654  150.7957   51.9950 Br  0  0  0  0  0  0  0  0  0  0  0  0
    0.1412  151.0548   53.9668 C   0  0  0  0  0  0  0  0  0  0  0  0
   -0.6504  151.9755   54.6009 O   0  0  0  0  0  0  0  0  0  0  0  0
   -1.6111  151.3722   55.4784 C   0  0  0  0  0  0  0  0  0  0  0  0
   -2.0567  152.1311   56.1282 H   0  0  0  0  0  0  0  0  0  0  0  0
   -2.4141  150.9016   54.9041 H   0  0  0  0  0  0  0  0  0  0  0  0
   -1.1433  150.6130   56.1127 H   0  0  0  0  0  0  0  0  0  0  0  0
    1.4004  150.7706   54.4997 C   0  0  0  0  0  0  0  0  0  0  0  0
    1.7197  151.3210   55.3774 H   0  0  0  0  0  0  0  0  0  0  0  0
    2.2421  149.8155   53.9175 C   0  0  0  0  0  0  0  0  0  0  0  0
    3.5681  149.5347   54.5811 C   0  0  0  0  0  0  0  0  0  0  0  0
    3.7381  150.2647   55.3779 H   0  0  0  0  0  0  0  0  0  0  0  0
    4.3750  149.6080   53.8454 H   0  0  0  0  0  0  0  0  0  0  0  0
    3.5900  148.1580   55.2195 C   0  0  0  0  0  0  0  0  0  0  0  0
    3.7194  148.0647   56.4234 O   0  0  0  0  0  0  0  0  0  0  0  0
    3.5315  147.0434   54.4356 N   0  0  0  0  0  0  0  0  0  0  0  0
    3.2930  147.1344   53.4630 H   0  0  0  0  0  0  0  0  0  0  0  0
    3.5284  145.7903   54.9293 C   0  0  0  0  0  0  0  0  0  0  0  0
    3.1801  144.9113   54.0144 N   0  0  0  0  0  0  0  0  0  0  0  0
    3.1168  143.6212   54.3750 C   0  0  0  0  0  0  0  0  0  0  0  0
    2.6130  142.6124   53.3688 C   0  0  0  0  0  0  0  0  0  0  0  0
    1.9022  143.0791   52.6832 H   0  0  0  0  0  0  0  0  0  0  0  0
    2.0464  141.8976   53.9608 H   0  0  0  0  0  0  0  0  0  0  0  0
    3.6679  141.8741   52.6293 N   0  0  0  0  0  0  0  0  0  0  0  0
    4.2218  142.4800   51.3836 C   0  0  0  0  0  0  0  0  0  0  0  0
    3.4285  142.5155   50.6260 H   0  0  0  0  0  0  0  0  0  0  0  0
    4.5562  143.5073   51.5662 H   0  0  0  0  0  0  0  0  0  0  0  0
    5.3982  141.6545   50.7844 C   0  0  0  0  0  0  0  0  0  0  0  0
    6.2826  141.6548   51.4362 H   0  0  0  0  0  0  0  0  0  0  0  0
    5.6843  142.0957   49.8190 H   0  0  0  0  0  0  0  0  0  0  0  0
    5.0025  140.2395   50.6409 N   0  0  0  0  0  0  0  0  0  0  0  0
    6.0322  139.4086   50.0109 C   0  0  0  0  0  0  0  0  0  0  0  0
    6.8056  139.1851   50.7531 H   0  0  0  0  0  0  0  0  0  0  0  0
    6.4851  139.9320   49.1590 H   0  0  0  0  0  0  0  0  0  0  0  0
    5.5925  138.4687   49.6630 H   0  0  0  0  0  0  0  0  0  0  0  0
    4.5895  139.7240   51.9636 C   0  0  0  0  0  0  0  0  0  0  0  0
    4.4325  138.6452   51.9229 H   0  0  0  0  0  0  0  0  0  0  0  0
    5.3833  139.9114   52.6930 H   0  0  0  0  0  0  0  0  0  0  0  0
    3.3320  140.4597   52.4311 C   0  0  0  0  0  0  0  0  0  0  0  0
    2.9606  140.0295   53.3665 H   0  0  0  0  0  0  0  0  0  0  0  0
    2.5424  140.3791   51.6779 H   0  0  0  0  0  0  0  0  0  0  0  0
    3.3821  143.2128   55.6823 C   0  0  0  0  0  0  0  0  0  0  0  0
    3.2568  141.8476   56.0878 C   0  0  0  0  0  0  0  0  0  0  0  0
    3.1410  140.7419   56.4226 N   0  0  0  0  0  0  0  0  0  0  0  0
    3.7111  144.1767   56.5933 C   0  0  0  0  0  0  0  0  0  0  0  0
    3.9367  143.9188   57.8967 N   0  0  0  0  0  0  0  0  0  0  0  0
    4.2181  142.9735   58.1369 H   0  0  0  0  0  0  0  0  0  0  0  0
    4.3615  144.6896   58.4036 H   0  0  0  0  0  0  0  0  0  0  0  0
    3.8044  145.4747   56.2311 C   0  0  0  0  0  0  0  0  0  0  0  0
    4.0706  146.2049   56.9781 H   0  0  0  0  0  0  0  0  0  0  0  0
    1.8314  149.1447   52.7464 C   0  0  0  0  0  0  0  0  0  0  0  0
    2.6431  148.1801   52.1896 O   0  0  0  0  0  0  0  0  0  0  0  0
    2.0057  147.3043   51.2439 C   0  0  0  0  0  0  0  0  0  0  0  0
    2.7370  146.6266   50.7924 H   0  0  0  0  0  0  0  0  0  0  0  0
    1.5302  147.8822   50.4446 H   0  0  0  0  0  0  0  0  0  0  0  0
    1.2388  146.7002   51.7409 H   0  0  0  0  0  0  0  0  0  0  0  0
  1  2  1  0
  2  3  2  0
  3  4  1  0
  3  5  1  0
  5  6  1  0
  6  7  1  0
  7  8  1  0
  7  9  1  0
  7 10  1  0
  5 11  2  0
 11 12  1  0
 11 13  1  0
 13 14  1  0
 14 15  1  0
 14 16  1  0
 14 17  1  0
 17 18  2  0
 17 19  1  0
 19 20  1  0
 19 21  1  0
 21 22  2  0
 22 23  1  0
 23 24  1  0
 24 25  1  0
 24 26  1  0
 24 27  1  0
 27 28  1  0
 28 29  1  0
 28 30  1  0
 28 31  1  0
 31 32  1  0
 31 33  1  0
 31 34  1  0
 34 35  1  0
 35 36  1  0
 35 37  1  0
 35 38  1  0
 34 39  1  0
 39 40  1  0
 39 41  1  0
 39 42  1  0
 42 43  1  0
 42 44  1  0
 23 45  2  0
 45 46  1  0
 46 47  3  0
 45 48  1  0
 48 49  1  0
 49 50  1  0
 49 51  1  0
 48 52  2  0
 52 53  1  0
 13 54  2  0
 54 55  1  0
 55 56  1  0
 56 57  1  0
 56 58  1  0
 56 59  1  0
 54  2  1  0
 52 21  1  0
 42 27  1  0
M  END
>  <score>  (186) 
7.08448

$$$$

     RDKit          3D

 51 53  0  0  0  0  0  0  0  0999 V2000
    0.3070  149.2020   51.2523 H   0  0  0  0  0  0  0  0  0  0  0  0
    0.6605  149.6068   52.1975 C   0  0  0  0  0  0  0  0  0  0  0  0
   -0.1438  150.5013   52.9361 C   0  0  0  0  0  0  0  0  0  0  0  0
   -1.8705  150.9846   52.2762 Br  0  0  0  0  0  0  0  0  0  0  0  0
    0.3341  151.0586   54.1329 C   0  0  0  0  0  0  0  0  0  0  0  0
   -0.3792  151.9746   54.8600 O   0  0  0  0  0  0  0  0  0  0  0  0
   -1.4262  151.4042   55.6482 C   0  0  0  0  0  0  0  0  0  0  0  0
   -1.9425  152.2003   56.1922 H   0  0  0  0  0  0  0  0  0  0  0  0
   -2.1521  150.8755   55.0242 H   0  0  0  0  0  0  0  0  0  0  0  0
   -1.0142  150.7038   56.3742 H   0  0  0  0  0  0  0  0  0  0  0  0
    1.5970  150.6901   54.5748 C   0  0  0  0  0  0  0  0  0  0  0  0
    1.9928  151.1420   55.4742 H   0  0  0  0  0  0  0  0  0  0  0  0
    2.3830  149.7907   53.8572 C   0  0  0  0  0  0  0  0  0  0  0  0
    3.7266  149.4822   54.3985 C   0  0  0  0  0  0  0  0  0  0  0  0
    4.4162  149.3607   53.5610 H   0  0  0  0  0  0  0  0  0  0  0  0
    3.9954  150.3611   54.9674 H   0  0  0  0  0  0  0  0  0  0  0  0
    3.7524  148.2307   55.2776 C   0  0  0  0  0  0  0  0  0  0  0  0
    3.8551  148.2982   56.4913 O   0  0  0  0  0  0  0  0  0  0  0  0
    3.7356  147.0142   54.6697 N   0  0  0  0  0  0  0  0  0  0  0  0
    3.5256  146.9608   53.6854 H   0  0  0  0  0  0  0  0  0  0  0  0
    3.5911  145.8249   55.2736 C   0  0  0  0  0  0  0  0  0  0  0  0
    3.1262  145.0001   54.3687 N   0  0  0  0  0  0  0  0  0  0  0  0
    2.9358  143.7057   54.6549 C   0  0  0  0  0  0  0  0  0  0  0  0
    2.3564  142.7674   53.5695 C   0  0  1  0  0  0  0  0  0  0  0  0
    1.7922  142.0128   54.1212 H   0  0  0  0  0  0  0  0  0  0  0  0
    1.4790  143.3581   52.5115 N   0  0  0  0  0  0  0  0  0  0  0  0
    0.4973  143.1255   52.6528 H   0  0  0  0  0  0  0  0  0  0  0  0
    1.9320  143.0331   51.1539 C   0  0  0  0  0  0  0  0  0  0  0  0
    2.4454  143.8984   50.7245 H   0  0  0  0  0  0  0  0  0  0  0  0
    1.1062  142.7566   50.4919 H   0  0  0  0  0  0  0  0  0  0  0  0
    2.9029  141.8833   51.3502 C   0  0  0  0  0  0  0  0  0  0  0  0
    3.7065  141.9026   50.6072 H   0  0  0  0  0  0  0  0  0  0  0  0
    2.3792  140.9254   51.2825 H   0  0  0  0  0  0  0  0  0  0  0  0
    3.4618  142.0861   52.7515 C   0  0  0  0  0  0  0  0  0  0  0  0
    3.7820  141.1390   53.2048 H   0  0  0  0  0  0  0  0  0  0  0  0
    4.3230  142.7512   52.6672 H   0  0  0  0  0  0  0  0  0  0  0  0
    3.2755  143.2208   55.9209 C   0  0  0  0  0  0  0  0  0  0  0  0
    3.1467  141.8378   56.2449 C   0  0  0  0  0  0  0  0  0  0  0  0
    3.0395  140.6963   56.4521 N   0  0  0  0  0  0  0  0  0  0  0  0
    3.7612  144.1263   56.8392 C   0  0  0  0  0  0  0  0  0  0  0  0
    4.1580  143.7224   58.0585 N   0  0  0  0  0  0  0  0  0  0  0  0
    4.5112  144.4213   58.7051 H   0  0  0  0  0  0  0  0  0  0  0  0
    4.0706  142.7443   58.3226 H   0  0  0  0  0  0  0  0  0  0  0  0
    3.9176  145.4538   56.5481 C   0  0  0  0  0  0  0  0  0  0  0  0
    4.3282  146.1462   57.2711 H   0  0  0  0  0  0  0  0  0  0  0  0
    1.9371  149.2394   52.6516 C   0  0  0  0  0  0  0  0  0  0  0  0
    2.7752  148.4034   51.9469 O   0  0  0  0  0  0  0  0  0  0  0  0
    2.1658  147.2942   51.2815 C   0  0  0  0  0  0  0  0  0  0  0  0
    1.6212  147.6325   50.3965 H   0  0  0  0  0  0  0  0  0  0  0  0
    2.9500  146.5961   50.9706 H   0  0  0  0  0  0  0  0  0  0  0  0
    1.4790  146.7668   51.9512 H   0  0  0  0  0  0  0  0  0  0  0  0
  1  2  1  0
  2  3  2  0
  3  4  1  0
  3  5  1  0
  5  6  1  0
  6  7  1  0
  7  8  1  0
  7  9  1  0
  7 10  1  0
  5 11  2  0
 11 12  1  0
 11 13  1  0
 13 14  1  0
 14 15  1  0
 14 16  1  0
 14 17  1  0
 17 18  2  0
 17 19  1  0
 19 20  1  0
 19 21  1  0
 21 22  2  0
 22 23  1  0
 23 24  1  0
 24 25  1  1
 24 26  1  0
 26 27  1  0
 26 28  1  0
 28 29  1  0
 28 30  1  0
 28 31  1  0
 31 32  1  0
 31 33  1  0
 31 34  1  0
 34 35  1  0
 34 36  1  0
 23 37  2  0
 37 38  1  0
 38 39  3  0
 37 40  1  0
 40 41  1  0
 41 42  1  0
 41 43  1  0
 40 44  2  0
 44 45  1  0
 13 46  2  0
 46 47  1  0
 47 48  1  0
 48 49  1  0
 48 50  1  0
 48 51  1  0
 46  2  1  0
 44 21  1  0
 34 24  1  0
M  END
>  <score>  (187) 
7.08487

$$$$

     RDKit          3D

 47 49  0  0  0  0  0  0  0  0999 V2000
    3.0658  140.0903   51.7502 H   0  0  0  0  0  0  0  0  0  0  0  0
    2.4861  140.9124   52.1396 C   0  0  0  0  0  0  0  0  0  0  0  0
    1.3142  141.2558   51.5745 N   0  0  0  0  0  0  0  0  0  0  0  0
    0.6755  142.3634   51.9670 N   0  0  0  0  0  0  0  0  0  0  0  0
    1.1907  143.1526   52.9293 C   0  0  0  0  0  0  0  0  0  0  0  0
    0.6413  144.0535   53.1740 H   0  0  0  0  0  0  0  0  0  0  0  0
    2.3602  142.8021   53.6153 C   0  0  0  0  0  0  0  0  0  0  0  0
    2.8783  143.6852   54.6614 C   0  0  0  0  0  0  0  0  0  0  0  0
    2.9916  144.9747   54.3432 N   0  0  0  0  0  0  0  0  0  0  0  0
    3.5154  145.7997   55.2292 C   0  0  0  0  0  0  0  0  0  0  0  0
    3.7036  147.0002   54.6437 N   0  0  0  0  0  0  0  0  0  0  0  0
    3.5246  146.9703   53.6527 H   0  0  0  0  0  0  0  0  0  0  0  0
    3.7514  148.2128   55.2696 C   0  0  0  0  0  0  0  0  0  0  0  0
    3.8489  148.2718   56.4857 O   0  0  0  0  0  0  0  0  0  0  0  0
    3.7291  149.4755   54.3997 C   0  0  0  0  0  0  0  0  0  0  0  0
    4.4151  149.3565   53.5585 H   0  0  0  0  0  0  0  0  0  0  0  0
    4.0007  150.3549   54.9732 H   0  0  0  0  0  0  0  0  0  0  0  0
    2.3821  149.7844   53.8594 C   0  0  0  0  0  0  0  0  0  0  0  0
    1.5976  150.6903   54.5735 C   0  0  0  0  0  0  0  0  0  0  0  0
    1.9906  151.1463   55.4728 H   0  0  0  0  0  0  0  0  0  0  0  0
    0.3346  151.0590   54.1322 C   0  0  0  0  0  0  0  0  0  0  0  0
   -0.3787  151.9763   54.8616 O   0  0  0  0  0  0  0  0  0  0  0  0
   -1.4267  151.4043   55.6488 C   0  0  0  0  0  0  0  0  0  0  0  0
   -1.0144  150.7030   56.3763 H   0  0  0  0  0  0  0  0  0  0  0  0
   -1.9430  152.2016   56.1927 H   0  0  0  0  0  0  0  0  0  0  0  0
   -2.1533  150.8751   55.0231 H   0  0  0  0  0  0  0  0  0  0  0  0
   -0.1437  150.5001   52.9353 C   0  0  0  0  0  0  0  0  0  0  0  0
   -1.8688  150.9841   52.2764 Br  0  0  0  0  0  0  0  0  0  0  0  0
    0.6596  149.6062   52.1959 C   0  0  0  0  0  0  0  0  0  0  0  0
    0.3076  149.2017   51.2528 H   0  0  0  0  0  0  0  0  0  0  0  0
    1.9355  149.2385   52.6499 C   0  0  0  0  0  0  0  0  0  0  0  0
    2.7761  148.4009   51.9506 O   0  0  0  0  0  0  0  0  0  0  0  0
    2.1653  147.2960   51.2812 C   0  0  0  0  0  0  0  0  0  0  0  0
    1.6227  147.6368   50.3944 H   0  0  0  0  0  0  0  0  0  0  0  0
    2.9499  146.5972   50.9712 H   0  0  0  0  0  0  0  0  0  0  0  0
    1.4748  146.7687   51.9494 H   0  0  0  0  0  0  0  0  0  0  0  0
    3.8920  145.4322   56.4975 C   0  0  0  0  0  0  0  0  0  0  0  0
    4.3178  146.1265   57.2102 H   0  0  0  0  0  0  0  0  0  0  0  0
    3.7577  144.1092   56.8060 C   0  0  0  0  0  0  0  0  0  0  0  0
    4.1561  143.7198   58.0294 N   0  0  0  0  0  0  0  0  0  0  0  0
    4.5001  144.4291   58.6717 H   0  0  0  0  0  0  0  0  0  0  0  0
    4.0636  142.7438   58.3036 H   0  0  0  0  0  0  0  0  0  0  0  0
    3.2713  143.2004   55.9001 C   0  0  0  0  0  0  0  0  0  0  0  0
    3.1517  141.8182   56.2252 C   0  0  0  0  0  0  0  0  0  0  0  0
    3.0397  140.6818   56.4497 N   0  0  0  0  0  0  0  0  0  0  0  0
    3.0159  141.6281   53.2080 C   0  0  0  0  0  0  0  0  0  0  0  0
    3.9486  141.2807   53.6433 H   0  0  0  0  0  0  0  0  0  0  0  0
  1  2  1  0
  2  3  2  0
  3  4  1  0
  4  5  2  0
  5  6  1  0
  5  7  1  0
  7  8  1  0
  8  9  2  0
  9 10  1  0
 10 11  1  0
 11 12  1  0
 11 13  1  0
 13 14  2  0
 13 15  1  0
 15 16  1  0
 15 17  1  0
 15 18  1  0
 18 19  2  0
 19 20  1  0
 19 21  1  0
 21 22  1  0
 22 23  1  0
 23 24  1  0
 23 25  1  0
 23 26  1  0
 21 27  2  0
 27 28  1  0
 27 29  1  0
 29 30  1  0
 29 31  2  0
 31 32  1  0
 32 33  1  0
 33 34  1  0
 33 35  1  0
 33 36  1  0
 10 37  2  0
 37 38  1  0
 37 39  1  0
 39 40  1  0
 40 41  1  0
 40 42  1  0
 39 43  2  0
 43 44  1  0
 44 45  3  0
  7 46  2  0
 46 47  1  0
 46  2  1  0
 43  8  1  0
 31 18  1  0
M  END
>  <score>  (188) 
7.08869

$$$$

     RDKit          3D

 49 51  0  0  0  0  0  0  0  0999 V2000
    3.5388  140.9143   53.9631 H   0  0  0  0  0  0  0  0  0  0  0  0
    2.8696  141.5081   53.3484 C   0  0  0  0  0  0  0  0  0  0  0  0
    2.2938  141.0714   52.2550 N   0  0  0  0  0  0  0  0  0  0  0  0
    1.5296  142.1053   51.8068 N   0  0  0  0  0  0  0  0  0  0  0  0
    0.5940  142.0400   50.7073 C   0  0  0  0  0  0  0  0  0  0  0  0
    0.9296  142.6862   49.8936 H   0  0  0  0  0  0  0  0  0  0  0  0
    0.5064  141.0184   50.3472 H   0  0  0  0  0  0  0  0  0  0  0  0
   -0.3762  142.3661   51.0792 H   0  0  0  0  0  0  0  0  0  0  0  0
    1.5938  143.2057   52.6316 C   0  0  0  0  0  0  0  0  0  0  0  0
    1.0698  144.1563   52.5201 H   0  0  0  0  0  0  0  0  0  0  0  0
    2.4634  142.8614   53.6131 C   0  0  0  0  0  0  0  0  0  0  0  0
    2.9440  143.7060   54.6621 C   0  0  0  0  0  0  0  0  0  0  0  0
    3.0621  144.9824   54.3255 N   0  0  0  0  0  0  0  0  0  0  0  0
    3.5507  145.8020   55.2127 C   0  0  0  0  0  0  0  0  0  0  0  0
    3.7025  146.9817   54.5999 N   0  0  0  0  0  0  0  0  0  0  0  0
    3.4488  146.9435   53.6241 H   0  0  0  0  0  0  0  0  0  0  0  0
    3.7425  148.1799   55.2387 C   0  0  0  0  0  0  0  0  0  0  0  0
    3.8214  148.2339   56.4551 O   0  0  0  0  0  0  0  0  0  0  0  0
    3.7069  149.4585   54.4233 C   0  0  0  0  0  0  0  0  0  0  0  0
    4.4194  149.3991   53.6017 H   0  0  0  0  0  0  0  0  0  0  0  0
    3.9932  150.2719   55.0701 H   0  0  0  0  0  0  0  0  0  0  0  0
    2.3495  149.7679   53.8734 C   0  0  0  0  0  0  0  0  0  0  0  0
    1.5671  150.6792   54.5807 C   0  0  0  0  0  0  0  0  0  0  0  0
    1.9534  151.1347   55.4900 H   0  0  0  0  0  0  0  0  0  0  0  0
    0.3113  151.0468   54.1082 C   0  0  0  0  0  0  0  0  0  0  0  0
   -0.3894  151.9803   54.8236 O   0  0  0  0  0  0  0  0  0  0  0  0
   -1.4249  151.4048   55.6181 C   0  0  0  0  0  0  0  0  0  0  0  0
   -1.0062  150.6902   56.3306 H   0  0  0  0  0  0  0  0  0  0  0  0
   -1.9380  152.1974   56.1709 H   0  0  0  0  0  0  0  0  0  0  0  0
   -2.1488  150.8848   54.9847 H   0  0  0  0  0  0  0  0  0  0  0  0
   -0.1761  150.4827   52.9099 C   0  0  0  0  0  0  0  0  0  0  0  0
   -1.9116  150.9769   52.2624 Br  0  0  0  0  0  0  0  0  0  0  0  0
    0.6248  149.5779   52.1795 C   0  0  0  0  0  0  0  0  0  0  0  0
    0.2835  149.1759   51.2260 H   0  0  0  0  0  0  0  0  0  0  0  0
    1.9001  149.2200   52.6583 C   0  0  0  0  0  0  0  0  0  0  0  0
    2.7584  148.4024   51.9593 O   0  0  0  0  0  0  0  0  0  0  0  0
    2.1491  147.3065   51.2768 C   0  0  0  0  0  0  0  0  0  0  0  0
    2.9233  146.6002   50.9585 H   0  0  0  0  0  0  0  0  0  0  0  0
    1.6086  147.6608   50.3942 H   0  0  0  0  0  0  0  0  0  0  0  0
    1.4563  146.7869   51.9473 H   0  0  0  0  0  0  0  0  0  0  0  0
    3.8986  145.4493   56.4903 C   0  0  0  0  0  0  0  0  0  0  0  0
    4.3041  146.1396   57.2179 H   0  0  0  0  0  0  0  0  0  0  0  0
    3.7603  144.1257   56.8030 C   0  0  0  0  0  0  0  0  0  0  0  0
    4.1510  143.7407   58.0316 N   0  0  0  0  0  0  0  0  0  0  0  0
    4.4881  144.4378   58.6898 H   0  0  0  0  0  0  0  0  0  0  0  0
    4.0750  142.7648   58.2997 H   0  0  0  0  0  0  0  0  0  0  0  0
    3.2922  143.2082   55.8965 C   0  0  0  0  0  0  0  0  0  0  0  0
    3.1643  141.8144   56.1976 C   0  0  0  0  0  0  0  0  0  0  0  0
    3.0676  140.6780   56.4196 N   0  0  0  0  0  0  0  0  0  0  0  0
  1  2  1  0
  2  3  2  0
  3  4  1  0
  4  5  1  0
  5  6  1  0
  5  7  1  0
  5  8  1  0
  4  9  1  0
  9 10  1  0
  9 11  2  0
 11 12  1  0
 12 13  2  0
 13 14  1  0
 14 15  1  0
 15 16  1  0
 15 17  1  0
 17 18  2  0
 17 19  1  0
 19 20  1  0
 19 21  1  0
 19 22  1  0
 22 23  2  0
 23 24  1  0
 23 25  1  0
 25 26  1  0
 26 27  1  0
 27 28  1  0
 27 29  1  0
 27 30  1  0
 25 31  2  0
 31 32  1  0
 31 33  1  0
 33 34  1  0
 33 35  2  0
 35 36  1  0
 36 37  1  0
 37 38  1  0
 37 39  1  0
 37 40  1  0
 14 41  2  0
 41 42  1  0
 41 43  1  0
 43 44  1  0
 44 45  1  0
 44 46  1  0
 43 47  2  0
 47 48  1  0
 48 49  3  0
 11  2  1  0
 47 12  1  0
 35 22  1  0
M  END
>  <score>  (189) 
7.08885

$$$$

     RDKit          3D

 51 52  0  0  0  0  0  0  0  0999 V2000
    0.2874  149.1789   51.2360 H   0  0  0  0  0  0  0  0  0  0  0  0
    0.6243  149.5803   52.1853 C   0  0  0  0  0  0  0  0  0  0  0  0
   -0.1770  150.4801   52.9098 C   0  0  0  0  0  0  0  0  0  0  0  0
   -1.9108  150.9777   52.2645 Br  0  0  0  0  0  0  0  0  0  0  0  0
    0.3126  151.0379   54.1048 C   0  0  0  0  0  0  0  0  0  0  0  0
   -0.3833  151.9739   54.8129 O   0  0  0  0  0  0  0  0  0  0  0  0
   -1.4207  151.4062   55.6113 C   0  0  0  0  0  0  0  0  0  0  0  0
   -1.9362  152.1931   56.1694 H   0  0  0  0  0  0  0  0  0  0  0  0
   -1.0085  150.6916   56.3240 H   0  0  0  0  0  0  0  0  0  0  0  0
   -2.1473  150.8857   54.9845 H   0  0  0  0  0  0  0  0  0  0  0  0
    1.5648  150.6740   54.5782 C   0  0  0  0  0  0  0  0  0  0  0  0
    1.9482  151.1252   55.4905 H   0  0  0  0  0  0  0  0  0  0  0  0
    2.3436  149.7655   53.8705 C   0  0  0  0  0  0  0  0  0  0  0  0
    3.6953  149.4534   54.4197 C   0  0  0  0  0  0  0  0  0  0  0  0
    4.4155  149.4018   53.6041 H   0  0  0  0  0  0  0  0  0  0  0  0
    3.9653  150.2689   55.0720 H   0  0  0  0  0  0  0  0  0  0  0  0
    3.7359  148.1690   55.2255 C   0  0  0  0  0  0  0  0  0  0  0  0
    3.8191  148.2122   56.4402 O   0  0  0  0  0  0  0  0  0  0  0  0
    3.7100  146.9784   54.5791 N   0  0  0  0  0  0  0  0  0  0  0  0
    3.4484  146.9672   53.6059 H   0  0  0  0  0  0  0  0  0  0  0  0
    3.5993  145.7764   55.1642 C   0  0  0  0  0  0  0  0  0  0  0  0
    3.1354  144.9433   54.2626 N   0  0  0  0  0  0  0  0  0  0  0  0
    2.9516  143.6631   54.5918 C   0  0  0  0  0  0  0  0  0  0  0  0
    2.2940  142.7120   53.5965 C   0  0  1  0  0  0  0  0  0  0  0  0
    1.7030  142.0352   54.2060 H   0  0  0  0  0  0  0  0  0  0  0  0
    1.3360  143.4155   52.6176 C   0  0  0  0  0  0  0  0  0  0  0  0
    0.9582  142.7023   51.8773 H   0  0  0  0  0  0  0  0  0  0  0  0
    1.8701  144.2055   52.0805 H   0  0  0  0  0  0  0  0  0  0  0  0
    0.4851  143.8650   53.1388 H   0  0  0  0  0  0  0  0  0  0  0  0
    3.2875  141.8920   52.7516 C   0  0  0  0  0  0  0  0  0  0  0  0
    4.0092  141.3636   53.3930 H   0  0  0  0  0  0  0  0  0  0  0  0
    2.7180  141.1301   52.1936 H   0  0  0  0  0  0  0  0  0  0  0  0
    4.0119  142.8165   51.7602 C   0  0  0  0  0  0  0  0  0  0  0  0
    4.8429  142.2917   51.2731 H   0  0  0  0  0  0  0  0  0  0  0  0
    3.2924  143.1393   50.9891 H   0  0  0  0  0  0  0  0  0  0  0  0
    4.3716  143.7121   52.2849 H   0  0  0  0  0  0  0  0  0  0  0  0
    3.2958  143.2113   55.8581 C   0  0  0  0  0  0  0  0  0  0  0  0
    3.1639  141.8346   56.1934 C   0  0  0  0  0  0  0  0  0  0  0  0
    3.0605  140.7044   56.4466 N   0  0  0  0  0  0  0  0  0  0  0  0
    3.7657  144.1232   56.7698 C   0  0  0  0  0  0  0  0  0  0  0  0
    4.1051  143.7583   58.0200 N   0  0  0  0  0  0  0  0  0  0  0  0
    4.4805  144.4562   58.6553 H   0  0  0  0  0  0  0  0  0  0  0  0
    4.0753  142.7777   58.2766 H   0  0  0  0  0  0  0  0  0  0  0  0
    3.9039  145.4340   56.4522 C   0  0  0  0  0  0  0  0  0  0  0  0
    4.2607  146.1366   57.1858 H   0  0  0  0  0  0  0  0  0  0  0  0
    1.8964  149.2209   52.6593 C   0  0  0  0  0  0  0  0  0  0  0  0
    2.7564  148.4057   51.9630 O   0  0  0  0  0  0  0  0  0  0  0  0
    2.1487  147.3094   51.2781 C   0  0  0  0  0  0  0  0  0  0  0  0
    2.9148  146.5925   50.9698 H   0  0  0  0  0  0  0  0  0  0  0  0
    1.6164  147.6526   50.3882 H   0  0  0  0  0  0  0  0  0  0  0  0
    1.4456  146.7945   51.9376 H   0  0  0  0  0  0  0  0  0  0  0  0
  1  2  1  0
  2  3  2  0
  3  4  1  0
  3  5  1  0
  5  6  1  0
  6  7  1  0
  7  8  1  0
  7  9  1  0
  7 10  1  0
  5 11  2  0
 11 12  1  0
 11 13  1  0
 13 14  1  0
 14 15  1  0
 14 16  1  0
 14 17  1  0
 17 18  2  0
 17 19  1  0
 19 20  1  0
 19 21  1  0
 21 22  2  0
 22 23  1  0
 23 24  1  0
 24 25  1  1
 24 26  1  0
 26 27  1  0
 26 28  1  0
 26 29  1  0
 24 30  1  0
 30 31  1  0
 30 32  1  0
 30 33  1  0
 33 34  1  0
 33 35  1  0
 33 36  1  0
 23 37  2  0
 37 38  1  0
 38 39  3  0
 37 40  1  0
 40 41  1  0
 41 42  1  0
 41 43  1  0
 40 44  2  0
 44 45  1  0
 13 46  2  0
 46 47  1  0
 47 48  1  0
 48 49  1  0
 48 50  1  0
 48 51  1  0
 46  2  1  0
 44 21  1  0
M  END
>  <score>  (190) 
7.09008

$$$$

     RDKit          3D

 55 56  0  0  0  0  0  0  0  0999 V2000
    0.2286  149.1030   51.2702 H   0  0  0  0  0  0  0  0  0  0  0  0
    0.5992  149.5461   52.1859 C   0  0  0  0  0  0  0  0  0  0  0  0
   -0.2162  150.4656   52.8614 C   0  0  0  0  0  0  0  0  0  0  0  0
   -1.9540  150.8932   52.1767 Br  0  0  0  0  0  0  0  0  0  0  0  0
    0.2465  151.0599   54.0429 C   0  0  0  0  0  0  0  0  0  0  0  0
   -0.4808  151.9985   54.7192 O   0  0  0  0  0  0  0  0  0  0  0  0
   -1.4797  151.4026   55.5427 C   0  0  0  0  0  0  0  0  0  0  0  0
   -1.0211  150.6696   56.2113 H   0  0  0  0  0  0  0  0  0  0  0  0
   -2.2307  150.8990   54.9262 H   0  0  0  0  0  0  0  0  0  0  0  0
   -1.9717  152.1721   56.1456 H   0  0  0  0  0  0  0  0  0  0  0  0
    1.4849  150.6885   54.5526 C   0  0  0  0  0  0  0  0  0  0  0  0
    1.8094  151.1207   55.4930 H   0  0  0  0  0  0  0  0  0  0  0  0
    2.3108  149.7857   53.8790 C   0  0  0  0  0  0  0  0  0  0  0  0
    3.6567  149.5100   54.5031 C   0  0  0  0  0  0  0  0  0  0  0  0
    3.8539  150.3063   55.2136 H   0  0  0  0  0  0  0  0  0  0  0  0
    4.4330  149.5303   53.7381 H   0  0  0  0  0  0  0  0  0  0  0  0
    3.7485  148.1846   55.2442 C   0  0  0  0  0  0  0  0  0  0  0  0
    3.8115  148.1328   56.4608 O   0  0  0  0  0  0  0  0  0  0  0  0
    3.8169  147.0497   54.5016 N   0  0  0  0  0  0  0  0  0  0  0  0
    3.5235  147.1095   53.5394 H   0  0  0  0  0  0  0  0  0  0  0  0
    3.6834  145.8196   55.0265 C   0  0  0  0  0  0  0  0  0  0  0  0
    3.2387  145.0058   54.0924 N   0  0  0  0  0  0  0  0  0  0  0  0
    2.9720  143.7077   54.3627 C   0  0  0  0  0  0  0  0  0  0  0  0
    2.2440  142.8846   53.2885 C   0  0  0  0  0  0  0  0  0  0  0  0
    1.0645  142.6024   53.4728 O   0  0  0  0  0  0  0  0  0  0  0  0
    2.7055  142.5657   51.9979 N   0  0  0  0  0  0  0  0  0  0  0  0
    4.0745  142.8060   51.5959 C   0  0  0  0  0  0  0  0  0  0  0  0
    4.7013  142.4100   52.3942 H   0  0  0  0  0  0  0  0  0  0  0  0
    4.3213  142.2518   50.6826 H   0  0  0  0  0  0  0  0  0  0  0  0
    4.2646  144.2995   51.3031 C   0  0  0  0  0  0  0  0  0  0  0  0
    5.3177  144.5873   51.3242 H   0  0  0  0  0  0  0  0  0  0  0  0
    3.8854  144.5182   50.3018 H   0  0  0  0  0  0  0  0  0  0  0  0
    3.7137  144.9201   52.0139 H   0  0  0  0  0  0  0  0  0  0  0  0
    1.7689  142.2478   50.9226 C   0  0  0  0  0  0  0  0  0  0  0  0
    2.3406  141.9381   50.0383 H   0  0  0  0  0  0  0  0  0  0  0  0
    1.0963  141.4205   51.1944 H   0  0  0  0  0  0  0  0  0  0  0  0
    0.9646  143.5080   50.5993 C   0  0  0  0  0  0  0  0  0  0  0  0
    0.1643  143.6572   51.3382 H   0  0  0  0  0  0  0  0  0  0  0  0
    0.5289  143.4071   49.6012 H   0  0  0  0  0  0  0  0  0  0  0  0
    1.6157  144.3925   50.6017 H   0  0  0  0  0  0  0  0  0  0  0  0
    3.2348  143.2430   55.6805 C   0  0  0  0  0  0  0  0  0  0  0  0
    3.0923  141.8759   56.0553 C   0  0  0  0  0  0  0  0  0  0  0  0
    3.0277  140.7499   56.3527 N   0  0  0  0  0  0  0  0  0  0  0  0
    3.6930  144.1452   56.6384 C   0  0  0  0  0  0  0  0  0  0  0  0
    3.9354  143.8013   57.9369 N   0  0  0  0  0  0  0  0  0  0  0  0
    4.0757  142.8190   58.1629 H   0  0  0  0  0  0  0  0  0  0  0  0
    4.4052  144.4953   58.5139 H   0  0  0  0  0  0  0  0  0  0  0  0
    3.9265  145.4499   56.3205 C   0  0  0  0  0  0  0  0  0  0  0  0
    4.3013  146.1470   57.0560 H   0  0  0  0  0  0  0  0  0  0  0  0
    1.8804  149.2101   52.6663 C   0  0  0  0  0  0  0  0  0  0  0  0
    2.7223  148.3543   51.9948 O   0  0  0  0  0  0  0  0  0  0  0  0
    2.0824  147.3066   51.2561 C   0  0  0  0  0  0  0  0  0  0  0  0
    1.4167  146.7239   51.9040 H   0  0  0  0  0  0  0  0  0  0  0  0
    2.8493  146.6370   50.8569 H   0  0  0  0  0  0  0  0  0  0  0  0
    1.5005  147.7124   50.4220 H   0  0  0  0  0  0  0  0  0  0  0  0
  1  2  1  0
  2  3  2  0
  3  4  1  0
  3  5  1  0
  5  6  1  0
  6  7  1  0
  7  8  1  0
  7  9  1  0
  7 10  1  0
  5 11  2  0
 11 12  1  0
 11 13  1  0
 13 14  1  0
 14 15  1  0
 14 16  1  0
 14 17  1  0
 17 18  2  0
 17 19  1  0
 19 20  1  0
 19 21  1  0
 21 22  2  0
 22 23  1  0
 23 24  1  0
 24 25  2  0
 24 26  1  0
 26 27  1  0
 27 28  1  0
 27 29  1  0
 27 30  1  0
 30 31  1  0
 30 32  1  0
 30 33  1  0
 26 34  1  0
 34 35  1  0
 34 36  1  0
 34 37  1  0
 37 38  1  0
 37 39  1  0
 37 40  1  0
 23 41  2  0
 41 42  1  0
 42 43  3  0
 41 44  1  0
 44 45  1  0
 45 46  1  0
 45 47  1  0
 44 48  2  0
 48 49  1  0
 13 50  2  0
 50 51  1  0
 51 52  1  0
 52 53  1  0
 52 54  1  0
 52 55  1  0
 50  2  1  0
 48 21  1  0
M  END
>  <score>  (191) 
7.09072

$$$$

     RDKit          3D

 52 54  0  0  0  0  0  0  0  0999 V2000
    5.1353  144.5556   50.7284 H   0  0  0  0  0  0  0  0  0  0  0  0
    4.5821  143.6370   50.8628 C   0  0  0  0  0  0  0  0  0  0  0  0
    3.4403  143.7697   51.5394 N   0  0  0  0  0  0  0  0  0  0  0  0
    2.7418  142.6731   51.8652 C   0  0  0  0  0  0  0  0  0  0  0  0
    1.5561  142.8802   52.7900 C   0  0  0  0  0  0  0  0  0  0  0  0
    0.7392  142.2274   52.4711 H   0  0  0  0  0  0  0  0  0  0  0  0
    1.1849  143.9097   52.7109 H   0  0  0  0  0  0  0  0  0  0  0  0
    1.9085  142.5913   54.1622 O   0  0  0  0  0  0  0  0  0  0  0  0
    2.6077  143.5454   54.8686 C   0  0  0  0  0  0  0  0  0  0  0  0
    2.7412  144.7723   54.3583 N   0  0  0  0  0  0  0  0  0  0  0  0
    3.3796  145.6625   55.0753 C   0  0  0  0  0  0  0  0  0  0  0  0
    3.5096  146.8623   54.4516 N   0  0  0  0  0  0  0  0  0  0  0  0
    3.2646  146.8994   53.4745 H   0  0  0  0  0  0  0  0  0  0  0  0
    3.6278  148.0275   55.1623 C   0  0  0  0  0  0  0  0  0  0  0  0
    3.7442  147.9770   56.3711 O   0  0  0  0  0  0  0  0  0  0  0  0
    3.6380  149.3986   54.4992 C   0  0  0  0  0  0  0  0  0  0  0  0
    4.4378  149.4430   53.7636 H   0  0  0  0  0  0  0  0  0  0  0  0
    3.8606  150.1422   55.2639 H   0  0  0  0  0  0  0  0  0  0  0  0
    2.3153  149.7587   53.8754 C   0  0  0  0  0  0  0  0  0  0  0  0
    1.5000  150.6668   54.5570 C   0  0  0  0  0  0  0  0  0  0  0  0
    1.8194  151.0816   55.5083 H   0  0  0  0  0  0  0  0  0  0  0  0
    0.2656  151.0530   54.0348 C   0  0  0  0  0  0  0  0  0  0  0  0
   -0.4769  151.9831   54.7084 O   0  0  0  0  0  0  0  0  0  0  0  0
   -1.4882  151.3979   55.5328 C   0  0  0  0  0  0  0  0  0  0  0  0
   -2.2479  150.9085   54.9189 H   0  0  0  0  0  0  0  0  0  0  0  0
   -1.9786  152.1646   56.1425 H   0  0  0  0  0  0  0  0  0  0  0  0
   -1.0467  150.6547   56.1994 H   0  0  0  0  0  0  0  0  0  0  0  0
   -0.2008  150.4658   52.8489 C   0  0  0  0  0  0  0  0  0  0  0  0
   -1.9407  150.8845   52.1590 Br  0  0  0  0  0  0  0  0  0  0  0  0
    0.6068  149.5473   52.1706 C   0  0  0  0  0  0  0  0  0  0  0  0
    0.2299  149.0954   51.2604 H   0  0  0  0  0  0  0  0  0  0  0  0
    1.8803  149.2021   52.6564 C   0  0  0  0  0  0  0  0  0  0  0  0
    2.7096  148.3306   51.9886 O   0  0  0  0  0  0  0  0  0  0  0  0
    2.0710  147.2852   51.2382 C   0  0  0  0  0  0  0  0  0  0  0  0
    1.3955  146.7109   51.8766 H   0  0  0  0  0  0  0  0  0  0  0  0
    2.8255  146.5985   50.8435 H   0  0  0  0  0  0  0  0  0  0  0  0
    1.4959  147.6830   50.3975 H   0  0  0  0  0  0  0  0  0  0  0  0
    3.8789  145.4041   56.3247 C   0  0  0  0  0  0  0  0  0  0  0  0
    4.4079  146.1700   56.8603 H   0  0  0  0  0  0  0  0  0  0  0  0
    3.7677  144.1443   56.8246 C   0  0  0  0  0  0  0  0  0  0  0  0
    4.3148  143.8816   58.0359 N   0  0  0  0  0  0  0  0  0  0  0  0
    4.0945  142.9709   58.4363 H   0  0  0  0  0  0  0  0  0  0  0  0
    4.4335  144.6794   58.6635 H   0  0  0  0  0  0  0  0  0  0  0  0
    3.1520  143.1754   56.0818 C   0  0  0  0  0  0  0  0  0  0  0  0
    3.1289  141.8008   56.4597 C   0  0  0  0  0  0  0  0  0  0  0  0
    3.1291  140.6579   56.6741 N   0  0  0  0  0  0  0  0  0  0  0  0
    3.1466  141.3893   51.4358 C   0  0  0  0  0  0  0  0  0  0  0  0
    2.6118  140.5035   51.7628 H   0  0  0  0  0  0  0  0  0  0  0  0
    4.3259  141.2485   50.6971 C   0  0  0  0  0  0  0  0  0  0  0  0
    4.6863  140.2781   50.3613 H   0  0  0  0  0  0  0  0  0  0  0  0
    5.0595  142.3962   50.4251 C   0  0  0  0  0  0  0  0  0  0  0  0
    6.0039  142.3271   49.8980 H   0  0  0  0  0  0  0  0  0  0  0  0
  1  2  1  0
  2  3  2  0
  3  4  1  0
  4  5  1  0
  5  6  1  0
  5  7  1  0
  5  8  1  0
  8  9  1  0
  9 10  2  0
 10 11  1  0
 11 12  1  0
 12 13  1  0
 12 14  1  0
 14 15  2  0
 14 16  1  0
 16 17  1  0
 16 18  1  0
 16 19  1  0
 19 20  2  0
 20 21  1  0
 20 22  1  0
 22 23  1  0
 23 24  1  0
 24 25  1  0
 24 26  1  0
 24 27  1  0
 22 28  2  0
 28 29  1  0
 28 30  1  0
 30 31  1  0
 30 32  2  0
 32 33  1  0
 33 34  1  0
 34 35  1  0
 34 36  1  0
 34 37  1  0
 11 38  2  0
 38 39  1  0
 38 40  1  0
 40 41  1  0
 41 42  1  0
 41 43  1  0
 40 44  2  0
 44 45  1  0
 45 46  3  0
  4 47  2  0
 47 48  1  0
 47 49  1  0
 49 50  1  0
 49 51  2  0
 51 52  1  0
 51  2  1  0
 44  9  1  0
 32 19  1  0
M  END
>  <score>  (192) 
7.0924

$$$$

     RDKit          3D

 61 63  0  0  0  0  0  0  0  0999 V2000
    0.2569  149.1012   51.2517 H   0  0  0  0  0  0  0  0  0  0  0  0
    0.6127  149.5448   52.1764 C   0  0  0  0  0  0  0  0  0  0  0  0
   -0.1976  150.4662   52.8602 C   0  0  0  0  0  0  0  0  0  0  0  0
   -1.9365  150.8989   52.1797 Br  0  0  0  0  0  0  0  0  0  0  0  0
    0.2644  151.0534   54.0504 C   0  0  0  0  0  0  0  0  0  0  0  0
   -0.4658  151.9876   54.7311 O   0  0  0  0  0  0  0  0  0  0  0  0
   -1.4773  151.3955   55.5454 C   0  0  0  0  0  0  0  0  0  0  0  0
   -1.9674  152.1667   56.1443 H   0  0  0  0  0  0  0  0  0  0  0  0
   -2.2300  150.9011   54.9256 H   0  0  0  0  0  0  0  0  0  0  0  0
   -1.0409  150.6578   56.2221 H   0  0  0  0  0  0  0  0  0  0  0  0
    1.5062  150.6846   54.5580 C   0  0  0  0  0  0  0  0  0  0  0  0
    1.8470  151.1228   55.4919 H   0  0  0  0  0  0  0  0  0  0  0  0
    2.3183  149.7745   53.8777 C   0  0  0  0  0  0  0  0  0  0  0  0
    3.6486  149.4524   54.4960 C   0  0  0  0  0  0  0  0  0  0  0  0
    3.8598  150.2132   55.2426 H   0  0  0  0  0  0  0  0  0  0  0  0
    4.4346  149.4775   53.7410 H   0  0  0  0  0  0  0  0  0  0  0  0
    3.6698  148.1141   55.2092 C   0  0  0  0  0  0  0  0  0  0  0  0
    3.7582  148.0799   56.4221 O   0  0  0  0  0  0  0  0  0  0  0  0
    3.6609  146.9544   54.5027 N   0  0  0  0  0  0  0  0  0  0  0  0
    3.3531  146.9554   53.5421 H   0  0  0  0  0  0  0  0  0  0  0  0
    3.5235  145.7695   55.1039 C   0  0  0  0  0  0  0  0  0  0  0  0
    2.9953  144.9657   54.2501 N   0  0  0  0  0  0  0  0  0  0  0  0
    2.8585  143.7077   54.5835 C   0  0  0  0  0  0  0  0  0  0  0  0
    2.3974  142.9461   53.5687 N   0  0  0  0  0  0  0  0  0  0  0  0
    2.1895  141.9788   53.7145 H   0  0  0  0  0  0  0  0  0  0  0  0
    2.6346  143.3604   52.3021 C   0  0  0  0  0  0  0  0  0  0  0  0
    3.1886  144.4112   52.0414 O   0  0  0  0  0  0  0  0  0  0  0  0
    2.1257  142.5934   51.3178 N   0  0  0  0  0  0  0  0  0  0  0  0
    1.4238  141.9284   51.6085 H   0  0  0  0  0  0  0  0  0  0  0  0
    2.0852  143.0963   49.9645 C   0  0  0  0  0  0  0  0  0  0  0  0
    1.8463  144.1629   49.9777 H   0  0  0  0  0  0  0  0  0  0  0  0
    0.9646  142.3459   49.2857 C   0  0  0  0  0  0  0  0  0  0  0  0
    0.1717  142.2288   50.0211 H   0  0  0  0  0  0  0  0  0  0  0  0
    0.6119  142.9220   48.4313 H   0  0  0  0  0  0  0  0  0  0  0  0
    1.3201  140.9480   48.8568 C   0  0  0  0  0  0  0  0  0  0  0  0
    0.5678  140.5777   48.1492 H   0  0  0  0  0  0  0  0  0  0  0  0
    1.2828  140.3524   49.7625 H   0  0  0  0  0  0  0  0  0  0  0  0
    2.7126  140.7792   48.2966 C   0  0  0  0  0  0  0  0  0  0  0  0
    2.7509  141.1932   47.2864 H   0  0  0  0  0  0  0  0  0  0  0  0
    2.8749  139.7045   48.2395 H   0  0  0  0  0  0  0  0  0  0  0  0
    3.7710  141.4308   49.1980 C   0  0  0  0  0  0  0  0  0  0  0  0
    4.7744  141.2956   48.7916 H   0  0  0  0  0  0  0  0  0  0  0  0
    3.7682  140.9590   50.1881 H   0  0  0  0  0  0  0  0  0  0  0  0
    3.4506  142.9171   49.3178 C   0  0  0  0  0  0  0  0  0  0  0  0
    4.2098  143.4231   49.9232 H   0  0  0  0  0  0  0  0  0  0  0  0
    3.4572  143.3788   48.3248 H   0  0  0  0  0  0  0  0  0  0  0  0
    3.1789  143.2164   55.8178 C   0  0  0  0  0  0  0  0  0  0  0  0
    3.0864  141.8266   56.1139 C   0  0  0  0  0  0  0  0  0  0  0  0
    3.0423  140.6847   56.3204 N   0  0  0  0  0  0  0  0  0  0  0  0
    3.6462  144.1300   56.7240 C   0  0  0  0  0  0  0  0  0  0  0  0
    3.9428  143.8007   57.9946 N   0  0  0  0  0  0  0  0  0  0  0  0
    4.1187  142.8229   58.1939 H   0  0  0  0  0  0  0  0  0  0  0  0
    4.4638  144.4928   58.5230 H   0  0  0  0  0  0  0  0  0  0  0  0
    3.8630  145.4260   56.3740 C   0  0  0  0  0  0  0  0  0  0  0  0
    4.2853  146.1392   57.0594 H   0  0  0  0  0  0  0  0  0  0  0  0
    1.8841  149.1987   52.6678 C   0  0  0  0  0  0  0  0  0  0  0  0
    2.7222  148.3357   51.9994 O   0  0  0  0  0  0  0  0  0  0  0  0
    2.0861  147.2883   51.2551 C   0  0  0  0  0  0  0  0  0  0  0  0
    1.4041  146.7271   51.9017 H   0  0  0  0  0  0  0  0  0  0  0  0
    2.8437  146.5973   50.8715 H   0  0  0  0  0  0  0  0  0  0  0  0
    1.5230  147.6906   50.4071 H   0  0  0  0  0  0  0  0  0  0  0  0
  1  2  1  0
  2  3  2  0
  3  4  1  0
  3  5  1  0
  5  6  1  0
  6  7  1  0
  7  8  1  0
  7  9  1  0
  7 10  1  0
  5 11  2  0
 11 12  1  0
 11 13  1  0
 13 14  1  0
 14 15  1  0
 14 16  1  0
 14 17  1  0
 17 18  2  0
 17 19  1  0
 19 20  1  0
 19 21  1  0
 21 22  2  0
 22 23  1  0
 23 24  1  0
 24 25  1  0
 24 26  1  0
 26 27  2  0
 26 28  1  0
 28 29  1  0
 28 30  1  0
 30 31  1  0
 30 32  1  0
 32 33  1  0
 32 34  1  0
 32 35  1  0
 35 36  1  0
 35 37  1  0
 35 38  1  0
 38 39  1  0
 38 40  1  0
 38 41  1  0
 41 42  1  0
 41 43  1  0
 41 44  1  0
 44 45  1  0
 44 46  1  0
 23 47  2  0
 47 48  1  0
 48 49  3  0
 47 50  1  0
 50 51  1  0
 51 52  1  0
 51 53  1  0
 50 54  2  0
 54 55  1  0
 13 56  2  0
 56 57  1  0
 57 58  1  0
 58 59  1  0
 58 60  1  0
 58 61  1  0
 56  2  1  0
 54 21  1  0
 44 30  1  0
M  END
>  <score>  (193) 
7.09637

$$$$

     RDKit          3D

 54 55  0  0  0  0  0  0  0  0999 V2000
    0.3069  149.2002   51.2495 H   0  0  0  0  0  0  0  0  0  0  0  0
    0.6574  149.6040   52.1956 C   0  0  0  0  0  0  0  0  0  0  0  0
   -0.1449  150.4980   52.9340 C   0  0  0  0  0  0  0  0  0  0  0  0
   -1.8736  150.9859   52.2777 Br  0  0  0  0  0  0  0  0  0  0  0  0
    0.3318  151.0567   54.1313 C   0  0  0  0  0  0  0  0  0  0  0  0
   -0.3783  151.9744   54.8569 O   0  0  0  0  0  0  0  0  0  0  0  0
   -1.4252  151.4036   55.6452 C   0  0  0  0  0  0  0  0  0  0  0  0
   -2.1510  150.8758   55.0199 H   0  0  0  0  0  0  0  0  0  0  0  0
   -1.0127  150.7021   56.3703 H   0  0  0  0  0  0  0  0  0  0  0  0
   -1.9394  152.2010   56.1884 H   0  0  0  0  0  0  0  0  0  0  0  0
    1.5947  150.6864   54.5757 C   0  0  0  0  0  0  0  0  0  0  0  0
    1.9904  151.1405   55.4733 H   0  0  0  0  0  0  0  0  0  0  0  0
    2.3783  149.7844   53.8604 C   0  0  0  0  0  0  0  0  0  0  0  0
    3.7228  149.4747   54.4022 C   0  0  0  0  0  0  0  0  0  0  0  0
    3.9908  150.3462   54.9803 H   0  0  0  0  0  0  0  0  0  0  0  0
    4.4102  149.3627   53.5639 H   0  0  0  0  0  0  0  0  0  0  0  0
    3.7485  148.2114   55.2644 C   0  0  0  0  0  0  0  0  0  0  0  0
    3.8472  148.2679   56.4810 O   0  0  0  0  0  0  0  0  0  0  0  0
    3.7147  147.0002   54.6410 N   0  0  0  0  0  0  0  0  0  0  0  0
    3.5126  146.9558   53.6541 H   0  0  0  0  0  0  0  0  0  0  0  0
    3.5460  145.8040   55.2315 C   0  0  0  0  0  0  0  0  0  0  0  0
    3.0658  144.9778   54.3252 N   0  0  0  0  0  0  0  0  0  0  0  0
    2.9283  143.6900   54.6362 C   0  0  0  0  0  0  0  0  0  0  0  0
    2.3881  142.7794   53.5591 C   0  0  0  0  0  0  0  0  0  0  0  0
    1.7638  142.0417   54.0593 H   0  0  0  0  0  0  0  0  0  0  0  0
    1.7603  143.3698   52.8845 H   0  0  0  0  0  0  0  0  0  0  0  0
    3.5103  142.0834   52.7545 C   0  0  0  0  0  0  0  0  0  0  0  0
    4.1730  141.5793   53.4662 H   0  0  0  0  0  0  0  0  0  0  0  0
    4.0900  142.8478   52.2211 H   0  0  0  0  0  0  0  0  0  0  0  0
    3.0363  141.0282   51.7331 C   0  0  0  0  0  0  0  0  0  0  0  0
    2.3817  140.3168   52.2465 H   0  0  0  0  0  0  0  0  0  0  0  0
    4.3064  140.3179   51.2065 C   0  0  0  0  0  0  0  0  0  0  0  0
    4.9866  141.0473   50.7639 H   0  0  0  0  0  0  0  0  0  0  0  0
    4.8267  139.8402   52.0378 H   0  0  0  0  0  0  0  0  0  0  0  0
    4.1131  139.5497   50.4531 H   0  0  0  0  0  0  0  0  0  0  0  0
    2.2403  141.6664   50.5879 C   0  0  0  0  0  0  0  0  0  0  0  0
    2.8313  142.4477   50.1008 H   0  0  0  0  0  0  0  0  0  0  0  0
    1.3159  142.1151   50.9670 H   0  0  0  0  0  0  0  0  0  0  0  0
    1.9736  140.9118   49.8412 H   0  0  0  0  0  0  0  0  0  0  0  0
    3.2645  143.2103   55.8958 C   0  0  0  0  0  0  0  0  0  0  0  0
    3.1397  141.8259   56.2206 C   0  0  0  0  0  0  0  0  0  0  0  0
    3.0404  140.6898   56.4485 N   0  0  0  0  0  0  0  0  0  0  0  0
    3.7446  144.1178   56.8068 C   0  0  0  0  0  0  0  0  0  0  0  0
    4.1479  143.7247   58.0304 N   0  0  0  0  0  0  0  0  0  0  0  0
    4.4989  144.4273   58.6717 H   0  0  0  0  0  0  0  0  0  0  0  0
    4.0637  142.7492   58.2980 H   0  0  0  0  0  0  0  0  0  0  0  0
    3.8924  145.4387   56.5035 C   0  0  0  0  0  0  0  0  0  0  0  0
    4.3126  146.1286   57.2243 H   0  0  0  0  0  0  0  0  0  0  0  0
    1.9344  149.2360   52.6524 C   0  0  0  0  0  0  0  0  0  0  0  0
    2.7743  148.4038   51.9475 O   0  0  0  0  0  0  0  0  0  0  0  0
    2.1641  147.2968   51.2805 C   0  0  0  0  0  0  0  0  0  0  0  0
    2.9481  146.5976   50.9719 H   0  0  0  0  0  0  0  0  0  0  0  0
    1.4739  146.7721   51.9500 H   0  0  0  0  0  0  0  0  0  0  0  0
    1.6218  147.6375   50.3944 H   0  0  0  0  0  0  0  0  0  0  0  0
  1  2  1  0
  2  3  2  0
  3  4  1  0
  3  5  1  0
  5  6  1  0
  6  7  1  0
  7  8  1  0
  7  9  1  0
  7 10  1  0
  5 11  2  0
 11 12  1  0
 11 13  1  0
 13 14  1  0
 14 15  1  0
 14 16  1  0
 14 17  1  0
 17 18  2  0
 17 19  1  0
 19 20  1  0
 19 21  1  0
 21 22  2  0
 22 23  1  0
 23 24  1  0
 24 25  1  0
 24 26  1  0
 24 27  1  0
 27 28  1  0
 27 29  1  0
 27 30  1  0
 30 31  1  0
 30 32  1  0
 32 33  1  0
 32 34  1  0
 32 35  1  0
 30 36  1  0
 36 37  1  0
 36 38  1  0
 36 39  1  0
 23 40  2  0
 40 41  1  0
 41 42  3  0
 40 43  1  0
 43 44  1  0
 44 45  1  0
 44 46  1  0
 43 47  2  0
 47 48  1  0
 13 49  2  0
 49 50  1  0
 50 51  1  0
 51 52  1  0
 51 53  1  0
 51 54  1  0
 49  2  1  0
 47 21  1  0
M  END
>  <score>  (194) 
7.09757

$$$$

     RDKit          3D

 54 56  0  0  0  0  0  0  0  0999 V2000
    6.1883  142.0319   48.9747 H   0  0  0  0  0  0  0  0  0  0  0  0
    5.4045  142.2527   49.6879 C   0  0  0  0  0  0  0  0  0  0  0  0
    5.3679  141.6028   50.9149 C   0  0  0  0  0  0  0  0  0  0  0  0
    6.1408  140.8729   51.1410 H   0  0  0  0  0  0  0  0  0  0  0  0
    4.3183  141.8746   51.8069 C   0  0  0  0  0  0  0  0  0  0  0  0
    4.2730  141.3091   52.7250 H   0  0  0  0  0  0  0  0  0  0  0  0
    3.3435  142.8536   51.5234 C   0  0  0  0  0  0  0  0  0  0  0  0
    2.1253  143.1048   52.4001 C   0  0  0  0  0  0  0  0  0  0  0  0
    1.8099  144.1515   52.2927 H   0  0  0  0  0  0  0  0  0  0  0  0
    1.2986  142.4675   52.0601 H   0  0  0  0  0  0  0  0  0  0  0  0
    2.3475  142.8091   53.8171 N   0  0  0  0  0  0  0  0  0  0  0  0
    2.3373  141.8566   54.1455 H   0  0  0  0  0  0  0  0  0  0  0  0
    2.9208  143.6884   54.6725 C   0  0  0  0  0  0  0  0  0  0  0  0
    3.0746  144.9178   54.2483 N   0  0  0  0  0  0  0  0  0  0  0  0
    3.5700  145.7565   55.1111 C   0  0  0  0  0  0  0  0  0  0  0  0
    3.6890  146.9478   54.5119 N   0  0  0  0  0  0  0  0  0  0  0  0
    3.3869  146.9591   53.5519 H   0  0  0  0  0  0  0  0  0  0  0  0
    3.7002  148.1153   55.1966 C   0  0  0  0  0  0  0  0  0  0  0  0
    3.7904  148.1189   56.4126 O   0  0  0  0  0  0  0  0  0  0  0  0
    3.6860  149.4238   54.4378 C   0  0  0  0  0  0  0  0  0  0  0  0
    3.9384  150.1906   55.1549 H   0  0  0  0  0  0  0  0  0  0  0  0
    4.4341  149.4112   53.6413 H   0  0  0  0  0  0  0  0  0  0  0  0
    2.3401  149.7574   53.8697 C   0  0  0  0  0  0  0  0  0  0  0  0
    1.5474  150.6610   54.5737 C   0  0  0  0  0  0  0  0  0  0  0  0
    1.9084  151.0991   55.4990 H   0  0  0  0  0  0  0  0  0  0  0  0
    0.2999  151.0403   54.0897 C   0  0  0  0  0  0  0  0  0  0  0  0
   -0.4012  151.9819   54.7870 O   0  0  0  0  0  0  0  0  0  0  0  0
   -1.4304  151.4044   55.5874 C   0  0  0  0  0  0  0  0  0  0  0  0
   -2.1618  150.8925   54.9565 H   0  0  0  0  0  0  0  0  0  0  0  0
   -1.9391  152.1858   56.1586 H   0  0  0  0  0  0  0  0  0  0  0  0
   -1.0069  150.6834   56.2891 H   0  0  0  0  0  0  0  0  0  0  0  0
   -0.1907  150.4736   52.9010 C   0  0  0  0  0  0  0  0  0  0  0  0
   -1.9255  150.9581   52.2423 Br  0  0  0  0  0  0  0  0  0  0  0  0
    0.6134  149.5713   52.1843 C   0  0  0  0  0  0  0  0  0  0  0  0
    0.2666  149.1634   51.2406 H   0  0  0  0  0  0  0  0  0  0  0  0
    1.8903  149.2171   52.6562 C   0  0  0  0  0  0  0  0  0  0  0  0
    2.7436  148.3923   51.9644 O   0  0  0  0  0  0  0  0  0  0  0  0
    2.1306  147.3057   51.2693 C   0  0  0  0  0  0  0  0  0  0  0  0
    1.5769  147.6659   50.3979 H   0  0  0  0  0  0  0  0  0  0  0  0
    1.4478  146.7706   51.9359 H   0  0  0  0  0  0  0  0  0  0  0  0
    2.9014  146.6068   50.9299 H   0  0  0  0  0  0  0  0  0  0  0  0
    3.8922  145.4531   56.4113 C   0  0  0  0  0  0  0  0  0  0  0  0
    4.2569  146.1782   57.1193 H   0  0  0  0  0  0  0  0  0  0  0  0
    3.7488  144.1563   56.7801 C   0  0  0  0  0  0  0  0  0  0  0  0
    4.0849  143.7873   58.0268 N   0  0  0  0  0  0  0  0  0  0  0  0
    4.0752  142.7992   58.2672 H   0  0  0  0  0  0  0  0  0  0  0  0
    4.4768  144.4818   58.6570 H   0  0  0  0  0  0  0  0  0  0  0  0
    3.2723  143.2360   55.9068 C   0  0  0  0  0  0  0  0  0  0  0  0
    3.1508  141.8591   56.2244 C   0  0  0  0  0  0  0  0  0  0  0  0
    3.0524  140.7108   56.3865 N   0  0  0  0  0  0  0  0  0  0  0  0
    3.4476  143.5373   50.3023 C   0  0  0  0  0  0  0  0  0  0  0  0
    2.7362  144.3224   50.0641 H   0  0  0  0  0  0  0  0  0  0  0  0
    4.4487  143.2170   49.3807 C   0  0  0  0  0  0  0  0  0  0  0  0
    4.5259  143.7285   48.4313 H   0  0  0  0  0  0  0  0  0  0  0  0
  1  2  1  0
  2  3  2  0
  3  4  1  0
  3  5  1  0
  5  6  1  0
  5  7  2  0
  7  8  1  0
  8  9  1  0
  8 10  1  0
  8 11  1  0
 11 12  1  0
 11 13  1  0
 13 14  2  0
 14 15  1  0
 15 16  1  0
 16 17  1  0
 16 18  1  0
 18 19  2  0
 18 20  1  0
 20 21  1  0
 20 22  1  0
 20 23  1  0
 23 24  2  0
 24 25  1  0
 24 26  1  0
 26 27  1  0
 27 28  1  0
 28 29  1  0
 28 30  1  0
 28 31  1  0
 26 32  2  0
 32 33  1  0
 32 34  1  0
 34 35  1  0
 34 36  2  0
 36 37  1  0
 37 38  1  0
 38 39  1  0
 38 40  1  0
 38 41  1  0
 15 42  2  0
 42 43  1  0
 42 44  1  0
 44 45  1  0
 45 46  1  0
 45 47  1  0
 44 48  2  0
 48 49  1  0
 49 50  3  0
  7 51  1  0
 51 52  1  0
 51 53  2  0
 53 54  1  0
 53  2  1  0
 48 13  1  0
 36 23  1  0
M  END
>  <score>  (195) 
7.10089

$$$$

     RDKit          3D

 54 56  0  0  0  0  0  0  0  0999 V2000
    0.2361  149.1259   51.2553 H   0  0  0  0  0  0  0  0  0  0  0  0
    0.5988  149.5520   52.1810 C   0  0  0  0  0  0  0  0  0  0  0  0
   -0.2086  150.4660   52.8731 C   0  0  0  0  0  0  0  0  0  0  0  0
   -1.9447  150.9200   52.2037 Br  0  0  0  0  0  0  0  0  0  0  0  0
    0.2718  151.0453   54.0560 C   0  0  0  0  0  0  0  0  0  0  0  0
   -0.4386  151.9901   54.7408 O   0  0  0  0  0  0  0  0  0  0  0  0
   -1.4550  151.4037   55.5505 C   0  0  0  0  0  0  0  0  0  0  0  0
   -2.1983  150.9005   54.9232 H   0  0  0  0  0  0  0  0  0  0  0  0
   -1.0133  150.6713   56.2319 H   0  0  0  0  0  0  0  0  0  0  0  0
   -1.9535  152.1779   56.1430 H   0  0  0  0  0  0  0  0  0  0  0  0
    1.5130  150.6638   54.5573 C   0  0  0  0  0  0  0  0  0  0  0  0
    1.8488  151.0911   55.4969 H   0  0  0  0  0  0  0  0  0  0  0  0
    2.3206  149.7534   53.8716 C   0  0  0  0  0  0  0  0  0  0  0  0
    3.6589  149.4076   54.4740 C   0  0  0  0  0  0  0  0  0  0  0  0
    4.4328  149.4523   53.7054 H   0  0  0  0  0  0  0  0  0  0  0  0
    3.8949  150.1423   55.2418 H   0  0  0  0  0  0  0  0  0  0  0  0
    3.6740  148.0442   55.1432 C   0  0  0  0  0  0  0  0  0  0  0  0
    3.7711  147.9855   56.3575 O   0  0  0  0  0  0  0  0  0  0  0  0
    3.5976  146.8959   54.4150 N   0  0  0  0  0  0  0  0  0  0  0  0
    3.2954  146.9479   53.4542 H   0  0  0  0  0  0  0  0  0  0  0  0
    3.4669  145.6860   54.9932 C   0  0  0  0  0  0  0  0  0  0  0  0
    2.8917  144.8189   54.1963 N   0  0  0  0  0  0  0  0  0  0  0  0
    2.7254  143.5726   54.6496 C   0  0  0  0  0  0  0  0  0  0  0  0
    1.9964  142.6538   53.9248 O   0  0  0  0  0  0  0  0  0  0  0  0
    1.4853  143.0409   52.6223 C   0  0  0  0  0  0  0  0  0  0  0  0
    0.5576  142.4871   52.4253 H   0  0  0  0  0  0  0  0  0  0  0  0
    1.2473  144.1151   52.5826 H   0  0  0  0  0  0  0  0  0  0  0  0
    2.5475  142.7301   51.5460 C   0  0  1  0  0  0  0  0  0  0  0  0
    2.7525  141.6520   51.5522 H   0  0  0  0  0  0  0  0  0  0  0  0
    2.2494  143.1542   50.2066 O   0  0  0  0  0  0  0  0  0  0  0  0
    3.4747  143.5240   49.5439 C   0  0  0  0  0  0  0  0  0  0  0  0
    3.8288  142.7229   48.8952 H   0  0  0  0  0  0  0  0  0  0  0  0
    3.3422  144.4212   48.9375 H   0  0  0  0  0  0  0  0  0  0  0  0
    4.4904  143.8171   50.6199 C   0  0  0  0  0  0  0  0  0  0  0  0
    4.8097  144.8642   50.5762 H   0  0  0  0  0  0  0  0  0  0  0  0
    5.3561  143.1612   50.5358 H   0  0  0  0  0  0  0  0  0  0  0  0
    3.7600  143.5462   51.8990 C   0  0  0  0  0  0  0  0  0  0  0  0
    4.3348  143.0248   52.6624 H   0  0  0  0  0  0  0  0  0  0  0  0
    3.4278  144.5102   52.2776 H   0  0  0  0  0  0  0  0  0  0  0  0
    3.2019  143.1752   55.8811 C   0  0  0  0  0  0  0  0  0  0  0  0
    3.1385  141.8027   56.2631 C   0  0  0  0  0  0  0  0  0  0  0  0
    3.0987  140.6661   56.4878 N   0  0  0  0  0  0  0  0  0  0  0  0
    3.7298  144.1237   56.7043 C   0  0  0  0  0  0  0  0  0  0  0  0
    4.1287  143.8190   57.9605 N   0  0  0  0  0  0  0  0  0  0  0  0
    4.4256  144.5687   58.5826 H   0  0  0  0  0  0  0  0  0  0  0  0
    4.0796  142.8573   58.2925 H   0  0  0  0  0  0  0  0  0  0  0  0
    3.8529  145.4048   56.2771 C   0  0  0  0  0  0  0  0  0  0  0  0
    4.2663  146.1569   56.9270 H   0  0  0  0  0  0  0  0  0  0  0  0
    1.8779  149.2052   52.6559 C   0  0  0  0  0  0  0  0  0  0  0  0
    2.7249  148.3582   51.9813 O   0  0  0  0  0  0  0  0  0  0  0  0
    2.0919  147.3018   51.2552 C   0  0  0  0  0  0  0  0  0  0  0  0
    1.4062  146.7455   51.9047 H   0  0  0  0  0  0  0  0  0  0  0  0
    2.8583  146.6116   50.8904 H   0  0  0  0  0  0  0  0  0  0  0  0
    1.5349  147.6952   50.3985 H   0  0  0  0  0  0  0  0  0  0  0  0
  1  2  1  0
  2  3  2  0
  3  4  1  0
  3  5  1  0
  5  6  1  0
  6  7  1  0
  7  8  1  0
  7  9  1  0
  7 10  1  0
  5 11  2  0
 11 12  1  0
 11 13  1  0
 13 14  1  0
 14 15  1  0
 14 16  1  0
 14 17  1  0
 17 18  2  0
 17 19  1  0
 19 20  1  0
 19 21  1  0
 21 22  2  0
 22 23  1  0
 23 24  1  0
 24 25  1  0
 25 26  1  0
 25 27  1  0
 25 28  1  0
 28 29  1  6
 28 30  1  0
 30 31  1  0
 31 32  1  0
 31 33  1  0
 31 34  1  0
 34 35  1  0
 34 36  1  0
 34 37  1  0
 37 38  1  0
 37 39  1  0
 23 40  2  0
 40 41  1  0
 41 42  3  0
 40 43  1  0
 43 44  1  0
 44 45  1  0
 44 46  1  0
 43 47  2  0
 47 48  1  0
 13 49  2  0
 49 50  1  0
 50 51  1  0
 51 52  1  0
 51 53  1  0
 51 54  1  0
 49  2  1  0
 47 21  1  0
 37 28  1  0
M  END
>  <score>  (196) 
7.1045

$$$$

     RDKit          3D

 50 52  0  0  0  0  0  0  0  0999 V2000
   -0.1795  140.8009   52.8182 H   0  0  0  0  0  0  0  0  0  0  0  0
    0.0480  140.8885   51.8791 O   0  0  0  0  0  0  0  0  0  0  0  0
    1.1712  141.6447   51.7921 C   0  0  0  0  0  0  0  0  0  0  0  0
    1.8627  141.7964   50.5935 C   0  0  0  0  0  0  0  0  0  0  0  0
    1.4791  141.3046   49.7075 H   0  0  0  0  0  0  0  0  0  0  0  0
    3.0376  142.5596   50.5520 C   0  0  0  0  0  0  0  0  0  0  0  0
    3.5809  142.7148   49.6167 H   0  0  0  0  0  0  0  0  0  0  0  0
    3.5052  143.1497   51.7393 C   0  0  0  0  0  0  0  0  0  0  0  0
    4.4174  143.7420   51.7102 H   0  0  0  0  0  0  0  0  0  0  0  0
    2.8106  143.0000   52.9644 C   0  0  0  0  0  0  0  0  0  0  0  0
    3.2228  143.7659   54.1665 C   0  0  0  0  0  0  0  0  0  0  0  0
    3.4429  145.0554   53.9198 N   0  0  0  0  0  0  0  0  0  0  0  0
    3.7267  145.8536   54.9141 C   0  0  0  0  0  0  0  0  0  0  0  0
    3.7827  147.1056   54.4465 N   0  0  0  0  0  0  0  0  0  0  0  0
    3.5553  147.1922   53.4682 H   0  0  0  0  0  0  0  0  0  0  0  0
    3.6931  148.2158   55.2243 C   0  0  0  0  0  0  0  0  0  0  0  0
    3.7676  148.1450   56.4368 O   0  0  0  0  0  0  0  0  0  0  0  0
    3.6373  149.5568   54.5248 C   0  0  0  0  0  0  0  0  0  0  0  0
    4.4216  149.5834   53.7679 H   0  0  0  0  0  0  0  0  0  0  0  0
    3.8249  150.3471   55.2532 H   0  0  0  0  0  0  0  0  0  0  0  0
    2.2981  149.8121   53.8886 C   0  0  0  0  0  0  0  0  0  0  0  0
    1.4661  150.7093   54.5560 C   0  0  0  0  0  0  0  0  0  0  0  0
    1.7915  151.1500   55.4938 H   0  0  0  0  0  0  0  0  0  0  0  0
    0.2308  151.0710   54.0290 C   0  0  0  0  0  0  0  0  0  0  0  0
   -0.5135  152.0023   54.6978 O   0  0  0  0  0  0  0  0  0  0  0  0
   -1.5001  151.4002   55.5341 C   0  0  0  0  0  0  0  0  0  0  0  0
   -1.0428  150.6625   56.1984 H   0  0  0  0  0  0  0  0  0  0  0  0
   -1.9861  152.1662   56.1438 H   0  0  0  0  0  0  0  0  0  0  0  0
   -2.2588  150.9030   54.9249 H   0  0  0  0  0  0  0  0  0  0  0  0
   -0.2230  150.4638   52.8457 C   0  0  0  0  0  0  0  0  0  0  0  0
   -1.9601  150.8765   52.1512 Br  0  0  0  0  0  0  0  0  0  0  0  0
    0.5940  149.5385   52.1768 C   0  0  0  0  0  0  0  0  0  0  0  0
    0.2365  149.0738   51.2599 H   0  0  0  0  0  0  0  0  0  0  0  0
    1.8708  149.2140   52.6792 C   0  0  0  0  0  0  0  0  0  0  0  0
    2.7076  148.3367   52.0258 O   0  0  0  0  0  0  0  0  0  0  0  0
    2.0716  147.3082   51.2508 C   0  0  0  0  0  0  0  0  0  0  0  0
    2.8213  146.6031   50.8765 H   0  0  0  0  0  0  0  0  0  0  0  0
    1.5341  147.7278   50.3951 H   0  0  0  0  0  0  0  0  0  0  0  0
    1.3631  146.7548   51.8728 H   0  0  0  0  0  0  0  0  0  0  0  0
    3.8598  145.4603   56.2118 C   0  0  0  0  0  0  0  0  0  0  0  0
    4.1318  146.1617   56.9871 H   0  0  0  0  0  0  0  0  0  0  0  0
    3.6445  144.1457   56.4710 C   0  0  0  0  0  0  0  0  0  0  0  0
    3.7924  143.7719   57.7588 N   0  0  0  0  0  0  0  0  0  0  0  0
    4.2812  144.4436   58.3472 H   0  0  0  0  0  0  0  0  0  0  0  0
    3.9804  142.7890   57.9108 H   0  0  0  0  0  0  0  0  0  0  0  0
    3.3104  143.2564   55.4684 C   0  0  0  0  0  0  0  0  0  0  0  0
    3.0991  141.8770   55.7700 C   0  0  0  0  0  0  0  0  0  0  0  0
    2.9778  140.7554   56.0458 N   0  0  0  0  0  0  0  0  0  0  0  0
    1.6153  142.2727   52.9473 C   0  0  0  0  0  0  0  0  0  0  0  0
    0.9860  142.2276   53.8207 H   0  0  0  0  0  0  0  0  0  0  0  0
  1  2  1  0
  2  3  1  0
  3  4  2  0
  4  5  1  0
  4  6  1  0
  6  7  1  0
  6  8  2  0
  8  9  1  0
  8 10  1  0
 10 11  1  0
 11 12  2  0
 12 13  1  0
 13 14  1  0
 14 15  1  0
 14 16  1  0
 16 17  2  0
 16 18  1  0
 18 19  1  0
 18 20  1  0
 18 21  1  0
 21 22  2  0
 22 23  1  0
 22 24  1  0
 24 25  1  0
 25 26  1  0
 26 27  1  0
 26 28  1  0
 26 29  1  0
 24 30  2  0
 30 31  1  0
 30 32  1  0
 32 33  1  0
 32 34  2  0
 34 35  1  0
 35 36  1  0
 36 37  1  0
 36 38  1  0
 36 39  1  0
 13 40  2  0
 40 41  1  0
 40 42  1  0
 42 43  1  0
 43 44  1  0
 43 45  1  0
 42 46  2  0
 46 47  1  0
 47 48  3  0
 10 49  2  0
 49 50  1  0
 49  3  1  0
 46 11  1  0
 34 21  1  0
M  END
>  <score>  (197) 
7.10563

$$$$

     RDKit          3D

 52 54  0  0  0  0  0  0  0  0999 V2000
    5.7703  142.5643   49.7880 H   0  0  0  0  0  0  0  0  0  0  0  0
    4.8442  142.6197   50.3559 C   0  0  0  0  0  0  0  0  0  0  0  0
    4.1247  141.4998   50.5483 N   0  0  0  0  0  0  0  0  0  0  0  0
    3.0135  141.5922   51.2911 C   0  0  0  0  0  0  0  0  0  0  0  0
    2.4779  140.6603   51.4467 H   0  0  0  0  0  0  0  0  0  0  0  0
    2.5716  142.8077   51.8461 C   0  0  0  0  0  0  0  0  0  0  0  0
    1.4435  142.8797   52.8090 C   0  0  0  0  0  0  0  0  0  0  0  0
    1.0066  143.8858   52.8420 H   0  0  0  0  0  0  0  0  0  0  0  0
    0.6458  142.1797   52.5479 H   0  0  0  0  0  0  0  0  0  0  0  0
    2.0274  142.5134   54.0563 O   0  0  0  0  0  0  0  0  0  0  0  0
    2.7783  143.4649   54.6980 C   0  0  0  0  0  0  0  0  0  0  0  0
    2.9065  144.6941   54.1854 N   0  0  0  0  0  0  0  0  0  0  0  0
    3.4629  145.6132   54.9458 C   0  0  0  0  0  0  0  0  0  0  0  0
    3.5416  146.8408   54.3705 N   0  0  0  0  0  0  0  0  0  0  0  0
    3.2812  146.9022   53.3997 H   0  0  0  0  0  0  0  0  0  0  0  0
    3.6369  147.9958   55.1116 C   0  0  0  0  0  0  0  0  0  0  0  0
    3.7585  147.9229   56.3182 O   0  0  0  0  0  0  0  0  0  0  0  0
    3.6286  149.3884   54.4908 C   0  0  0  0  0  0  0  0  0  0  0  0
    3.8410  150.1163   55.2751 H   0  0  0  0  0  0  0  0  0  0  0  0
    4.4274  149.4621   53.7568 H   0  0  0  0  0  0  0  0  0  0  0  0
    2.3054  149.7544   53.8723 C   0  0  0  0  0  0  0  0  0  0  0  0
    1.4937  150.6684   54.5526 C   0  0  0  0  0  0  0  0  0  0  0  0
    1.8128  151.0907   55.4995 H   0  0  0  0  0  0  0  0  0  0  0  0
    0.2588  151.0565   54.0355 C   0  0  0  0  0  0  0  0  0  0  0  0
   -0.4781  151.9905   54.7081 O   0  0  0  0  0  0  0  0  0  0  0  0
   -1.4843  151.4002   55.5306 C   0  0  0  0  0  0  0  0  0  0  0  0
   -1.0362  150.6611   56.1978 H   0  0  0  0  0  0  0  0  0  0  0  0
   -1.9720  152.1689   56.1375 H   0  0  0  0  0  0  0  0  0  0  0  0
   -2.2419  150.9065   54.9161 H   0  0  0  0  0  0  0  0  0  0  0  0
   -0.2079  150.4666   52.8522 C   0  0  0  0  0  0  0  0  0  0  0  0
   -1.9461  150.8911   52.1641 Br  0  0  0  0  0  0  0  0  0  0  0  0
    0.5992  149.5473   52.1707 C   0  0  0  0  0  0  0  0  0  0  0  0
    0.2253  149.0976   51.2591 H   0  0  0  0  0  0  0  0  0  0  0  0
    1.8724  149.1989   52.6550 C   0  0  0  0  0  0  0  0  0  0  0  0
    2.7035  148.3267   51.9924 O   0  0  0  0  0  0  0  0  0  0  0  0
    2.0615  147.2953   51.2337 C   0  0  0  0  0  0  0  0  0  0  0  0
    2.8212  146.6193   50.8317 H   0  0  0  0  0  0  0  0  0  0  0  0
    1.4893  147.7121   50.4003 H   0  0  0  0  0  0  0  0  0  0  0  0
    1.3852  146.7144   51.8679 H   0  0  0  0  0  0  0  0  0  0  0  0
    3.8631  145.3654   56.2297 C   0  0  0  0  0  0  0  0  0  0  0  0
    4.2637  146.1449   56.8468 H   0  0  0  0  0  0  0  0  0  0  0  0
    3.7342  144.1146   56.7263 C   0  0  0  0  0  0  0  0  0  0  0  0
    4.0312  143.8955   58.0231 N   0  0  0  0  0  0  0  0  0  0  0  0
    4.1634  142.9346   58.3195 H   0  0  0  0  0  0  0  0  0  0  0  0
    4.4729  144.6491   58.5468 H   0  0  0  0  0  0  0  0  0  0  0  0
    3.2601  143.1145   55.9375 C   0  0  0  0  0  0  0  0  0  0  0  0
    3.1918  141.7556   56.3637 C   0  0  0  0  0  0  0  0  0  0  0  0
    3.1349  140.6254   56.6214 N   0  0  0  0  0  0  0  0  0  0  0  0
    3.3135  143.9601   51.6449 C   0  0  0  0  0  0  0  0  0  0  0  0
    3.0357  144.9090   52.0872 H   0  0  0  0  0  0  0  0  0  0  0  0
    4.4706  143.8510   50.9022 C   0  0  0  0  0  0  0  0  0  0  0  0
    5.1057  144.7143   50.8000 H   0  0  0  0  0  0  0  0  0  0  0  0
  1  2  1  0
  2  3  2  0
  3  4  1  0
  4  5  1  0
  4  6  2  0
  6  7  1  0
  7  8  1  0
  7  9  1  0
  7 10  1  0
 10 11  1  0
 11 12  2  0
 12 13  1  0
 13 14  1  0
 14 15  1  0
 14 16  1  0
 16 17  2  0
 16 18  1  0
 18 19  1  0
 18 20  1  0
 18 21  1  0
 21 22  2  0
 22 23  1  0
 22 24  1  0
 24 25  1  0
 25 26  1  0
 26 27  1  0
 26 28  1  0
 26 29  1  0
 24 30  2  0
 30 31  1  0
 30 32  1  0
 32 33  1  0
 32 34  2  0
 34 35  1  0
 35 36  1  0
 36 37  1  0
 36 38  1  0
 36 39  1  0
 13 40  2  0
 40 41  1  0
 40 42  1  0
 42 43  1  0
 43 44  1  0
 43 45  1  0
 42 46  2  0
 46 47  1  0
 47 48  3  0
  6 49  1  0
 49 50  1  0
 49 51  2  0
 51 52  1  0
 51  2  1  0
 46 11  1  0
 34 21  1  0
M  END
>  <score>  (198) 
7.10627

$$$$

     RDKit          3D

 50 52  0  0  0  0  0  0  0  0999 V2000
    0.3083  149.1959   51.2493 H   0  0  0  0  0  0  0  0  0  0  0  0
    0.6560  149.6031   52.1940 C   0  0  0  0  0  0  0  0  0  0  0  0
   -0.1483  150.4958   52.9353 C   0  0  0  0  0  0  0  0  0  0  0  0
   -1.8717  150.9861   52.2808 Br  0  0  0  0  0  0  0  0  0  0  0  0
    0.3317  151.0562   54.1287 C   0  0  0  0  0  0  0  0  0  0  0  0
   -0.3775  151.9755   54.8564 O   0  0  0  0  0  0  0  0  0  0  0  0
   -1.4241  151.4023   55.6425 C   0  0  0  0  0  0  0  0  0  0  0  0
   -1.9363  152.2030   56.1853 H   0  0  0  0  0  0  0  0  0  0  0  0
   -1.0114  150.6997   56.3695 H   0  0  0  0  0  0  0  0  0  0  0  0
   -2.1514  150.8745   55.0153 H   0  0  0  0  0  0  0  0  0  0  0  0
    1.5915  150.6835   54.5713 C   0  0  0  0  0  0  0  0  0  0  0  0
    1.9859  151.1437   55.4672 H   0  0  0  0  0  0  0  0  0  0  0  0
    2.3731  149.7732   53.8612 C   0  0  0  0  0  0  0  0  0  0  0  0
    3.7168  149.4628   54.4044 C   0  0  0  0  0  0  0  0  0  0  0  0
    3.9830  150.3384   54.9926 H   0  0  0  0  0  0  0  0  0  0  0  0
    4.4000  149.3610   53.5583 H   0  0  0  0  0  0  0  0  0  0  0  0
    3.7407  148.1804   55.2507 C   0  0  0  0  0  0  0  0  0  0  0  0
    3.8446  148.2223   56.4682 O   0  0  0  0  0  0  0  0  0  0  0  0
    3.7005  146.9669   54.6135 N   0  0  0  0  0  0  0  0  0  0  0  0
    3.4878  146.9251   53.6301 H   0  0  0  0  0  0  0  0  0  0  0  0
    3.4925  145.7720   55.1930 C   0  0  0  0  0  0  0  0  0  0  0  0
    2.9774  144.9477   54.2988 N   0  0  0  0  0  0  0  0  0  0  0  0
    2.8679  143.6635   54.6222 C   0  0  0  0  0  0  0  0  0  0  0  0
    2.4037  142.8131   53.6329 N   0  0  0  0  0  0  0  0  0  0  0  0
    1.4784  143.2665   52.7353 C   0  0  0  0  0  0  0  0  0  0  0  0
    0.7142  144.1963   52.9503 O   0  0  0  0  0  0  0  0  0  0  0  0
    1.3825  142.3405   51.5362 C   0  0  0  0  0  0  0  0  0  0  0  0
    1.4510  142.8936   50.5942 H   0  0  0  0  0  0  0  0  0  0  0  0
    0.4474  141.7705   51.5521 H   0  0  0  0  0  0  0  0  0  0  0  0
    2.5793  141.4068   51.7197 C   0  0  0  0  0  0  0  0  0  0  0  0
    3.3591  141.6532   50.9889 H   0  0  0  0  0  0  0  0  0  0  0  0
    2.2794  140.3699   51.5639 H   0  0  0  0  0  0  0  0  0  0  0  0
    3.0946  141.6182   53.1546 C   0  0  0  0  0  0  0  0  0  0  0  0
    2.8404  140.7519   53.7802 H   0  0  0  0  0  0  0  0  0  0  0  0
    4.1871  141.7381   53.1338 H   0  0  0  0  0  0  0  0  0  0  0  0
    3.2506  143.1877   55.8610 C   0  0  0  0  0  0  0  0  0  0  0  0
    3.1401  141.8090   56.1951 C   0  0  0  0  0  0  0  0  0  0  0  0
    3.0400  140.6755   56.4352 N   0  0  0  0  0  0  0  0  0  0  0  0
    3.7313  144.0949   56.7658 C   0  0  0  0  0  0  0  0  0  0  0  0
    4.1452  143.7180   57.9842 N   0  0  0  0  0  0  0  0  0  0  0  0
    4.0490  142.7439   58.2656 H   0  0  0  0  0  0  0  0  0  0  0  0
    4.4789  144.4401   58.6195 H   0  0  0  0  0  0  0  0  0  0  0  0
    3.8644  145.4089   56.4583 C   0  0  0  0  0  0  0  0  0  0  0  0
    4.2911  146.0976   57.1713 H   0  0  0  0  0  0  0  0  0  0  0  0
    1.9311  149.2357   52.6487 C   0  0  0  0  0  0  0  0  0  0  0  0
    2.7735  148.4023   51.9491 O   0  0  0  0  0  0  0  0  0  0  0  0
    2.1606  147.2978   51.2837 C   0  0  0  0  0  0  0  0  0  0  0  0
    1.6238  147.6411   50.3943 H   0  0  0  0  0  0  0  0  0  0  0  0
    2.9465  146.5974   50.9809 H   0  0  0  0  0  0  0  0  0  0  0  0
    1.4649  146.7760   51.9513 H   0  0  0  0  0  0  0  0  0  0  0  0
  1  2  1  0
  2  3  2  0
  3  4  1  0
  3  5  1  0
  5  6  1  0
  6  7  1  0
  7  8  1  0
  7  9  1  0
  7 10  1  0
  5 11  2  0
 11 12  1  0
 11 13  1  0
 13 14  1  0
 14 15  1  0
 14 16  1  0
 14 17  1  0
 17 18  2  0
 17 19  1  0
 19 20  1  0
 19 21  1  0
 21 22  2  0
 22 23  1  0
 23 24  1  0
 24 25  1  0
 25 26  2  0
 25 27  1  0
 27 28  1  0
 27 29  1  0
 27 30  1  0
 30 31  1  0
 30 32  1  0
 30 33  1  0
 33 34  1  0
 33 35  1  0
 23 36  2  0
 36 37  1  0
 37 38  3  0
 36 39  1  0
 39 40  1  0
 40 41  1  0
 40 42  1  0
 39 43  2  0
 43 44  1  0
 13 45  2  0
 45 46  1  0
 46 47  1  0
 47 48  1  0
 47 49  1  0
 47 50  1  0
 45  2  1  0
 43 21  1  0
 33 24  1  0
M  END
>  <score>  (199) 
7.1087

$$$$

     RDKit          3D

 48 49  0  0  0  0  0  0  0  0999 V2000
    0.2543  149.1303   51.2441 H   0  0  0  0  0  0  0  0  0  0  0  0
    0.5887  149.5549   52.1855 C   0  0  0  0  0  0  0  0  0  0  0  0
   -0.2237  150.4586   52.8904 C   0  0  0  0  0  0  0  0  0  0  0  0
   -1.9567  150.9423   52.2268 Br  0  0  0  0  0  0  0  0  0  0  0  0
    0.2688  151.0454   54.0646 C   0  0  0  0  0  0  0  0  0  0  0  0
   -0.4313  151.9942   54.7454 O   0  0  0  0  0  0  0  0  0  0  0  0
   -1.4394  151.4032   55.5582 C   0  0  0  0  0  0  0  0  0  0  0  0
   -1.0020  150.6772   56.2494 H   0  0  0  0  0  0  0  0  0  0  0  0
   -2.1758  150.8945   54.9290 H   0  0  0  0  0  0  0  0  0  0  0  0
   -1.9376  152.1806   56.1416 H   0  0  0  0  0  0  0  0  0  0  0  0
    1.5055  150.6669   54.5632 C   0  0  0  0  0  0  0  0  0  0  0  0
    1.8476  151.1277   55.4823 H   0  0  0  0  0  0  0  0  0  0  0  0
    2.3149  149.7708   53.8731 C   0  0  0  0  0  0  0  0  0  0  0  0
    3.6752  149.5074   54.4481 C   0  0  0  0  0  0  0  0  0  0  0  0
    3.8565  150.3102   55.1580 H   0  0  0  0  0  0  0  0  0  0  0  0
    4.4415  149.5148   53.6574 H   0  0  0  0  0  0  0  0  0  0  0  0
    3.7455  148.2233   55.2511 C   0  0  0  0  0  0  0  0  0  0  0  0
    3.8174  148.2431   56.4659 O   0  0  0  0  0  0  0  0  0  0  0  0
    3.7958  147.0468   54.5890 N   0  0  0  0  0  0  0  0  0  0  0  0
    3.4302  147.0453   53.6508 H   0  0  0  0  0  0  0  0  0  0  0  0
    3.7151  145.8435   55.1799 C   0  0  0  0  0  0  0  0  0  0  0  0
    3.2687  145.0122   54.2641 N   0  0  0  0  0  0  0  0  0  0  0  0
    3.0706  143.7036   54.5380 C   0  0  0  0  0  0  0  0  0  0  0  0
    2.3366  142.6162   53.1600 S   0  0  0  0  0  0  0  0  0  0  0  0
    2.9151  141.2549   53.0527 O   0  0  0  0  0  0  0  0  0  0  0  0
    0.8888  142.4659   53.3394 O   0  0  0  0  0  0  0  0  0  0  0  0
    2.3922  143.4723   51.5519 C   0  0  0  0  0  0  0  0  0  0  0  0
    1.8309  144.4020   51.6754 H   0  0  0  0  0  0  0  0  0  0  0  0
    1.8293  142.8602   50.8407 H   0  0  0  0  0  0  0  0  0  0  0  0
    3.7877  143.7506   50.9965 C   0  0  0  0  0  0  0  0  0  0  0  0
    4.3496  144.4082   51.6703 H   0  0  0  0  0  0  0  0  0  0  0  0
    4.3564  142.8209   50.8510 H   0  0  0  0  0  0  0  0  0  0  0  0
    3.6670  144.2479   50.0263 H   0  0  0  0  0  0  0  0  0  0  0  0
    3.3639  143.2607   55.8645 C   0  0  0  0  0  0  0  0  0  0  0  0
    3.2143  141.8969   56.2572 C   0  0  0  0  0  0  0  0  0  0  0  0
    3.1346  140.7752   56.5561 N   0  0  0  0  0  0  0  0  0  0  0  0
    3.8045  144.1783   56.8209 C   0  0  0  0  0  0  0  0  0  0  0  0
    4.0676  143.8404   58.1198 N   0  0  0  0  0  0  0  0  0  0  0  0
    4.4903  144.5505   58.7211 H   0  0  0  0  0  0  0  0  0  0  0  0
    4.1438  142.8505   58.3612 H   0  0  0  0  0  0  0  0  0  0  0  0
    3.9728  145.4900   56.4816 C   0  0  0  0  0  0  0  0  0  0  0  0
    4.2518  146.2143   57.2252 H   0  0  0  0  0  0  0  0  0  0  0  0
    1.8699  149.2174   52.6650 C   0  0  0  0  0  0  0  0  0  0  0  0
    2.7280  148.3878   51.9906 O   0  0  0  0  0  0  0  0  0  0  0  0
    2.1110  147.3230   51.2704 C   0  0  0  0  0  0  0  0  0  0  0  0
    1.4096  146.7964   51.9227 H   0  0  0  0  0  0  0  0  0  0  0  0
    1.5761  147.7059   50.3970 H   0  0  0  0  0  0  0  0  0  0  0  0
    2.8744  146.6149   50.9345 H   0  0  0  0  0  0  0  0  0  0  0  0
  1  2  1  0
  2  3  2  0
  3  4  1  0
  3  5  1  0
  5  6  1  0
  6  7  1  0
  7  8  1  0
  7  9  1  0
  7 10  1  0
  5 11  2  0
 11 12  1  0
 11 13  1  0
 13 14  1  0
 14 15  1  0
 14 16  1  0
 14 17  1  0
 17 18  2  0
 17 19  1  0
 19 20  1  0
 19 21  1  0
 21 22  2  0
 22 23  1  0
 23 24  1  0
 24 25  2  0
 24 26  2  0
 24 27  1  0
 27 28  1  0
 27 29  1  0
 27 30  1  0
 30 31  1  0
 30 32  1  0
 30 33  1  0
 23 34  2  0
 34 35  1  0
 35 36  3  0
 34 37  1  0
 37 38  1  0
 38 39  1  0
 38 40  1  0
 37 41  2  0
 41 42  1  0
 13 43  2  0
 43 44  1  0
 44 45  1  0
 45 46  1  0
 45 47  1  0
 45 48  1  0
 43  2  1  0
 41 21  1  0
M  END
>  <score>  (200) 
7.10893

$$$$

     RDKit          3D

 50 51  0  0  0  0  0  0  0  0999 V2000
    0.2693  149.0408   51.3090 H   0  0  0  0  0  0  0  0  0  0  0  0
    0.6058  149.5396   52.2117 C   0  0  0  0  0  0  0  0  0  0  0  0
   -0.2401  150.4664   52.8415 C   0  0  0  0  0  0  0  0  0  0  0  0
   -1.9682  150.8172   52.1007 Br  0  0  0  0  0  0  0  0  0  0  0  0
    0.1731  151.1034   54.0208 C   0  0  0  0  0  0  0  0  0  0  0  0
   -0.6175  152.0157   54.6684 O   0  0  0  0  0  0  0  0  0  0  0  0
   -1.5588  151.3964   55.5476 C   0  0  0  0  0  0  0  0  0  0  0  0
   -2.3365  150.8806   54.9764 H   0  0  0  0  0  0  0  0  0  0  0  0
   -1.0615  150.6737   56.1999 H   0  0  0  0  0  0  0  0  0  0  0  0
   -2.0323  152.1564   56.1746 H   0  0  0  0  0  0  0  0  0  0  0  0
    1.4288  150.8025   54.5443 C   0  0  0  0  0  0  0  0  0  0  0  0
    1.7425  151.2943   55.4608 H   0  0  0  0  0  0  0  0  0  0  0  0
    2.2974  149.9063   53.9032 C   0  0  0  0  0  0  0  0  0  0  0  0
    3.6622  149.7512   54.5293 C   0  0  0  0  0  0  0  0  0  0  0  0
    4.4330  149.7787   53.7544 H   0  0  0  0  0  0  0  0  0  0  0  0
    3.7951  150.6199   55.1773 H   0  0  0  0  0  0  0  0  0  0  0  0
    3.8419  148.4682   55.3439 C   0  0  0  0  0  0  0  0  0  0  0  0
    3.8087  148.4493   56.5587 O   0  0  0  0  0  0  0  0  0  0  0  0
    4.1411  147.3205   54.6887 N   0  0  0  0  0  0  0  0  0  0  0  0
    3.9921  147.3225   53.6894 H   0  0  0  0  0  0  0  0  0  0  0  0
    3.9382  146.1143   55.2391 C   0  0  0  0  0  0  0  0  0  0  0  0
    3.4499  145.3561   54.2929 N   0  0  0  0  0  0  0  0  0  0  0  0
    3.1413  144.0582   54.4879 C   0  0  0  0  0  0  0  0  0  0  0  0
    2.3065  143.2012   53.0053 S   0  0  0  0  0  0  0  0  0  0  0  0
    1.1686  142.3776   53.4340 O   0  0  0  0  0  0  0  0  0  0  0  0
    1.8132  144.1470   51.9801 O   0  0  0  0  0  0  0  0  0  0  0  0
    3.4686  142.1377   52.1820 N   0  0  0  0  0  0  0  0  0  0  0  0
    4.2636  142.7860   51.1129 C   0  0  0  0  0  0  0  0  0  0  0  0
    5.0586  142.1096   50.7676 H   0  0  0  0  0  0  0  0  0  0  0  0
    3.6265  143.0364   50.2492 H   0  0  0  0  0  0  0  0  0  0  0  0
    4.7214  143.7211   51.4683 H   0  0  0  0  0  0  0  0  0  0  0  0
    4.0423  141.0376   52.9825 C   0  0  0  0  0  0  0  0  0  0  0  0
    4.3466  141.3944   53.9743 H   0  0  0  0  0  0  0  0  0  0  0  0
    3.2922  140.2486   53.1260 H   0  0  0  0  0  0  0  0  0  0  0  0
    4.9188  140.6053   52.4768 H   0  0  0  0  0  0  0  0  0  0  0  0
    3.4153  143.5061   55.7791 C   0  0  0  0  0  0  0  0  0  0  0  0
    3.2581  142.1126   56.0591 C   0  0  0  0  0  0  0  0  0  0  0  0
    3.1615  140.9602   56.2282 N   0  0  0  0  0  0  0  0  0  0  0  0
    3.8936  144.3675   56.7856 C   0  0  0  0  0  0  0  0  0  0  0  0
    4.1095  143.9842   58.0769 N   0  0  0  0  0  0  0  0  0  0  0  0
    4.2079  142.9982   58.3041 H   0  0  0  0  0  0  0  0  0  0  0  0
    4.5118  144.6720   58.7106 H   0  0  0  0  0  0  0  0  0  0  0  0
    4.1609  145.6899   56.5197 C   0  0  0  0  0  0  0  0  0  0  0  0
    4.5407  146.3555   57.2818 H   0  0  0  0  0  0  0  0  0  0  0  0
    1.8847  149.2442   52.7201 C   0  0  0  0  0  0  0  0  0  0  0  0
    2.7213  148.3461   52.0866 O   0  0  0  0  0  0  0  0  0  0  0  0
    2.0835  147.3336   51.2845 C   0  0  0  0  0  0  0  0  0  0  0  0
    2.8361  146.6366   50.9013 H   0  0  0  0  0  0  0  0  0  0  0  0
    1.5564  147.7719   50.4299 H   0  0  0  0  0  0  0  0  0  0  0  0
    1.3652  146.7656   51.8860 H   0  0  0  0  0  0  0  0  0  0  0  0
  1  2  1  0
  2  3  2  0
  3  4  1  0
  3  5  1  0
  5  6  1  0
  6  7  1  0
  7  8  1  0
  7  9  1  0
  7 10  1  0
  5 11  2  0
 11 12  1  0
 11 13  1  0
 13 14  1  0
 14 15  1  0
 14 16  1  0
 14 17  1  0
 17 18  2  0
 17 19  1  0
 19 20  1  0
 19 21  1  0
 21 22  2  0
 22 23  1  0
 23 24  1  0
 24 25  2  0
 24 26  2  0
 24 27  1  0
 27 28  1  0
 28 29  1  0
 28 30  1  0
 28 31  1  0
 27 32  1  0
 32 33  1  0
 32 34  1  0
 32 35  1  0
 23 36  2  0
 36 37  1  0
 37 38  3  0
 36 39  1  0
 39 40  1  0
 40 41  1  0
 40 42  1  0
 39 43  2  0
 43 44  1  0
 13 45  2  0
 45 46  1  0
 46 47  1  0
 47 48  1  0
 47 49  1  0
 47 50  1  0
 45  2  1  0
 43 21  1  0
M  END
>  <score>  (201) 
7.10915

$$$$

     RDKit          3D

 44 46  0  0  0  0  0  0  0  0999 V2000
    0.3081  149.2016   51.2559 H   0  0  0  0  0  0  0  0  0  0  0  0
    0.6580  149.6075   52.1963 C   0  0  0  0  0  0  0  0  0  0  0  0
   -0.1460  150.4996   52.9335 C   0  0  0  0  0  0  0  0  0  0  0  0
   -1.8700  150.9831   52.2756 Br  0  0  0  0  0  0  0  0  0  0  0  0
    0.3304  151.0584   54.1302 C   0  0  0  0  0  0  0  0  0  0  0  0
   -0.3800  151.9767   54.8597 O   0  0  0  0  0  0  0  0  0  0  0  0
   -1.4276  151.4045   55.6479 C   0  0  0  0  0  0  0  0  0  0  0  0
   -2.1541  150.8748   55.0225 H   0  0  0  0  0  0  0  0  0  0  0  0
   -1.9441  152.2009   56.1930 H   0  0  0  0  0  0  0  0  0  0  0  0
   -1.0153  150.7027   56.3747 H   0  0  0  0  0  0  0  0  0  0  0  0
    1.5946  150.6964   54.5689 C   0  0  0  0  0  0  0  0  0  0  0  0
    1.9856  151.1513   55.4711 H   0  0  0  0  0  0  0  0  0  0  0  0
    2.3779  149.7907   53.8524 C   0  0  0  0  0  0  0  0  0  0  0  0
    3.7259  149.4878   54.3957 C   0  0  0  0  0  0  0  0  0  0  0  0
    4.4175  149.3633   53.5569 H   0  0  0  0  0  0  0  0  0  0  0  0
    3.9870  150.3698   54.9668 H   0  0  0  0  0  0  0  0  0  0  0  0
    3.7619  148.2386   55.2835 C   0  0  0  0  0  0  0  0  0  0  0  0
    3.8584  148.2981   56.4981 O   0  0  0  0  0  0  0  0  0  0  0  0
    3.7506  147.0209   54.6809 N   0  0  0  0  0  0  0  0  0  0  0  0
    3.5286  146.9652   53.6996 H   0  0  0  0  0  0  0  0  0  0  0  0
    3.5667  145.8423   55.2852 C   0  0  0  0  0  0  0  0  0  0  0  0
    3.0923  145.0515   54.3535 N   0  0  0  0  0  0  0  0  0  0  0  0
    2.9498  143.7384   54.5732 C   0  0  0  0  0  0  0  0  0  0  0  0
    2.4490  142.9031   53.4230 C   0  0  0  0  0  0  0  0  0  0  0  0
    2.5860  141.5206   53.3438 N   0  0  0  0  0  0  0  0  0  0  0  0
    2.0415  141.1184   52.2616 N   0  0  0  0  0  0  0  0  0  0  0  0
    1.5628  142.2337   51.6722 N   0  0  0  0  0  0  0  0  0  0  0  0
    1.1581  142.2377   50.7354 H   0  0  0  0  0  0  0  0  0  0  0  0
    1.8259  143.3629   52.3584 N   0  0  0  0  0  0  0  0  0  0  0  0
    3.2673  143.2342   55.8465 C   0  0  0  0  0  0  0  0  0  0  0  0
    3.1344  141.8538   56.1808 C   0  0  0  0  0  0  0  0  0  0  0  0
    3.0435  140.7268   56.4563 N   0  0  0  0  0  0  0  0  0  0  0  0
    3.7429  144.1199   56.8038 C   0  0  0  0  0  0  0  0  0  0  0  0
    4.1444  143.7176   58.0282 N   0  0  0  0  0  0  0  0  0  0  0  0
    4.4995  144.4235   58.6712 H   0  0  0  0  0  0  0  0  0  0  0  0
    4.0632  142.7394   58.3013 H   0  0  0  0  0  0  0  0  0  0  0  0
    3.9096  145.4512   56.5473 C   0  0  0  0  0  0  0  0  0  0  0  0
    4.3377  146.1306   57.2781 H   0  0  0  0  0  0  0  0  0  0  0  0
    1.9323  149.2435   52.6463 C   0  0  0  0  0  0  0  0  0  0  0  0
    2.7754  148.4047   51.9535 O   0  0  0  0  0  0  0  0  0  0  0  0
    2.1650  147.2982   51.2834 C   0  0  0  0  0  0  0  0  0  0  0  0
    1.4739  146.7688   51.9492 H   0  0  0  0  0  0  0  0  0  0  0  0
    1.6225  147.6362   50.3954 H   0  0  0  0  0  0  0  0  0  0  0  0
    2.9490  146.5985   50.9739 H   0  0  0  0  0  0  0  0  0  0  0  0
  1  2  1  0
  2  3  2  0
  3  4  1  0
  3  5  1  0
  5  6  1  0
  6  7  1  0
  7  8  1  0
  7  9  1  0
  7 10  1  0
  5 11  2  0
 11 12  1  0
 11 13  1  0
 13 14  1  0
 14 15  1  0
 14 16  1  0
 14 17  1  0
 17 18  2  0
 17 19  1  0
 19 20  1  0
 19 21  1  0
 21 22  2  0
 22 23  1  0
 23 24  1  0
 24 25  1  0
 25 26  2  0
 26 27  1  0
 27 28  1  0
 27 29  1  0
 23 30  2  0
 30 31  1  0
 31 32  3  0
 30 33  1  0
 33 34  1  0
 34 35  1  0
 34 36  1  0
 33 37  2  0
 37 38  1  0
 13 39  2  0
 39 40  1  0
 40 41  1  0
 41 42  1  0
 41 43  1  0
 41 44  1  0
 39  2  1  0
 37 21  1  0
 29 24  2  0
M  END
>  <score>  (202) 
7.10942

$$$$

     RDKit          3D

 51 52  0  0  0  0  0  0  0  0999 V2000
    0.3085  149.2032   51.2512 H   0  0  0  0  0  0  0  0  0  0  0  0
    0.6576  149.6071   52.1959 C   0  0  0  0  0  0  0  0  0  0  0  0
   -0.1463  150.4997   52.9366 C   0  0  0  0  0  0  0  0  0  0  0  0
   -1.8715  150.9868   52.2792 Br  0  0  0  0  0  0  0  0  0  0  0  0
    0.3333  151.0579   54.1324 C   0  0  0  0  0  0  0  0  0  0  0  0
   -0.3786  151.9767   54.8597 O   0  0  0  0  0  0  0  0  0  0  0  0
   -1.4255  151.4035   55.6465 C   0  0  0  0  0  0  0  0  0  0  0  0
   -2.1526  150.8747   55.0202 H   0  0  0  0  0  0  0  0  0  0  0  0
   -1.0124  150.7016   56.3735 H   0  0  0  0  0  0  0  0  0  0  0  0
   -1.9401  152.2023   56.1899 H   0  0  0  0  0  0  0  0  0  0  0  0
    1.5951  150.6859   54.5750 C   0  0  0  0  0  0  0  0  0  0  0  0
    1.9915  151.1409   55.4733 H   0  0  0  0  0  0  0  0  0  0  0  0
    2.3788  149.7800   53.8591 C   0  0  0  0  0  0  0  0  0  0  0  0
    3.7238  149.4727   54.4019 C   0  0  0  0  0  0  0  0  0  0  0  0
    3.9934  150.3489   54.9811 H   0  0  0  0  0  0  0  0  0  0  0  0
    4.4091  149.3594   53.5597 H   0  0  0  0  0  0  0  0  0  0  0  0
    3.7441  148.2067   55.2618 C   0  0  0  0  0  0  0  0  0  0  0  0
    3.8479  148.2611   56.4797 O   0  0  0  0  0  0  0  0  0  0  0  0
    3.7070  146.9940   54.6335 N   0  0  0  0  0  0  0  0  0  0  0  0
    3.5167  146.9566   53.6433 H   0  0  0  0  0  0  0  0  0  0  0  0
    3.5419  145.7924   55.2114 C   0  0  0  0  0  0  0  0  0  0  0  0
    3.0571  144.9619   54.3041 N   0  0  0  0  0  0  0  0  0  0  0  0
    2.9077  143.6770   54.6279 C   0  0  0  0  0  0  0  0  0  0  0  0
    2.3619  142.6856   53.6201 C   0  0  0  0  0  0  0  0  0  0  0  0
    3.1795  142.0082   53.3541 H   0  0  0  0  0  0  0  0  0  0  0  0
    1.6020  142.1300   54.1671 H   0  0  0  0  0  0  0  0  0  0  0  0
    1.7128  143.1817   52.3071 C   0  0  0  0  0  0  0  0  0  0  0  0
    1.3199  142.3090   51.7741 H   0  0  0  0  0  0  0  0  0  0  0  0
    0.5265  144.1011   52.5784 C   0  0  0  0  0  0  0  0  0  0  0  0
    0.1154  144.4753   51.6328 H   0  0  0  0  0  0  0  0  0  0  0  0
    0.8334  144.9502   53.1974 H   0  0  0  0  0  0  0  0  0  0  0  0
   -0.2638  143.5454   53.0969 H   0  0  0  0  0  0  0  0  0  0  0  0
    2.7400  143.8376   51.3848 C   0  0  0  0  0  0  0  0  0  0  0  0
    3.4712  143.0877   51.0602 H   0  0  0  0  0  0  0  0  0  0  0  0
    3.2631  144.6477   51.9023 H   0  0  0  0  0  0  0  0  0  0  0  0
    2.2476  144.2429   50.4924 H   0  0  0  0  0  0  0  0  0  0  0  0
    3.2614  143.2105   55.8939 C   0  0  0  0  0  0  0  0  0  0  0  0
    3.1428  141.8283   56.2360 C   0  0  0  0  0  0  0  0  0  0  0  0
    3.0418  140.6922   56.4620 N   0  0  0  0  0  0  0  0  0  0  0  0
    3.7455  144.1174   56.8033 C   0  0  0  0  0  0  0  0  0  0  0  0
    4.1480  143.7276   58.0256 N   0  0  0  0  0  0  0  0  0  0  0  0
    4.0616  142.7490   58.2928 H   0  0  0  0  0  0  0  0  0  0  0  0
    4.4998  144.4332   58.6688 H   0  0  0  0  0  0  0  0  0  0  0  0
    3.8869  145.4339   56.4900 C   0  0  0  0  0  0  0  0  0  0  0  0
    4.3048  146.1269   57.2074 H   0  0  0  0  0  0  0  0  0  0  0  0
    1.9336  149.2386   52.6478 C   0  0  0  0  0  0  0  0  0  0  0  0
    2.7766  148.4078   51.9415 O   0  0  0  0  0  0  0  0  0  0  0  0
    2.1676  147.2997   51.2754 C   0  0  0  0  0  0  0  0  0  0  0  0
    2.9565  146.6527   50.8762 H   0  0  0  0  0  0  0  0  0  0  0  0
    1.5601  146.7112   51.9726 H   0  0  0  0  0  0  0  0  0  0  0  0
    1.5391  147.6503   50.4510 H   0  0  0  0  0  0  0  0  0  0  0  0
  1  2  1  0
  2  3  2  0
  3  4  1  0
  3  5  1  0
  5  6  1  0
  6  7  1  0
  7  8  1  0
  7  9  1  0
  7 10  1  0
  5 11  2  0
 11 12  1  0
 11 13  1  0
 13 14  1  0
 14 15  1  0
 14 16  1  0
 14 17  1  0
 17 18  2  0
 17 19  1  0
 19 20  1  0
 19 21  1  0
 21 22  2  0
 22 23  1  0
 23 24  1  0
 24 25  1  0
 24 26  1  0
 24 27  1  0
 27 28  1  0
 27 29  1  0
 29 30  1  0
 29 31  1  0
 29 32  1  0
 27 33  1  0
 33 34  1  0
 33 35  1  0
 33 36  1  0
 23 37  2  0
 37 38  1  0
 38 39  3  0
 37 40  1  0
 40 41  1  0
 41 42  1  0
 41 43  1  0
 40 44  2  0
 44 45  1  0
 13 46  2  0
 46 47  1  0
 47 48  1  0
 48 49  1  0
 48 50  1  0
 48 51  1  0
 46  2  1  0
 44 21  1  0
M  END
>  <score>  (203) 
7.10959

$$$$

     RDKit          3D

 54 55  0  0  0  0  0  0  0  0999 V2000
    0.2695  149.1554   51.2336 H   0  0  0  0  0  0  0  0  0  0  0  0
    0.6018  149.5649   52.1825 C   0  0  0  0  0  0  0  0  0  0  0  0
   -0.2044  150.4657   52.8990 C   0  0  0  0  0  0  0  0  0  0  0  0
   -1.9359  150.9638   52.2484 Br  0  0  0  0  0  0  0  0  0  0  0  0
    0.2934  151.0343   54.0830 C   0  0  0  0  0  0  0  0  0  0  0  0
   -0.4002  151.9810   54.7767 O   0  0  0  0  0  0  0  0  0  0  0  0
   -1.4254  151.4049   55.5817 C   0  0  0  0  0  0  0  0  0  0  0  0
   -1.0045  150.6828   56.2849 H   0  0  0  0  0  0  0  0  0  0  0  0
   -2.1565  150.8910   54.9524 H   0  0  0  0  0  0  0  0  0  0  0  0
   -1.9331  152.1879   56.1519 H   0  0  0  0  0  0  0  0  0  0  0  0
    1.5370  150.6648   54.5728 C   0  0  0  0  0  0  0  0  0  0  0  0
    1.9002  151.1198   55.4906 H   0  0  0  0  0  0  0  0  0  0  0  0
    2.3276  149.7585   53.8751 C   0  0  0  0  0  0  0  0  0  0  0  0
    3.6817  149.4521   54.4335 C   0  0  0  0  0  0  0  0  0  0  0  0
    4.4243  149.4420   53.6302 H   0  0  0  0  0  0  0  0  0  0  0  0
    3.9231  150.2308   55.1456 H   0  0  0  0  0  0  0  0  0  0  0  0
    3.7261  148.1550   55.2067 C   0  0  0  0  0  0  0  0  0  0  0  0
    3.7991  148.1745   56.4227 O   0  0  0  0  0  0  0  0  0  0  0  0
    3.7183  146.9762   54.5539 N   0  0  0  0  0  0  0  0  0  0  0  0
    3.3892  146.9644   53.5982 H   0  0  0  0  0  0  0  0  0  0  0  0
    3.5941  145.7958   55.1637 C   0  0  0  0  0  0  0  0  0  0  0  0
    3.1238  144.9739   54.2696 N   0  0  0  0  0  0  0  0  0  0  0  0
    2.9617  143.7090   54.6176 C   0  0  0  0  0  0  0  0  0  0  0  0
    2.4211  142.8076   53.5568 C   0  0  0  0  0  0  0  0  0  0  0  0
    1.7891  142.0692   54.0390 H   0  0  0  0  0  0  0  0  0  0  0  0
    1.7889  143.3858   52.8758 H   0  0  0  0  0  0  0  0  0  0  0  0
    3.5573  142.1187   52.7863 C   0  0  0  0  0  0  0  0  0  0  0  0
    4.1764  141.5351   53.4779 H   0  0  0  0  0  0  0  0  0  0  0  0
    4.2000  142.8763   52.3241 H   0  0  0  0  0  0  0  0  0  0  0  0
    3.0221  141.1878   51.6974 C   0  0  0  0  0  0  0  0  0  0  0  0
    2.2741  140.5064   52.1154 H   0  0  0  0  0  0  0  0  0  0  0  0
    3.8559  140.5831   51.3218 H   0  0  0  0  0  0  0  0  0  0  0  0
    2.4028  141.9839   50.5449 C   0  0  0  0  0  0  0  0  0  0  0  0
    3.1169  142.7395   50.2007 H   0  0  0  0  0  0  0  0  0  0  0  0
    1.4979  142.5011   50.8938 H   0  0  0  0  0  0  0  0  0  0  0  0
    2.0673  141.0445   49.3876 C   0  0  0  0  0  0  0  0  0  0  0  0
    1.6432  141.6182   48.5555 H   0  0  0  0  0  0  0  0  0  0  0  0
    2.9654  140.4986   49.0566 H   0  0  0  0  0  0  0  0  0  0  0  0
    1.3252  140.3202   49.7129 H   0  0  0  0  0  0  0  0  0  0  0  0
    3.2844  143.2493   55.8817 C   0  0  0  0  0  0  0  0  0  0  0  0
    3.1654  141.8674   56.1976 C   0  0  0  0  0  0  0  0  0  0  0  0
    3.0843  140.7294   56.4158 N   0  0  0  0  0  0  0  0  0  0  0  0
    3.7516  144.1550   56.7964 C   0  0  0  0  0  0  0  0  0  0  0  0
    4.1051  143.7859   58.0382 N   0  0  0  0  0  0  0  0  0  0  0  0
    4.0799  142.7966   58.2812 H   0  0  0  0  0  0  0  0  0  0  0  0
    4.4758  144.4897   58.6754 H   0  0  0  0  0  0  0  0  0  0  0  0
    3.8998  145.4635   56.4630 C   0  0  0  0  0  0  0  0  0  0  0  0
    4.2702  146.1726   57.1828 H   0  0  0  0  0  0  0  0  0  0  0  0
    1.8766  149.2178   52.6632 C   0  0  0  0  0  0  0  0  0  0  0  0
    2.7398  148.4015   51.9756 O   0  0  0  0  0  0  0  0  0  0  0  0
    2.1298  147.3189   51.2740 C   0  0  0  0  0  0  0  0  0  0  0  0
    2.8944  146.6107   50.9413 H   0  0  0  0  0  0  0  0  0  0  0  0
    1.5844  147.6789   50.3985 H   0  0  0  0  0  0  0  0  0  0  0  0
    1.4379  146.7924   51.9352 H   0  0  0  0  0  0  0  0  0  0  0  0
  1  2  1  0
  2  3  2  0
  3  4  1  0
  3  5  1  0
  5  6  1  0
  6  7  1  0
  7  8  1  0
  7  9  1  0
  7 10  1  0
  5 11  2  0
 11 12  1  0
 11 13  1  0
 13 14  1  0
 14 15  1  0
 14 16  1  0
 14 17  1  0
 17 18  2  0
 17 19  1  0
 19 20  1  0
 19 21  1  0
 21 22  2  0
 22 23  1  0
 23 24  1  0
 24 25  1  0
 24 26  1  0
 24 27  1  0
 27 28  1  0
 27 29  1  0
 27 30  1  0
 30 31  1  0
 30 32  1  0
 30 33  1  0
 33 34  1  0
 33 35  1  0
 33 36  1  0
 36 37  1  0
 36 38  1  0
 36 39  1  0
 23 40  2  0
 40 41  1  0
 41 42  3  0
 40 43  1  0
 43 44  1  0
 44 45  1  0
 44 46  1  0
 43 47  2  0
 47 48  1  0
 13 49  2  0
 49 50  1  0
 50 51  1  0
 51 52  1  0
 51 53  1  0
 51 54  1  0
 49  2  1  0
 47 21  1  0
M  END
>  <score>  (204) 
7.11095

$$$$

     RDKit          3D

 49 51  0  0  0  0  0  0  0  0999 V2000
    3.5969  142.6997   49.6783 H   0  0  0  0  0  0  0  0  0  0  0  0
    3.0524  142.5595   50.6109 C   0  0  0  0  0  0  0  0  0  0  0  0
    1.8676  141.8146   50.6289 C   0  0  0  0  0  0  0  0  0  0  0  0
    1.4834  141.3484   49.7275 H   0  0  0  0  0  0  0  0  0  0  0  0
    1.1692  141.6641   51.8299 C   0  0  0  0  0  0  0  0  0  0  0  0
   -0.2831  140.7196   51.9400 Cl  0  0  0  0  0  0  0  0  0  0  0  0
    1.6297  142.2843   52.9866 C   0  0  0  0  0  0  0  0  0  0  0  0
    1.0083  142.2341   53.8638 H   0  0  0  0  0  0  0  0  0  0  0  0
    2.8190  143.0082   53.0095 C   0  0  0  0  0  0  0  0  0  0  0  0
    3.2313  143.7617   54.2125 C   0  0  0  0  0  0  0  0  0  0  0  0
    3.4400  145.0500   53.9691 N   0  0  0  0  0  0  0  0  0  0  0  0
    3.7337  145.8511   54.9536 C   0  0  0  0  0  0  0  0  0  0  0  0
    3.7760  147.0992   54.4699 N   0  0  0  0  0  0  0  0  0  0  0  0
    3.5445  147.1814   53.4895 H   0  0  0  0  0  0  0  0  0  0  0  0
    3.7009  148.2168   55.2332 C   0  0  0  0  0  0  0  0  0  0  0  0
    3.7816  148.1522   56.4466 O   0  0  0  0  0  0  0  0  0  0  0  0
    3.6393  149.5472   54.5148 C   0  0  0  0  0  0  0  0  0  0  0  0
    3.8377  150.3513   55.2194 H   0  0  0  0  0  0  0  0  0  0  0  0
    4.4227  149.5577   53.7605 H   0  0  0  0  0  0  0  0  0  0  0  0
    2.3027  149.8101   53.8818 C   0  0  0  0  0  0  0  0  0  0  0  0
    1.4761  150.7067   54.5546 C   0  0  0  0  0  0  0  0  0  0  0  0
    1.8010  151.1379   55.4969 H   0  0  0  0  0  0  0  0  0  0  0  0
    0.2401  151.0665   54.0339 C   0  0  0  0  0  0  0  0  0  0  0  0
   -0.4978  151.9975   54.7070 O   0  0  0  0  0  0  0  0  0  0  0  0
   -1.4925  151.4037   55.5408 C   0  0  0  0  0  0  0  0  0  0  0  0
   -2.2484  150.9022   54.9318 H   0  0  0  0  0  0  0  0  0  0  0  0
   -1.0370  150.6678   56.2070 H   0  0  0  0  0  0  0  0  0  0  0  0
   -1.9842  152.1701   56.1485 H   0  0  0  0  0  0  0  0  0  0  0  0
   -0.2171  150.4670   52.8513 C   0  0  0  0  0  0  0  0  0  0  0  0
   -1.9538  150.8843   52.1619 Br  0  0  0  0  0  0  0  0  0  0  0  0
    0.5986  149.5463   52.1810 C   0  0  0  0  0  0  0  0  0  0  0  0
    0.2330  149.0893   51.2683 H   0  0  0  0  0  0  0  0  0  0  0  0
    1.8762  149.2182   52.6733 C   0  0  0  0  0  0  0  0  0  0  0  0
    2.7143  148.3462   52.0152 O   0  0  0  0  0  0  0  0  0  0  0  0
    2.0773  147.3083   51.2526 C   0  0  0  0  0  0  0  0  0  0  0  0
    1.5372  147.7145   50.3927 H   0  0  0  0  0  0  0  0  0  0  0  0
    1.3698  146.7526   51.8736 H   0  0  0  0  0  0  0  0  0  0  0  0
    2.8295  146.6041   50.8854 H   0  0  0  0  0  0  0  0  0  0  0  0
    3.8784  145.4556   56.2471 C   0  0  0  0  0  0  0  0  0  0  0  0
    4.1432  146.1698   57.0090 H   0  0  0  0  0  0  0  0  0  0  0  0
    3.6636  144.1415   56.5172 C   0  0  0  0  0  0  0  0  0  0  0  0
    3.8131  143.7759   57.8065 N   0  0  0  0  0  0  0  0  0  0  0  0
    3.9976  142.7903   57.9517 H   0  0  0  0  0  0  0  0  0  0  0  0
    4.3040  144.4519   58.3930 H   0  0  0  0  0  0  0  0  0  0  0  0
    3.3266  143.2498   55.5143 C   0  0  0  0  0  0  0  0  0  0  0  0
    3.1182  141.8720   55.8201 C   0  0  0  0  0  0  0  0  0  0  0  0
    2.9861  140.7479   56.0846 N   0  0  0  0  0  0  0  0  0  0  0  0
    3.5188  143.1429   51.7936 C   0  0  0  0  0  0  0  0  0  0  0  0
    4.4281  143.7307   51.7729 H   0  0  0  0  0  0  0  0  0  0  0  0
  1  2  1  0
  2  3  2  0
  3  4  1  0
  3  5  1  0
  5  6  1  0
  5  7  2  0
  7  8  1  0
  7  9  1  0
  9 10  1  0
 10 11  2  0
 11 12  1  0
 12 13  1  0
 13 14  1  0
 13 15  1  0
 15 16  2  0
 15 17  1  0
 17 18  1  0
 17 19  1  0
 17 20  1  0
 20 21  2  0
 21 22  1  0
 21 23  1  0
 23 24  1  0
 24 25  1  0
 25 26  1  0
 25 27  1  0
 25 28  1  0
 23 29  2  0
 29 30  1  0
 29 31  1  0
 31 32  1  0
 31 33  2  0
 33 34  1  0
 34 35  1  0
 35 36  1  0
 35 37  1  0
 35 38  1  0
 12 39  2  0
 39 40  1  0
 39 41  1  0
 41 42  1  0
 42 43  1  0
 42 44  1  0
 41 45  2  0
 45 46  1  0
 46 47  3  0
  9 48  2  0
 48 49  1  0
 48  2  1  0
 45 10  1  0
 33 20  1  0
M  END
>  <score>  (205) 
7.11224

$$$$

     RDKit          3D

 47 49  0  0  0  0  0  0  0  0999 V2000
    0.3042  149.1971   51.2468 H   0  0  0  0  0  0  0  0  0  0  0  0
    0.6547  149.6014   52.1925 C   0  0  0  0  0  0  0  0  0  0  0  0
   -0.1479  150.4971   52.9319 C   0  0  0  0  0  0  0  0  0  0  0  0
   -1.8758  150.9844   52.2755 Br  0  0  0  0  0  0  0  0  0  0  0  0
    0.3290  151.0587   54.1300 C   0  0  0  0  0  0  0  0  0  0  0  0
   -0.3815  151.9772   54.8579 O   0  0  0  0  0  0  0  0  0  0  0  0
   -1.4267  151.4035   55.6454 C   0  0  0  0  0  0  0  0  0  0  0  0
   -1.9408  152.2025   56.1886 H   0  0  0  0  0  0  0  0  0  0  0  0
   -2.1520  150.8760   55.0172 H   0  0  0  0  0  0  0  0  0  0  0  0
   -1.0121  150.7006   56.3703 H   0  0  0  0  0  0  0  0  0  0  0  0
    1.5913  150.6913   54.5745 C   0  0  0  0  0  0  0  0  0  0  0  0
    1.9866  151.1466   55.4747 H   0  0  0  0  0  0  0  0  0  0  0  0
    2.3752  149.7866   53.8580 C   0  0  0  0  0  0  0  0  0  0  0  0
    3.7251  149.4870   54.4014 C   0  0  0  0  0  0  0  0  0  0  0  0
    4.4141  149.3699   53.5611 H   0  0  0  0  0  0  0  0  0  0  0  0
    3.9938  150.3633   54.9783 H   0  0  0  0  0  0  0  0  0  0  0  0
    3.7579  148.2343   55.2813 C   0  0  0  0  0  0  0  0  0  0  0  0
    3.8516  148.2995   56.4946 O   0  0  0  0  0  0  0  0  0  0  0  0
    3.7448  147.0160   54.6680 N   0  0  0  0  0  0  0  0  0  0  0  0
    3.5170  146.9587   53.6877 H   0  0  0  0  0  0  0  0  0  0  0  0
    3.5694  145.8400   55.2776 C   0  0  0  0  0  0  0  0  0  0  0  0
    3.0947  145.0357   54.3577 N   0  0  0  0  0  0  0  0  0  0  0  0
    2.9571  143.7315   54.6173 C   0  0  0  0  0  0  0  0  0  0  0  0
    2.4613  142.8801   53.4936 C   0  0  0  0  0  0  0  0  0  0  0  0
    2.5601  141.5768   53.4417 N   0  0  0  0  0  0  0  0  0  0  0  0
    2.0219  141.1742   52.2554 N   0  0  0  0  0  0  0  0  0  0  0  0
    1.6193  142.2493   51.6417 C   0  0  0  0  0  0  0  0  0  0  0  0
    1.0575  142.2520   50.2655 C   0  0  0  0  0  0  0  0  0  0  0  0
    0.7381  143.2574   49.9822 H   0  0  0  0  0  0  0  0  0  0  0  0
    1.8287  141.9016   49.5812 H   0  0  0  0  0  0  0  0  0  0  0  0
    0.2142  141.5738   50.2049 H   0  0  0  0  0  0  0  0  0  0  0  0
    1.8574  143.3666   52.3626 O   0  0  0  0  0  0  0  0  0  0  0  0
    3.2778  143.2323   55.8827 C   0  0  0  0  0  0  0  0  0  0  0  0
    3.1445  141.8452   56.2085 C   0  0  0  0  0  0  0  0  0  0  0  0
    3.0469  140.7154   56.4672 N   0  0  0  0  0  0  0  0  0  0  0  0
    3.7511  144.1319   56.8205 C   0  0  0  0  0  0  0  0  0  0  0  0
    4.1508  143.7271   58.0442 N   0  0  0  0  0  0  0  0  0  0  0  0
    4.5055  144.4248   58.6928 H   0  0  0  0  0  0  0  0  0  0  0  0
    4.0695  142.7493   58.3110 H   0  0  0  0  0  0  0  0  0  0  0  0
    3.9132  145.4625   56.5465 C   0  0  0  0  0  0  0  0  0  0  0  0
    4.3383  146.1429   57.2812 H   0  0  0  0  0  0  0  0  0  0  0  0
    1.9306  149.2367   52.6486 C   0  0  0  0  0  0  0  0  0  0  0  0
    2.7742  148.4019   51.9508 O   0  0  0  0  0  0  0  0  0  0  0  0
    2.1629  147.2970   51.2814 C   0  0  0  0  0  0  0  0  0  0  0  0
    1.6211  147.6409   50.3949 H   0  0  0  0  0  0  0  0  0  0  0  0
    2.9480  146.5983   50.9714 H   0  0  0  0  0  0  0  0  0  0  0  0
    1.4722  146.7714   51.9513 H   0  0  0  0  0  0  0  0  0  0  0  0
  1  2  1  0
  2  3  2  0
  3  4  1  0
  3  5  1  0
  5  6  1  0
  6  7  1  0
  7  8  1  0
  7  9  1  0
  7 10  1  0
  5 11  2  0
 11 12  1  0
 11 13  1  0
 13 14  1  0
 14 15  1  0
 14 16  1  0
 14 17  1  0
 17 18  2  0
 17 19  1  0
 19 20  1  0
 19 21  1  0
 21 22  2  0
 22 23  1  0
 23 24  1  0
 24 25  2  0
 25 26  1  0
 26 27  2  0
 27 28  1  0
 28 29  1  0
 28 30  1  0
 28 31  1  0
 27 32  1  0
 23 33  2  0
 33 34  1  0
 34 35  3  0
 33 36  1  0
 36 37  1  0
 37 38  1  0
 37 39  1  0
 36 40  2  0
 40 41  1  0
 13 42  2  0
 42 43  1  0
 43 44  1  0
 44 45  1  0
 44 46  1  0
 44 47  1  0
 42  2  1  0
 40 21  1  0
 32 24  1  0
M  END
>  <score>  (206) 
7.11337

$$$$

     RDKit          3D

 48 50  0  0  0  0  0  0  0  0999 V2000
    4.1354  144.3872   49.5722 H   0  0  0  0  0  0  0  0  0  0  0  0
    3.5336  143.8207   50.2764 C   0  0  0  0  0  0  0  0  0  0  0  0
    3.5571  143.9667   51.6454 O   0  0  0  0  0  0  0  0  0  0  0  0
    2.6530  143.0733   52.1539 C   0  0  0  0  0  0  0  0  0  0  0  0
    2.3775  142.9230   53.5765 C   0  0  0  0  0  0  0  0  0  0  0  0
    1.3955  142.2825   53.8964 O   0  0  0  0  0  0  0  0  0  0  0  0
    3.0284  143.7462   54.6062 C   0  0  0  0  0  0  0  0  0  0  0  0
    3.2253  145.0283   54.3121 N   0  0  0  0  0  0  0  0  0  0  0  0
    3.6491  145.8450   55.2478 C   0  0  0  0  0  0  0  0  0  0  0  0
    3.7529  147.0332   54.6543 N   0  0  0  0  0  0  0  0  0  0  0  0
    3.5186  146.9856   53.6774 H   0  0  0  0  0  0  0  0  0  0  0  0
    3.7596  148.2398   55.2734 C   0  0  0  0  0  0  0  0  0  0  0  0
    3.8499  148.3078   56.4858 O   0  0  0  0  0  0  0  0  0  0  0  0
    3.7195  149.4899   54.4037 C   0  0  0  0  0  0  0  0  0  0  0  0
    4.4159  149.3818   53.5743 H   0  0  0  0  0  0  0  0  0  0  0  0
    3.9924  150.3561   54.9834 H   0  0  0  0  0  0  0  0  0  0  0  0
    2.3720  149.7934   53.8593 C   0  0  0  0  0  0  0  0  0  0  0  0
    1.5860  150.6933   54.5759 C   0  0  0  0  0  0  0  0  0  0  0  0
    1.9811  151.1447   55.4787 H   0  0  0  0  0  0  0  0  0  0  0  0
    0.3248  151.0529   54.1259 C   0  0  0  0  0  0  0  0  0  0  0  0
   -0.3817  151.9749   54.8509 O   0  0  0  0  0  0  0  0  0  0  0  0
   -1.4254  151.4053   55.6404 C   0  0  0  0  0  0  0  0  0  0  0  0
   -2.1492  150.8790   55.0152 H   0  0  0  0  0  0  0  0  0  0  0  0
   -1.0136  150.7011   56.3614 H   0  0  0  0  0  0  0  0  0  0  0  0
   -1.9419  152.1984   56.1865 H   0  0  0  0  0  0  0  0  0  0  0  0
   -0.1516  150.4953   52.9250 C   0  0  0  0  0  0  0  0  0  0  0  0
   -1.8842  150.9842   52.2729 Br  0  0  0  0  0  0  0  0  0  0  0  0
    0.6507  149.5956   52.1912 C   0  0  0  0  0  0  0  0  0  0  0  0
    0.2997  149.1947   51.2440 H   0  0  0  0  0  0  0  0  0  0  0  0
    1.9251  149.2343   52.6541 C   0  0  0  0  0  0  0  0  0  0  0  0
    2.7720  148.4057   51.9524 O   0  0  0  0  0  0  0  0  0  0  0  0
    2.1639  147.2993   51.2810 C   0  0  0  0  0  0  0  0  0  0  0  0
    1.4931  146.7590   51.9565 H   0  0  0  0  0  0  0  0  0  0  0  0
    2.9452  146.6093   50.9466 H   0  0  0  0  0  0  0  0  0  0  0  0
    1.6003  147.6416   50.4094 H   0  0  0  0  0  0  0  0  0  0  0  0
    3.9380  145.4868   56.5361 C   0  0  0  0  0  0  0  0  0  0  0  0
    4.3119  146.1698   57.2879 H   0  0  0  0  0  0  0  0  0  0  0  0
    3.7904  144.1603   56.8185 C   0  0  0  0  0  0  0  0  0  0  0  0
    4.1379  143.7513   58.0565 N   0  0  0  0  0  0  0  0  0  0  0  0
    4.0727  142.7694   58.3055 H   0  0  0  0  0  0  0  0  0  0  0  0
    4.5088  144.4258   58.7149 H   0  0  0  0  0  0  0  0  0  0  0  0
    3.3237  143.2623   55.8826 C   0  0  0  0  0  0  0  0  0  0  0  0
    3.1667  141.8777   56.2108 C   0  0  0  0  0  0  0  0  0  0  0  0
    3.0431  140.7511   56.4564 N   0  0  0  0  0  0  0  0  0  0  0  0
    2.0665  142.3557   51.1381 C   0  0  0  0  0  0  0  0  0  0  0  0
    1.3190  141.5747   51.2480 H   0  0  0  0  0  0  0  0  0  0  0  0
    2.6343  142.8549   49.9155 C   0  0  0  0  0  0  0  0  0  0  0  0
    2.3984  142.5276   48.9077 H   0  0  0  0  0  0  0  0  0  0  0  0
  1  2  1  0
  2  3  1  0
  3  4  1  0
  4  5  1  0
  5  6  2  0
  5  7  1  0
  7  8  2  0
  8  9  1  0
  9 10  1  0
 10 11  1  0
 10 12  1  0
 12 13  2  0
 12 14  1  0
 14 15  1  0
 14 16  1  0
 14 17  1  0
 17 18  2  0
 18 19  1  0
 18 20  1  0
 20 21  1  0
 21 22  1  0
 22 23  1  0
 22 24  1  0
 22 25  1  0
 20 26  2  0
 26 27  1  0
 26 28  1  0
 28 29  1  0
 28 30  2  0
 30 31  1  0
 31 32  1  0
 32 33  1  0
 32 34  1  0
 32 35  1  0
  9 36  2  0
 36 37  1  0
 36 38  1  0
 38 39  1  0
 39 40  1  0
 39 41  1  0
 38 42  2  0
 42 43  1  0
 43 44  3  0
  4 45  2  0
 45 46  1  0
 45 47  1  0
 47 48  1  0
 47  2  2  0
 42  7  1  0
 30 17  1  0
M  END
>  <score>  (207) 
7.11417

$$$$

     RDKit          3D

 43 44  0  0  0  0  0  0  0  0999 V2000
    0.2926  149.1850   51.2347 H   0  0  0  0  0  0  0  0  0  0  0  0
    0.6323  149.5809   52.1856 C   0  0  0  0  0  0  0  0  0  0  0  0
   -0.1676  150.4828   52.9108 C   0  0  0  0  0  0  0  0  0  0  0  0
   -1.9049  150.9840   52.2701 Br  0  0  0  0  0  0  0  0  0  0  0  0
    0.3173  151.0370   54.1119 C   0  0  0  0  0  0  0  0  0  0  0  0
   -0.3783  151.9716   54.8238 O   0  0  0  0  0  0  0  0  0  0  0  0
   -1.4192  151.4059   55.6195 C   0  0  0  0  0  0  0  0  0  0  0  0
   -1.0089  150.6933   56.3347 H   0  0  0  0  0  0  0  0  0  0  0  0
   -1.9351  152.1962   56.1719 H   0  0  0  0  0  0  0  0  0  0  0  0
   -2.1445  150.8840   54.9927 H   0  0  0  0  0  0  0  0  0  0  0  0
    1.5746  150.6777   54.5818 C   0  0  0  0  0  0  0  0  0  0  0  0
    1.9642  151.1285   55.4934 H   0  0  0  0  0  0  0  0  0  0  0  0
    2.3493  149.7663   53.8689 C   0  0  0  0  0  0  0  0  0  0  0  0
    3.6965  149.4342   54.4127 C   0  0  0  0  0  0  0  0  0  0  0  0
    3.9727  150.2426   55.0655 H   0  0  0  0  0  0  0  0  0  0  0  0
    4.4132  149.3869   53.5975 H   0  0  0  0  0  0  0  0  0  0  0  0
    3.7326  148.1363   55.1997 C   0  0  0  0  0  0  0  0  0  0  0  0
    3.8136  148.1646   56.4151 O   0  0  0  0  0  0  0  0  0  0  0  0
    3.6705  146.9514   54.5416 N   0  0  0  0  0  0  0  0  0  0  0  0
    3.4341  146.9487   53.5608 H   0  0  0  0  0  0  0  0  0  0  0  0
    3.5210  145.7613   55.1346 C   0  0  0  0  0  0  0  0  0  0  0  0
    3.0315  144.9163   54.2600 N   0  0  0  0  0  0  0  0  0  0  0  0
    2.8912  143.6521   54.6467 C   0  0  0  0  0  0  0  0  0  0  0  0
    2.3981  142.7296   53.8007 O   0  0  0  0  0  0  0  0  0  0  0  0
    2.0287  143.2613   52.5538 C   0  0  0  0  0  0  0  0  0  0  0  0
    3.1008  143.8225   51.9364 F   0  0  0  0  0  0  0  0  0  0  0  0
    1.0354  144.1766   52.7090 F   0  0  0  0  0  0  0  0  0  0  0  0
    1.5781  142.1861   51.8532 F   0  0  0  0  0  0  0  0  0  0  0  0
    3.2426  143.2014   55.8864 C   0  0  0  0  0  0  0  0  0  0  0  0
    3.1381  141.8143   56.2209 C   0  0  0  0  0  0  0  0  0  0  0  0
    3.0561  140.6787   56.4567 N   0  0  0  0  0  0  0  0  0  0  0  0
    3.7277  144.1326   56.7526 C   0  0  0  0  0  0  0  0  0  0  0  0
    4.1280  143.7654   57.9767 N   0  0  0  0  0  0  0  0  0  0  0  0
    4.4732  144.4644   58.6236 H   0  0  0  0  0  0  0  0  0  0  0  0
    4.0586  142.7927   58.2496 H   0  0  0  0  0  0  0  0  0  0  0  0
    3.8664  145.4400   56.4168 C   0  0  0  0  0  0  0  0  0  0  0  0
    4.2676  146.1460   57.1299 H   0  0  0  0  0  0  0  0  0  0  0  0
    1.9027  149.2196   52.6591 C   0  0  0  0  0  0  0  0  0  0  0  0
    2.7622  148.4057   51.9606 O   0  0  0  0  0  0  0  0  0  0  0  0
    2.1530  147.3063   51.2789 C   0  0  0  0  0  0  0  0  0  0  0  0
    2.9229  146.5965   50.9623 H   0  0  0  0  0  0  0  0  0  0  0  0
    1.4591  146.7839   51.9442 H   0  0  0  0  0  0  0  0  0  0  0  0
    1.6101  147.6480   50.3935 H   0  0  0  0  0  0  0  0  0  0  0  0
  1  2  1  0
  2  3  2  0
  3  4  1  0
  3  5  1  0
  5  6  1  0
  6  7  1  0
  7  8  1  0
  7  9  1  0
  7 10  1  0
  5 11  2  0
 11 12  1  0
 11 13  1  0
 13 14  1  0
 14 15  1  0
 14 16  1  0
 14 17  1  0
 17 18  2  0
 17 19  1  0
 19 20  1  0
 19 21  1  0
 21 22  2  0
 22 23  1  0
 23 24  1  0
 24 25  1  0
 25 26  1  0
 25 27  1  0
 25 28  1  0
 23 29  2  0
 29 30  1  0
 30 31  3  0
 29 32  1  0
 32 33  1  0
 33 34  1  0
 33 35  1  0
 32 36  2  0
 36 37  1  0
 13 38  2  0
 38 39  1  0
 39 40  1  0
 40 41  1  0
 40 42  1  0
 40 43  1  0
 38  2  1  0
 36 21  1  0
M  END
>  <score>  (208) 
7.11597

$$$$

     RDKit          3D

 56 57  0  0  0  0  0  0  0  0999 V2000
    0.3079  149.2037   51.2541 H   0  0  0  0  0  0  0  0  0  0  0  0
    0.6606  149.6076   52.1971 C   0  0  0  0  0  0  0  0  0  0  0  0
   -0.1432  150.5012   52.9356 C   0  0  0  0  0  0  0  0  0  0  0  0
   -1.8692  150.9845   52.2764 Br  0  0  0  0  0  0  0  0  0  0  0  0
    0.3356  151.0584   54.1332 C   0  0  0  0  0  0  0  0  0  0  0  0
   -0.3791  151.9757   54.8606 O   0  0  0  0  0  0  0  0  0  0  0  0
   -1.4264  151.4044   55.6487 C   0  0  0  0  0  0  0  0  0  0  0  0
   -1.9428  152.2007   56.1930 H   0  0  0  0  0  0  0  0  0  0  0  0
   -2.1530  150.8752   55.0245 H   0  0  0  0  0  0  0  0  0  0  0  0
   -1.0142  150.7036   56.3755 H   0  0  0  0  0  0  0  0  0  0  0  0
    1.5987  150.6895   54.5745 C   0  0  0  0  0  0  0  0  0  0  0  0
    1.9933  151.1421   55.4746 H   0  0  0  0  0  0  0  0  0  0  0  0
    2.3824  149.7865   53.8578 C   0  0  0  0  0  0  0  0  0  0  0  0
    3.7271  149.4756   54.3983 C   0  0  0  0  0  0  0  0  0  0  0  0
    4.4172  149.3566   53.5607 H   0  0  0  0  0  0  0  0  0  0  0  0
    3.9968  150.3524   54.9718 H   0  0  0  0  0  0  0  0  0  0  0  0
    3.7489  148.2170   55.2697 C   0  0  0  0  0  0  0  0  0  0  0  0
    3.8507  148.2774   56.4845 O   0  0  0  0  0  0  0  0  0  0  0  0
    3.7114  147.0042   54.6492 N   0  0  0  0  0  0  0  0  0  0  0  0
    3.5260  146.9669   53.6605 H   0  0  0  0  0  0  0  0  0  0  0  0
    3.5432  145.8066   55.2367 C   0  0  0  0  0  0  0  0  0  0  0  0
    3.0590  144.9813   54.3338 N   0  0  0  0  0  0  0  0  0  0  0  0
    2.9245  143.6932   54.6457 C   0  0  0  0  0  0  0  0  0  0  0  0
    2.3873  142.7889   53.5651 C   0  0  0  0  0  0  0  0  0  0  0  0
    1.7426  143.3797   52.9058 H   0  0  0  0  0  0  0  0  0  0  0  0
    1.7745  142.0354   54.0575 H   0  0  0  0  0  0  0  0  0  0  0  0
    3.5020  142.1121   52.7292 C   0  0  0  0  0  0  0  0  0  0  0  0
    4.1654  142.8786   52.3130 H   0  0  0  0  0  0  0  0  0  0  0  0
    4.0899  141.4692   53.3953 H   0  0  0  0  0  0  0  0  0  0  0  0
    2.9809  141.2562   51.5609 C   0  0  0  0  0  0  0  0  0  0  0  0
    3.5878  140.3461   51.5028 H   0  0  0  0  0  0  0  0  0  0  0  0
    1.9443  140.9519   51.7482 H   0  0  0  0  0  0  0  0  0  0  0  0
    3.0834  141.9647   50.2677 N   0  0  0  0  0  0  0  0  0  0  0  0
    2.2598  143.1772   50.1437 C   0  0  0  0  0  0  0  0  0  0  0  0
    1.2357  142.9846   50.4788 H   0  0  0  0  0  0  0  0  0  0  0  0
    2.2281  143.5030   49.0992 H   0  0  0  0  0  0  0  0  0  0  0  0
    2.6821  143.9859   50.7501 H   0  0  0  0  0  0  0  0  0  0  0  0
    4.4552  142.1275   49.7483 C   0  0  0  0  0  0  0  0  0  0  0  0
    4.9736  142.9322   50.2800 H   0  0  0  0  0  0  0  0  0  0  0  0
    5.0314  141.2038   49.8679 H   0  0  0  0  0  0  0  0  0  0  0  0
    4.4265  142.3771   48.6830 H   0  0  0  0  0  0  0  0  0  0  0  0
    3.2633  143.2092   55.9034 C   0  0  0  0  0  0  0  0  0  0  0  0
    3.1383  141.8261   56.2249 C   0  0  0  0  0  0  0  0  0  0  0  0
    3.0380  140.6881   56.4489 N   0  0  0  0  0  0  0  0  0  0  0  0
    3.7474  144.1149   56.8144 C   0  0  0  0  0  0  0  0  0  0  0  0
    4.1509  143.7212   58.0346 N   0  0  0  0  0  0  0  0  0  0  0  0
    4.5025  144.4247   58.6781 H   0  0  0  0  0  0  0  0  0  0  0  0
    4.0641  142.7442   58.3044 H   0  0  0  0  0  0  0  0  0  0  0  0
    3.8943  145.4365   56.5085 C   0  0  0  0  0  0  0  0  0  0  0  0
    4.3159  146.1279   57.2231 H   0  0  0  0  0  0  0  0  0  0  0  0
    1.9362  149.2391   52.6498 C   0  0  0  0  0  0  0  0  0  0  0  0
    2.7764  148.4026   51.9476 O   0  0  0  0  0  0  0  0  0  0  0  0
    2.1667  147.2950   51.2806 C   0  0  0  0  0  0  0  0  0  0  0  0
    1.4819  146.7645   51.9512 H   0  0  0  0  0  0  0  0  0  0  0  0
    1.6183  147.6342   50.3973 H   0  0  0  0  0  0  0  0  0  0  0  0
    2.9511  146.5986   50.9656 H   0  0  0  0  0  0  0  0  0  0  0  0
  1  2  1  0
  2  3  2  0
  3  4  1  0
  3  5  1  0
  5  6  1  0
  6  7  1  0
  7  8  1  0
  7  9  1  0
  7 10  1  0
  5 11  2  0
 11 12  1  0
 11 13  1  0
 13 14  1  0
 14 15  1  0
 14 16  1  0
 14 17  1  0
 17 18  2  0
 17 19  1  0
 19 20  1  0
 19 21  1  0
 21 22  2  0
 22 23  1  0
 23 24  1  0
 24 25  1  0
 24 26  1  0
 24 27  1  0
 27 28  1  0
 27 29  1  0
 27 30  1  0
 30 31  1  0
 30 32  1  0
 30 33  1  0
 33 34  1  0
 34 35  1  0
 34 36  1  0
 34 37  1  0
 33 38  1  0
 38 39  1  0
 38 40  1  0
 38 41  1  0
 23 42  2  0
 42 43  1  0
 43 44  3  0
 42 45  1  0
 45 46  1  0
 46 47  1  0
 46 48  1  0
 45 49  2  0
 49 50  1  0
 13 51  2  0
 51 52  1  0
 52 53  1  0
 53 54  1  0
 53 55  1  0
 53 56  1  0
 51  2  1  0
 49 21  1  0
M  END
>  <score>  (209) 
7.11626

$$$$

     RDKit          3D

 49 50  0  0  0  0  0  0  0  0999 V2000
    0.2490  149.1412   51.2621 H   0  0  0  0  0  0  0  0  0  0  0  0
    0.6073  149.5683   52.1936 C   0  0  0  0  0  0  0  0  0  0  0  0
   -0.2065  150.4778   52.8918 C   0  0  0  0  0  0  0  0  0  0  0  0
   -1.9408  150.9303   52.2117 Br  0  0  0  0  0  0  0  0  0  0  0  0
    0.2658  151.0620   54.0767 C   0  0  0  0  0  0  0  0  0  0  0  0
   -0.4492  152.0006   54.7663 O   0  0  0  0  0  0  0  0  0  0  0  0
   -1.4565  151.4050   55.5781 C   0  0  0  0  0  0  0  0  0  0  0  0
   -1.0100  150.6850   56.2678 H   0  0  0  0  0  0  0  0  0  0  0  0
   -1.9580  152.1791   56.1624 H   0  0  0  0  0  0  0  0  0  0  0  0
   -2.1942  150.8916   54.9538 H   0  0  0  0  0  0  0  0  0  0  0  0
    1.5145  150.6905   54.5593 C   0  0  0  0  0  0  0  0  0  0  0  0
    1.8548  151.1352   55.4859 H   0  0  0  0  0  0  0  0  0  0  0  0
    2.3422  149.8074   53.8619 C   0  0  0  0  0  0  0  0  0  0  0  0
    3.7036  149.5579   54.4500 C   0  0  0  0  0  0  0  0  0  0  0  0
    4.4605  149.5017   53.6533 H   0  0  0  0  0  0  0  0  0  0  0  0
    3.8970  150.4042   55.0973 H   0  0  0  0  0  0  0  0  0  0  0  0
    3.7673  148.3023   55.3028 C   0  0  0  0  0  0  0  0  0  0  0  0
    3.8185  148.3338   56.5221 O   0  0  0  0  0  0  0  0  0  0  0  0
    3.8149  147.1254   54.6399 N   0  0  0  0  0  0  0  0  0  0  0  0
    3.5428  147.1524   53.6727 H   0  0  0  0  0  0  0  0  0  0  0  0
    3.6929  145.9116   55.2067 C   0  0  0  0  0  0  0  0  0  0  0  0
    3.2881  145.0743   54.2763 N   0  0  0  0  0  0  0  0  0  0  0  0
    3.1293  143.7650   54.5358 C   0  0  0  0  0  0  0  0  0  0  0  0
    2.7041  142.8475   53.3845 C   0  0  0  0  0  0  0  0  0  0  0  0
    2.6041  141.6348   53.5673 O   0  0  0  0  0  0  0  0  0  0  0  0
    2.3900  143.3193   52.1025 N   0  0  0  0  0  0  0  0  0  0  0  0
    2.7052  144.2559   51.8548 H   0  0  0  0  0  0  0  0  0  0  0  0
    1.7591  142.5025   51.0687 C   0  0  0  0  0  0  0  0  0  0  0  0
    1.6155  143.0892   50.1590 H   0  0  0  0  0  0  0  0  0  0  0  0
    0.7658  142.1713   51.3916 H   0  0  0  0  0  0  0  0  0  0  0  0
    2.6481  141.3078   50.7844 C   0  0  0  0  0  0  0  0  0  0  0  0
    2.6847  140.6664   51.6676 H   0  0  0  0  0  0  0  0  0  0  0  0
    3.6642  141.6292   50.5459 H   0  0  0  0  0  0  0  0  0  0  0  0
    2.2575  140.7383   49.9387 H   0  0  0  0  0  0  0  0  0  0  0  0
    3.3652  143.3206   55.8550 C   0  0  0  0  0  0  0  0  0  0  0  0
    3.1950  141.9486   56.1961 C   0  0  0  0  0  0  0  0  0  0  0  0
    3.0789  140.8109   56.4109 N   0  0  0  0  0  0  0  0  0  0  0  0
    3.7776  144.2297   56.8174 C   0  0  0  0  0  0  0  0  0  0  0  0
    4.0147  143.8304   58.1011 N   0  0  0  0  0  0  0  0  0  0  0  0
    4.1091  142.8314   58.2908 H   0  0  0  0  0  0  0  0  0  0  0  0
    4.4924  144.4845   58.7133 H   0  0  0  0  0  0  0  0  0  0  0  0
    3.9591  145.5501   56.4992 C   0  0  0  0  0  0  0  0  0  0  0  0
    4.3055  146.2554   57.2420 H   0  0  0  0  0  0  0  0  0  0  0  0
    1.8941  149.2313   52.6610 C   0  0  0  0  0  0  0  0  0  0  0  0
    2.7365  148.3831   51.9827 O   0  0  0  0  0  0  0  0  0  0  0  0
    2.1134  147.3135   51.2675 C   0  0  0  0  0  0  0  0  0  0  0  0
    1.4225  146.7705   51.9222 H   0  0  0  0  0  0  0  0  0  0  0  0
    2.8861  146.6189   50.9214 H   0  0  0  0  0  0  0  0  0  0  0  0
    1.5683  147.6959   50.3989 H   0  0  0  0  0  0  0  0  0  0  0  0
  1  2  1  0
  2  3  2  0
  3  4  1  0
  3  5  1  0
  5  6  1  0
  6  7  1  0
  7  8  1  0
  7  9  1  0
  7 10  1  0
  5 11  2  0
 11 12  1  0
 11 13  1  0
 13 14  1  0
 14 15  1  0
 14 16  1  0
 14 17  1  0
 17 18  2  0
 17 19  1  0
 19 20  1  0
 19 21  1  0
 21 22  2  0
 22 23  1  0
 23 24  1  0
 24 25  2  0
 24 26  1  0
 26 27  1  0
 26 28  1  0
 28 29  1  0
 28 30  1  0
 28 31  1  0
 31 32  1  0
 31 33  1  0
 31 34  1  0
 23 35  2  0
 35 36  1  0
 36 37  3  0
 35 38  1  0
 38 39  1  0
 39 40  1  0
 39 41  1  0
 38 42  2  0
 42 43  1  0
 13 44  2  0
 44 45  1  0
 45 46  1  0
 46 47  1  0
 46 48  1  0
 46 49  1  0
 44  2  1  0
 42 21  1  0
M  END
>  <score>  (210) 
7.11755

$$$$

     RDKit          3D

 51 52  0  0  0  0  0  0  0  0999 V2000
    3.5385  140.6938   49.8397 H   0  0  0  0  0  0  0  0  0  0  0  0
    4.0655  140.3642   50.5865 O   0  0  0  0  0  0  0  0  0  0  0  0
    4.8085  141.4377   51.1556 C   0  0  0  0  0  0  0  0  0  0  0  0
    5.5201  141.0470   51.8936 H   0  0  0  0  0  0  0  0  0  0  0  0
    5.3785  141.9531   50.3723 H   0  0  0  0  0  0  0  0  0  0  0  0
    3.8344  142.4156   51.8121 C   0  0  0  0  0  0  0  0  0  0  0  0
    4.3672  143.3295   52.0897 H   0  0  0  0  0  0  0  0  0  0  0  0
    3.0472  142.6992   51.1076 H   0  0  0  0  0  0  0  0  0  0  0  0
    3.1852  141.8106   53.0493 C   0  0  0  0  0  0  0  0  0  0  0  0
    2.5179  140.9877   52.7708 H   0  0  0  0  0  0  0  0  0  0  0  0
    3.9481  141.4092   53.7286 H   0  0  0  0  0  0  0  0  0  0  0  0
    2.4078  142.8812   53.6738 N   0  0  0  0  0  0  0  0  0  0  0  0
    2.0353  143.5588   53.0090 H   0  0  0  0  0  0  0  0  0  0  0  0
    2.9681  143.6174   54.6579 C   0  0  0  0  0  0  0  0  0  0  0  0
    3.0520  144.8566   54.2512 N   0  0  0  0  0  0  0  0  0  0  0  0
    3.5236  145.7112   55.1144 C   0  0  0  0  0  0  0  0  0  0  0  0
    3.6108  146.9106   54.5099 N   0  0  0  0  0  0  0  0  0  0  0  0
    3.3551  146.9191   53.5349 H   0  0  0  0  0  0  0  0  0  0  0  0
    3.6964  148.0888   55.1758 C   0  0  0  0  0  0  0  0  0  0  0  0
    3.8003  148.0943   56.3859 O   0  0  0  0  0  0  0  0  0  0  0  0
    3.6843  149.4090   54.4262 C   0  0  0  0  0  0  0  0  0  0  0  0
    3.9442  150.1712   55.1526 H   0  0  0  0  0  0  0  0  0  0  0  0
    4.4254  149.4062   53.6229 H   0  0  0  0  0  0  0  0  0  0  0  0
    2.3315  149.7470   53.8721 C   0  0  0  0  0  0  0  0  0  0  0  0
    1.5534  150.6625   54.5749 C   0  0  0  0  0  0  0  0  0  0  0  0
    1.9185  151.1141   55.4965 H   0  0  0  0  0  0  0  0  0  0  0  0
    0.3027  151.0350   54.0895 C   0  0  0  0  0  0  0  0  0  0  0  0
   -0.3908  151.9776   54.7870 O   0  0  0  0  0  0  0  0  0  0  0  0
   -1.4227  151.4051   55.5917 C   0  0  0  0  0  0  0  0  0  0  0  0
   -1.0041  150.6843   56.2994 H   0  0  0  0  0  0  0  0  0  0  0  0
   -2.1528  150.8893   54.9608 H   0  0  0  0  0  0  0  0  0  0  0  0
   -1.9331  152.1909   56.1580 H   0  0  0  0  0  0  0  0  0  0  0  0
   -0.1962  150.4694   52.9025 C   0  0  0  0  0  0  0  0  0  0  0  0
   -1.9269  150.9701   52.2536 Br  0  0  0  0  0  0  0  0  0  0  0  0
    0.6044  149.5730   52.1799 C   0  0  0  0  0  0  0  0  0  0  0  0
    0.2733  149.1666   51.2323 H   0  0  0  0  0  0  0  0  0  0  0  0
    1.8807  149.2188   52.6541 C   0  0  0  0  0  0  0  0  0  0  0  0
    2.7441  148.4023   51.9695 O   0  0  0  0  0  0  0  0  0  0  0  0
    2.1355  147.3150   51.2734 C   0  0  0  0  0  0  0  0  0  0  0  0
    1.4439  146.7903   51.9375 H   0  0  0  0  0  0  0  0  0  0  0  0
    2.9009  146.6061   50.9449 H   0  0  0  0  0  0  0  0  0  0  0  0
    1.5889  147.6677   50.3945 H   0  0  0  0  0  0  0  0  0  0  0  0
    3.8801  145.4114   56.4091 C   0  0  0  0  0  0  0  0  0  0  0  0
    4.2387  146.1584   57.1012 H   0  0  0  0  0  0  0  0  0  0  0  0
    3.7865  144.1020   56.7728 C   0  0  0  0  0  0  0  0  0  0  0  0
    4.1425  143.7647   58.0214 N   0  0  0  0  0  0  0  0  0  0  0  0
    4.4658  144.4925   58.6600 H   0  0  0  0  0  0  0  0  0  0  0  0
    4.0835  142.7855   58.2896 H   0  0  0  0  0  0  0  0  0  0  0  0
    3.3365  143.1585   55.8928 C   0  0  0  0  0  0  0  0  0  0  0  0
    3.2056  141.7734   56.2074 C   0  0  0  0  0  0  0  0  0  0  0  0
    3.0862  140.6409   56.4268 N   0  0  0  0  0  0  0  0  0  0  0  0
  1  2  1  0
  2  3  1  0
  3  4  1  0
  3  5  1  0
  3  6  1  0
  6  7  1  0
  6  8  1  0
  6  9  1  0
  9 10  1  0
  9 11  1  0
  9 12  1  0
 12 13  1  0
 12 14  1  0
 14 15  2  0
 15 16  1  0
 16 17  1  0
 17 18  1  0
 17 19  1  0
 19 20  2  0
 19 21  1  0
 21 22  1  0
 21 23  1  0
 21 24  1  0
 24 25  2  0
 25 26  1  0
 25 27  1  0
 27 28  1  0
 28 29  1  0
 29 30  1  0
 29 31  1  0
 29 32  1  0
 27 33  2  0
 33 34  1  0
 33 35  1  0
 35 36  1  0
 35 37  2  0
 37 38  1  0
 38 39  1  0
 39 40  1  0
 39 41  1  0
 39 42  1  0
 16 43  2  0
 43 44  1  0
 43 45  1  0
 45 46  1  0
 46 47  1  0
 46 48  1  0
 45 49  2  0
 49 50  1  0
 50 51  3  0
 49 14  1  0
 37 24  1  0
M  END
>  <score>  (211) 
7.11771

$$$$

     RDKit          3D

 50 52  0  0  0  0  0  0  0  0999 V2000
    0.3239  142.0049   48.4415 H   0  0  0  0  0  0  0  0  0  0  0  0
    0.8134  141.9376   49.4028 C   0  0  0  0  0  0  0  0  0  0  0  0
    0.6651  142.8461   50.4142 O   0  0  0  0  0  0  0  0  0  0  0  0
    1.4685  142.4407   51.4559 C   0  0  0  0  0  0  0  0  0  0  0  0
    1.6389  143.2259   52.6966 C   0  0  0  0  0  0  0  0  0  0  0  0
    1.1346  144.3372   52.7847 O   0  0  0  0  0  0  0  0  0  0  0  0
    2.4158  142.8043   53.7544 N   0  0  0  0  0  0  0  0  0  0  0  0
    2.7596  141.8558   53.8002 H   0  0  0  0  0  0  0  0  0  0  0  0
    2.8698  143.6797   54.6993 C   0  0  0  0  0  0  0  0  0  0  0  0
    3.0027  144.9323   54.3148 N   0  0  0  0  0  0  0  0  0  0  0  0
    3.5103  145.7747   55.1731 C   0  0  0  0  0  0  0  0  0  0  0  0
    3.6691  146.9543   54.5576 N   0  0  0  0  0  0  0  0  0  0  0  0
    3.4053  146.9587   53.5814 H   0  0  0  0  0  0  0  0  0  0  0  0
    3.7323  148.1436   55.2091 C   0  0  0  0  0  0  0  0  0  0  0  0
    3.8085  148.1848   56.4232 O   0  0  0  0  0  0  0  0  0  0  0  0
    3.7007  149.4355   54.4175 C   0  0  0  0  0  0  0  0  0  0  0  0
    4.4259  149.3981   53.6059 H   0  0  0  0  0  0  0  0  0  0  0  0
    3.9779  150.2259   55.0960 H   0  0  0  0  0  0  0  0  0  0  0  0
    2.3448  149.7655   53.8728 C   0  0  0  0  0  0  0  0  0  0  0  0
    1.5643  150.6787   54.5807 C   0  0  0  0  0  0  0  0  0  0  0  0
    1.9431  151.1275   55.4993 H   0  0  0  0  0  0  0  0  0  0  0  0
    0.3095  151.0376   54.1011 C   0  0  0  0  0  0  0  0  0  0  0  0
   -0.3872  151.9759   54.8093 O   0  0  0  0  0  0  0  0  0  0  0  0
   -1.4228  151.4063   55.6096 C   0  0  0  0  0  0  0  0  0  0  0  0
   -1.0074  150.6894   56.3202 H   0  0  0  0  0  0  0  0  0  0  0  0
   -2.1480  150.8871   54.9789 H   0  0  0  0  0  0  0  0  0  0  0  0
   -1.9385  152.1933   56.1683 H   0  0  0  0  0  0  0  0  0  0  0  0
   -0.1821  150.4769   52.9045 C   0  0  0  0  0  0  0  0  0  0  0  0
   -1.9191  150.9766   52.2575 Br  0  0  0  0  0  0  0  0  0  0  0  0
    0.6172  149.5745   52.1818 C   0  0  0  0  0  0  0  0  0  0  0  0
    0.2808  149.1742   51.2318 H   0  0  0  0  0  0  0  0  0  0  0  0
    1.8902  149.2194   52.6591 C   0  0  0  0  0  0  0  0  0  0  0  0
    2.7529  148.4017   51.9674 O   0  0  0  0  0  0  0  0  0  0  0  0
    2.1428  147.3066   51.2792 C   0  0  0  0  0  0  0  0  0  0  0  0
    1.6244  147.6479   50.3790 H   0  0  0  0  0  0  0  0  0  0  0  0
    2.9055  146.5799   50.9843 H   0  0  0  0  0  0  0  0  0  0  0  0
    1.4264  146.8030   51.9343 H   0  0  0  0  0  0  0  0  0  0  0  0
    3.8745  145.4508   56.4586 C   0  0  0  0  0  0  0  0  0  0  0  0
    4.3019  146.1592   57.1632 H   0  0  0  0  0  0  0  0  0  0  0  0
    3.7411  144.1339   56.8015 C   0  0  0  0  0  0  0  0  0  0  0  0
    4.1739  143.7536   58.0140 N   0  0  0  0  0  0  0  0  0  0  0  0
    4.4767  144.4652   58.6724 H   0  0  0  0  0  0  0  0  0  0  0  0
    4.0647  142.7863   58.3006 H   0  0  0  0  0  0  0  0  0  0  0  0
    3.2431  143.2083   55.9263 C   0  0  0  0  0  0  0  0  0  0  0  0
    3.1420  141.8149   56.2272 C   0  0  0  0  0  0  0  0  0  0  0  0
    3.0758  140.6709   56.4195 N   0  0  0  0  0  0  0  0  0  0  0  0
    2.0806  141.2599   51.1143 C   0  0  0  0  0  0  0  0  0  0  0  0
    2.7471  140.6774   51.7338 H   0  0  0  0  0  0  0  0  0  0  0  0
    1.6850  140.9612   49.7637 C   0  0  0  0  0  0  0  0  0  0  0  0
    2.0226  140.1505   49.1243 H   0  0  0  0  0  0  0  0  0  0  0  0
  1  2  1  0
  2  3  1  0
  3  4  1  0
  4  5  1  0
  5  6  2  0
  5  7  1  0
  7  8  1  0
  7  9  1  0
  9 10  2  0
 10 11  1  0
 11 12  1  0
 12 13  1  0
 12 14  1  0
 14 15  2  0
 14 16  1  0
 16 17  1  0
 16 18  1  0
 16 19  1  0
 19 20  2  0
 20 21  1  0
 20 22  1  0
 22 23  1  0
 23 24  1  0
 24 25  1  0
 24 26  1  0
 24 27  1  0
 22 28  2  0
 28 29  1  0
 28 30  1  0
 30 31  1  0
 30 32  2  0
 32 33  1  0
 33 34  1  0
 34 35  1  0
 34 36  1  0
 34 37  1  0
 11 38  2  0
 38 39  1  0
 38 40  1  0
 40 41  1  0
 41 42  1  0
 41 43  1  0
 40 44  2  0
 44 45  1  0
 45 46  3  0
  4 47  2  0
 47 48  1  0
 47 49  1  0
 49 50  1  0
 49  2  2  0
 44  9  1  0
 32 19  1  0
M  END
>  <score>  (212) 
7.1214

$$$$

     RDKit          3D

 52 54  0  0  0  0  0  0  0  0999 V2000
    1.0173  140.6089   50.7977 H   0  0  0  0  0  0  0  0  0  0  0  0
    1.3828  141.2217   51.6109 C   0  0  0  0  0  0  0  0  0  0  0  0
    2.5694  140.9256   52.1469 N   0  0  0  0  0  0  0  0  0  0  0  0
    3.0380  141.6833   53.1447 C   0  0  0  0  0  0  0  0  0  0  0  0
    4.2208  141.3601   53.7568 O   0  0  0  0  0  0  0  0  0  0  0  0
    5.0443  140.3992   53.0673 C   0  0  0  0  0  0  0  0  0  0  0  0
    4.6273  139.3935   53.1603 H   0  0  0  0  0  0  0  0  0  0  0  0
    5.1136  140.6465   52.0034 H   0  0  0  0  0  0  0  0  0  0  0  0
    6.0597  140.3734   53.4763 H   0  0  0  0  0  0  0  0  0  0  0  0
    2.3294  142.7857   53.5860 C   0  0  0  0  0  0  0  0  0  0  0  0
    2.9328  143.6008   54.5879 C   0  0  0  0  0  0  0  0  0  0  0  0
    3.0866  144.8713   54.2554 N   0  0  0  0  0  0  0  0  0  0  0  0
    3.5644  145.7043   55.1469 C   0  0  0  0  0  0  0  0  0  0  0  0
    3.6674  146.9195   54.5726 N   0  0  0  0  0  0  0  0  0  0  0  0
    3.4305  146.9383   53.5921 H   0  0  0  0  0  0  0  0  0  0  0  0
    3.7200  148.1040   55.2301 C   0  0  0  0  0  0  0  0  0  0  0  0
    3.8039  148.1362   56.4424 O   0  0  0  0  0  0  0  0  0  0  0  0
    3.6898  149.4001   54.4451 C   0  0  0  0  0  0  0  0  0  0  0  0
    4.4203  149.3643   53.6372 H   0  0  0  0  0  0  0  0  0  0  0  0
    3.9666  150.1861   55.1317 H   0  0  0  0  0  0  0  0  0  0  0  0
    2.3391  149.7408   53.8875 C   0  0  0  0  0  0  0  0  0  0  0  0
    1.5567  150.6602   54.5819 C   0  0  0  0  0  0  0  0  0  0  0  0
    1.9267  151.1146   55.4977 H   0  0  0  0  0  0  0  0  0  0  0  0
    0.3074  151.0334   54.0947 C   0  0  0  0  0  0  0  0  0  0  0  0
   -0.3882  151.9758   54.7948 O   0  0  0  0  0  0  0  0  0  0  0  0
   -1.4228  151.4065   55.5968 C   0  0  0  0  0  0  0  0  0  0  0  0
   -1.9365  152.1901   56.1620 H   0  0  0  0  0  0  0  0  0  0  0  0
   -1.0074  150.6876   56.3048 H   0  0  0  0  0  0  0  0  0  0  0  0
   -2.1513  150.8905   54.9676 H   0  0  0  0  0  0  0  0  0  0  0  0
   -0.1872  150.4715   52.9037 C   0  0  0  0  0  0  0  0  0  0  0  0
   -1.9221  150.9687   52.2530 Br  0  0  0  0  0  0  0  0  0  0  0  0
    0.6153  149.5696   52.1858 C   0  0  0  0  0  0  0  0  0  0  0  0
    0.2775  149.1708   51.2342 H   0  0  0  0  0  0  0  0  0  0  0  0
    1.8877  149.2103   52.6692 C   0  0  0  0  0  0  0  0  0  0  0  0
    2.7475  148.3986   51.9716 O   0  0  0  0  0  0  0  0  0  0  0  0
    2.1385  147.3116   51.2732 C   0  0  0  0  0  0  0  0  0  0  0  0
    1.4480  146.7847   51.9358 H   0  0  0  0  0  0  0  0  0  0  0  0
    2.9036  146.6031   50.9427 H   0  0  0  0  0  0  0  0  0  0  0  0
    1.5920  147.6653   50.3952 H   0  0  0  0  0  0  0  0  0  0  0  0
    3.8835  145.3382   56.4290 C   0  0  0  0  0  0  0  0  0  0  0  0
    4.2440  146.0170   57.1835 H   0  0  0  0  0  0  0  0  0  0  0  0
    3.7649  144.0228   56.7437 C   0  0  0  0  0  0  0  0  0  0  0  0
    4.1324  143.6450   57.9839 N   0  0  0  0  0  0  0  0  0  0  0  0
    4.9025  142.9830   57.9709 H   0  0  0  0  0  0  0  0  0  0  0  0
    3.3418  143.3498   58.5479 H   0  0  0  0  0  0  0  0  0  0  0  0
    3.3006  143.1129   55.8259 C   0  0  0  0  0  0  0  0  0  0  0  0
    3.1644  141.7310   56.1434 C   0  0  0  0  0  0  0  0  0  0  0  0
    3.0624  140.5954   56.3704 N   0  0  0  0  0  0  0  0  0  0  0  0
    1.0835  143.1073   53.0518 C   0  0  0  0  0  0  0  0  0  0  0  0
    0.5135  143.9660   53.4096 H   0  0  0  0  0  0  0  0  0  0  0  0
    0.5961  142.2768   52.0629 C   0  0  0  0  0  0  0  0  0  0  0  0
   -0.3843  142.4459   51.6412 H   0  0  0  0  0  0  0  0  0  0  0  0
  1  2  1  0
  2  3  2  0
  3  4  1  0
  4  5  1  0
  5  6  1  0
  6  7  1  0
  6  8  1  0
  6  9  1  0
  4 10  2  0
 10 11  1  0
 11 12  2  0
 12 13  1  0
 13 14  1  0
 14 15  1  0
 14 16  1  0
 16 17  2  0
 16 18  1  0
 18 19  1  0
 18 20  1  0
 18 21  1  0
 21 22  2  0
 22 23  1  0
 22 24  1  0
 24 25  1  0
 25 26  1  0
 26 27  1  0
 26 28  1  0
 26 29  1  0
 24 30  2  0
 30 31  1  0
 30 32  1  0
 32 33  1  0
 32 34  2  0
 34 35  1  0
 35 36  1  0
 36 37  1  0
 36 38  1  0
 36 39  1  0
 13 40  2  0
 40 41  1  0
 40 42  1  0
 42 43  1  0
 43 44  1  0
 43 45  1  0
 42 46  2  0
 46 47  1  0
 47 48  3  0
 10 49  1  0
 49 50  1  0
 49 51  2  0
 51 52  1  0
 51  2  1  0
 46 11  1  0
 34 21  1  0
M  END
>  <score>  (213) 
7.12176

$$$$

     RDKit          3D

 45 46  0  0  0  0  0  0  0  0999 V2000
    0.2652  149.1636   51.2400 H   0  0  0  0  0  0  0  0  0  0  0  0
    0.6081  149.5753   52.1836 C   0  0  0  0  0  0  0  0  0  0  0  0
   -0.1965  150.4728   52.9058 C   0  0  0  0  0  0  0  0  0  0  0  0
   -1.9266  150.9620   52.2410 Br  0  0  0  0  0  0  0  0  0  0  0  0
    0.3001  151.0439   54.0892 C   0  0  0  0  0  0  0  0  0  0  0  0
   -0.4039  151.9828   54.7866 O   0  0  0  0  0  0  0  0  0  0  0  0
   -1.4313  151.4045   55.5903 C   0  0  0  0  0  0  0  0  0  0  0  0
   -2.1631  150.8903   54.9600 H   0  0  0  0  0  0  0  0  0  0  0  0
   -1.0067  150.6860   56.2957 H   0  0  0  0  0  0  0  0  0  0  0  0
   -1.9391  152.1886   56.1600 H   0  0  0  0  0  0  0  0  0  0  0  0
    1.5503  150.6677   54.5700 C   0  0  0  0  0  0  0  0  0  0  0  0
    1.9064  151.1099   55.4960 H   0  0  0  0  0  0  0  0  0  0  0  0
    2.3412  149.7629   53.8620 C   0  0  0  0  0  0  0  0  0  0  0  0
    3.6902  149.4175   54.4179 C   0  0  0  0  0  0  0  0  0  0  0  0
    4.4415  149.4240   53.6169 H   0  0  0  0  0  0  0  0  0  0  0  0
    3.9413  150.1587   55.1678 H   0  0  0  0  0  0  0  0  0  0  0  0
    3.6822  148.0857   55.1345 C   0  0  0  0  0  0  0  0  0  0  0  0
    3.7873  148.0510   56.3501 O   0  0  0  0  0  0  0  0  0  0  0  0
    3.6090  146.9367   54.4193 N   0  0  0  0  0  0  0  0  0  0  0  0
    3.3523  146.9835   53.4454 H   0  0  0  0  0  0  0  0  0  0  0  0
    3.5036  145.7272   54.9882 C   0  0  0  0  0  0  0  0  0  0  0  0
    3.0998  144.8454   54.1141 N   0  0  0  0  0  0  0  0  0  0  0  0
    3.0067  143.5839   54.5119 C   0  0  0  0  0  0  0  0  0  0  0  0
    2.7068  142.5939   53.6656 O   0  0  0  0  0  0  0  0  0  0  0  0
    1.9721  143.3194   52.4333 S   0  0  0  0  0  0  0  0  0  0  0  0
    1.4719  142.3864   51.4330 O   0  0  0  0  0  0  0  0  0  0  0  0
    1.1081  144.4483   52.7648 O   0  0  0  0  0  0  0  0  0  0  0  0
    3.3274  143.8854   51.7696 N   0  0  0  0  0  0  0  0  0  0  0  0
    3.0390  144.1668   50.8515 H   0  0  0  0  0  0  0  0  0  0  0  0
    3.9169  143.0711   51.7234 H   0  0  0  0  0  0  0  0  0  0  0  0
    3.2666  143.2028   55.7950 C   0  0  0  0  0  0  0  0  0  0  0  0
    3.1569  141.8359   56.1634 C   0  0  0  0  0  0  0  0  0  0  0  0
    3.0755  140.6986   56.3939 N   0  0  0  0  0  0  0  0  0  0  0  0
    3.6887  144.1517   56.6680 C   0  0  0  0  0  0  0  0  0  0  0  0
    4.0289  143.8049   57.9145 N   0  0  0  0  0  0  0  0  0  0  0  0
    4.4276  144.5168   58.5231 H   0  0  0  0  0  0  0  0  0  0  0  0
    4.0389  142.8141   58.1548 H   0  0  0  0  0  0  0  0  0  0  0  0
    3.8207  145.4410   56.2887 C   0  0  0  0  0  0  0  0  0  0  0  0
    4.1800  146.1777   56.9899 H   0  0  0  0  0  0  0  0  0  0  0  0
    1.8858  149.2240   52.6518 C   0  0  0  0  0  0  0  0  0  0  0  0
    2.7372  148.3880   51.9716 O   0  0  0  0  0  0  0  0  0  0  0  0
    2.1261  147.3022   51.2740 C   0  0  0  0  0  0  0  0  0  0  0  0
    1.4437  146.7673   51.9397 H   0  0  0  0  0  0  0  0  0  0  0  0
    2.8975  146.6032   50.9359 H   0  0  0  0  0  0  0  0  0  0  0  0
    1.5738  147.6598   50.4009 H   0  0  0  0  0  0  0  0  0  0  0  0
  1  2  1  0
  2  3  2  0
  3  4  1  0
  3  5  1  0
  5  6  1  0
  6  7  1  0
  7  8  1  0
  7  9  1  0
  7 10  1  0
  5 11  2  0
 11 12  1  0
 11 13  1  0
 13 14  1  0
 14 15  1  0
 14 16  1  0
 14 17  1  0
 17 18  2  0
 17 19  1  0
 19 20  1  0
 19 21  1  0
 21 22  2  0
 22 23  1  0
 23 24  1  0
 24 25  1  0
 25 26  2  0
 25 27  2  0
 25 28  1  0
 28 29  1  0
 28 30  1  0
 23 31  2  0
 31 32  1  0
 32 33  3  0
 31 34  1  0
 34 35  1  0
 35 36  1  0
 35 37  1  0
 34 38  2  0
 38 39  1  0
 13 40  2  0
 40 41  1  0
 41 42  1  0
 42 43  1  0
 42 44  1  0
 42 45  1  0
 40  2  1  0
 38 21  1  0
M  END
>  <score>  (214) 
7.12544

$$$$

     RDKit          3D

 48 50  0  0  0  0  0  0  0  0999 V2000
    0.5897  144.0543   53.5540 H   0  0  0  0  0  0  0  0  0  0  0  0
    1.1638  143.2512   53.0918 C   0  0  0  0  0  0  0  0  0  0  0  0
    0.7553  142.7304   51.9248 N   0  0  0  0  0  0  0  0  0  0  0  0
    1.4787  141.7415   51.3723 C   0  0  0  0  0  0  0  0  0  0  0  0
    1.0767  141.2231   49.7566 Cl  0  0  0  0  0  0  0  0  0  0  0  0
    2.5852  141.1733   52.0219 C   0  0  0  0  0  0  0  0  0  0  0  0
    3.1432  140.3683   51.5588 H   0  0  0  0  0  0  0  0  0  0  0  0
    3.0072  141.6917   53.2424 C   0  0  0  0  0  0  0  0  0  0  0  0
    3.9067  141.3170   53.7283 H   0  0  0  0  0  0  0  0  0  0  0  0
    2.3112  142.7998   53.7277 C   0  0  0  0  0  0  0  0  0  0  0  0
    2.8643  143.6561   54.7360 C   0  0  0  0  0  0  0  0  0  0  0  0
    2.9760  144.9251   54.3516 N   0  0  0  0  0  0  0  0  0  0  0  0
    3.5173  145.7763   55.1839 C   0  0  0  0  0  0  0  0  0  0  0  0
    3.6567  146.9763   54.5816 N   0  0  0  0  0  0  0  0  0  0  0  0
    3.4326  146.9850   53.5948 H   0  0  0  0  0  0  0  0  0  0  0  0
    3.7187  148.1654   55.2411 C   0  0  0  0  0  0  0  0  0  0  0  0
    3.8204  148.2035   56.4567 O   0  0  0  0  0  0  0  0  0  0  0  0
    3.7088  149.4506   54.4257 C   0  0  0  0  0  0  0  0  0  0  0  0
    4.4495  149.4059   53.6203 H   0  0  0  0  0  0  0  0  0  0  0  0
    3.9560  150.2576   55.0993 H   0  0  0  0  0  0  0  0  0  0  0  0
    2.3582  149.7781   53.8623 C   0  0  0  0  0  0  0  0  0  0  0  0
    1.5603  150.6805   54.5703 C   0  0  0  0  0  0  0  0  0  0  0  0
    1.9256  151.1231   55.4926 H   0  0  0  0  0  0  0  0  0  0  0  0
    0.3053  151.0555   54.0997 C   0  0  0  0  0  0  0  0  0  0  0  0
   -0.4063  151.9881   54.8084 O   0  0  0  0  0  0  0  0  0  0  0  0
   -1.4358  151.4049   55.6072 C   0  0  0  0  0  0  0  0  0  0  0  0
   -2.1657  150.8871   54.9757 H   0  0  0  0  0  0  0  0  0  0  0  0
   -1.9471  152.1902   56.1727 H   0  0  0  0  0  0  0  0  0  0  0  0
   -1.0082  150.6896   56.3147 H   0  0  0  0  0  0  0  0  0  0  0  0
   -0.1811  150.4837   52.9094 C   0  0  0  0  0  0  0  0  0  0  0  0
   -1.9142  150.9602   52.2433 Br  0  0  0  0  0  0  0  0  0  0  0  0
    0.6241  149.5816   52.1865 C   0  0  0  0  0  0  0  0  0  0  0  0
    0.2701  149.1706   51.2456 H   0  0  0  0  0  0  0  0  0  0  0  0
    1.9045  149.2306   52.6513 C   0  0  0  0  0  0  0  0  0  0  0  0
    2.7511  148.3911   51.9662 O   0  0  0  0  0  0  0  0  0  0  0  0
    2.1366  147.3033   51.2715 C   0  0  0  0  0  0  0  0  0  0  0  0
    2.9109  146.6003   50.9434 H   0  0  0  0  0  0  0  0  0  0  0  0
    1.5942  147.6641   50.3914 H   0  0  0  0  0  0  0  0  0  0  0  0
    1.4448  146.7730   51.9359 H   0  0  0  0  0  0  0  0  0  0  0  0
    3.9051  145.4436   56.4622 C   0  0  0  0  0  0  0  0  0  0  0  0
    4.2961  146.1757   57.1473 H   0  0  0  0  0  0  0  0  0  0  0  0
    3.7856  144.1305   56.8363 C   0  0  0  0  0  0  0  0  0  0  0  0
    4.1900  143.7637   58.0705 N   0  0  0  0  0  0  0  0  0  0  0  0
    4.4919  144.4815   58.7279 H   0  0  0  0  0  0  0  0  0  0  0  0
    4.0947  142.7879   58.3523 H   0  0  0  0  0  0  0  0  0  0  0  0
    3.2853  143.1955   55.9667 C   0  0  0  0  0  0  0  0  0  0  0  0
    3.1878  141.8066   56.2842 C   0  0  0  0  0  0  0  0  0  0  0  0
    3.1024  140.6619   56.4700 N   0  0  0  0  0  0  0  0  0  0  0  0
  1  2  1  0
  2  3  2  0
  3  4  1  0
  4  5  1  0
  4  6  2  0
  6  7  1  0
  6  8  1  0
  8  9  1  0
  8 10  2  0
 10 11  1  0
 11 12  2  0
 12 13  1  0
 13 14  1  0
 14 15  1  0
 14 16  1  0
 16 17  2  0
 16 18  1  0
 18 19  1  0
 18 20  1  0
 18 21  1  0
 21 22  2  0
 22 23  1  0
 22 24  1  0
 24 25  1  0
 25 26  1  0
 26 27  1  0
 26 28  1  0
 26 29  1  0
 24 30  2  0
 30 31  1  0
 30 32  1  0
 32 33  1  0
 32 34  2  0
 34 35  1  0
 35 36  1  0
 36 37  1  0
 36 38  1  0
 36 39  1  0
 13 40  2  0
 40 41  1  0
 40 42  1  0
 42 43  1  0
 43 44  1  0
 43 45  1  0
 42 46  2  0
 46 47  1  0
 47 48  3  0
 10  2  1  0
 46 11  1  0
 34 21  1  0
M  END
>  <score>  (215) 
7.1283

$$$$

     RDKit          3D

 54 56  0  0  0  0  0  0  0  0999 V2000
    0.2851  149.1802   51.2469 H   0  0  0  0  0  0  0  0  0  0  0  0
    0.6303  149.5859   52.1903 C   0  0  0  0  0  0  0  0  0  0  0  0
   -0.1733  150.4849   52.9124 C   0  0  0  0  0  0  0  0  0  0  0  0
   -1.9063  150.9705   52.2567 Br  0  0  0  0  0  0  0  0  0  0  0  0
    0.3130  151.0457   54.1061 C   0  0  0  0  0  0  0  0  0  0  0  0
   -0.3903  151.9779   54.8163 O   0  0  0  0  0  0  0  0  0  0  0  0
   -1.4275  151.4069   55.6161 C   0  0  0  0  0  0  0  0  0  0  0  0
   -1.0124  150.6945   56.3288 H   0  0  0  0  0  0  0  0  0  0  0  0
   -2.1551  150.8850   54.9910 H   0  0  0  0  0  0  0  0  0  0  0  0
   -1.9450  152.1904   56.1773 H   0  0  0  0  0  0  0  0  0  0  0  0
    1.5702  150.6854   54.5735 C   0  0  0  0  0  0  0  0  0  0  0  0
    1.9449  151.1349   55.4900 H   0  0  0  0  0  0  0  0  0  0  0  0
    2.3568  149.7807   53.8629 C   0  0  0  0  0  0  0  0  0  0  0  0
    3.7104  149.4669   54.4106 C   0  0  0  0  0  0  0  0  0  0  0  0
    4.4396  149.4011   53.6007 H   0  0  0  0  0  0  0  0  0  0  0  0
    3.9672  150.2898   55.0537 H   0  0  0  0  0  0  0  0  0  0  0  0
    3.7469  148.2036   55.2500 C   0  0  0  0  0  0  0  0  0  0  0  0
    3.8263  148.2570   56.4610 O   0  0  0  0  0  0  0  0  0  0  0  0
    3.6996  147.0005   54.6317 N   0  0  0  0  0  0  0  0  0  0  0  0
    3.4602  146.9754   53.6554 H   0  0  0  0  0  0  0  0  0  0  0  0
    3.5612  145.8177   55.2447 C   0  0  0  0  0  0  0  0  0  0  0  0
    3.0743  144.9968   54.3510 N   0  0  0  0  0  0  0  0  0  0  0  0
    2.9319  143.7031   54.6575 C   0  0  0  0  0  0  0  0  0  0  0  0
    2.3016  142.7856   53.6046 C   0  0  0  0  0  0  0  0  0  0  0  0
    1.6531  143.3929   52.9618 H   0  0  0  0  0  0  0  0  0  0  0  0
    1.6798  142.0772   54.1395 H   0  0  0  0  0  0  0  0  0  0  0  0
    3.2448  142.0218   52.7389 N   0  0  0  0  0  0  0  0  0  0  0  0
    2.8348  140.7490   52.1387 C   0  0  0  0  0  0  0  0  0  0  0  0
    2.7271  139.9854   52.9153 H   0  0  0  0  0  0  0  0  0  0  0  0
    1.8978  140.8751   51.5696 H   0  0  0  0  0  0  0  0  0  0  0  0
    3.9961  140.4393   51.1738 C   0  0  0  0  0  0  0  0  0  0  0  0
    4.6143  139.6148   51.5469 H   0  0  0  0  0  0  0  0  0  0  0  0
    3.6591  140.2209   50.1569 H   0  0  0  0  0  0  0  0  0  0  0  0
    4.8255  141.6932   51.1062 C   0  0  0  0  0  0  0  0  0  0  0  0
    5.7222  141.5602   51.7213 H   0  0  0  0  0  0  0  0  0  0  0  0
    5.1447  141.9137   50.0903 H   0  0  0  0  0  0  0  0  0  0  0  0
    3.9133  142.7699   51.6812 C   0  0  0  0  0  0  0  0  0  0  0  0
    3.1762  143.1208   50.9407 H   0  0  0  0  0  0  0  0  0  0  0  0
    4.4607  143.6286   52.0574 H   0  0  0  0  0  0  0  0  0  0  0  0
    3.2822  143.2353   55.9273 C   0  0  0  0  0  0  0  0  0  0  0  0
    3.1595  141.8539   56.2513 C   0  0  0  0  0  0  0  0  0  0  0  0
    3.0663  140.7183   56.4904 N   0  0  0  0  0  0  0  0  0  0  0  0
    3.7701  144.1422   56.8465 C   0  0  0  0  0  0  0  0  0  0  0  0
    4.1530  143.7630   58.0895 N   0  0  0  0  0  0  0  0  0  0  0  0
    4.0999  142.7834   58.3563 H   0  0  0  0  0  0  0  0  0  0  0  0
    4.5148  144.4608   58.7375 H   0  0  0  0  0  0  0  0  0  0  0  0
    3.9085  145.4594   56.5177 C   0  0  0  0  0  0  0  0  0  0  0  0
    4.3187  146.1687   57.2148 H   0  0  0  0  0  0  0  0  0  0  0  0
    1.9049  149.2305   52.6574 C   0  0  0  0  0  0  0  0  0  0  0  0
    2.7586  148.4038   51.9674 O   0  0  0  0  0  0  0  0  0  0  0  0
    2.1493  147.3086   51.2780 C   0  0  0  0  0  0  0  0  0  0  0  0
    1.4573  146.7807   51.9390 H   0  0  0  0  0  0  0  0  0  0  0  0
    1.6056  147.6538   50.3956 H   0  0  0  0  0  0  0  0  0  0  0  0
    2.9176  146.6000   50.9547 H   0  0  0  0  0  0  0  0  0  0  0  0
  1  2  1  0
  2  3  2  0
  3  4  1  0
  3  5  1  0
  5  6  1  0
  6  7  1  0
  7  8  1  0
  7  9  1  0
  7 10  1  0
  5 11  2  0
 11 12  1  0
 11 13  1  0
 13 14  1  0
 14 15  1  0
 14 16  1  0
 14 17  1  0
 17 18  2  0
 17 19  1  0
 19 20  1  0
 19 21  1  0
 21 22  2  0
 22 23  1  0
 23 24  1  0
 24 25  1  0
 24 26  1  0
 24 27  1  0
 27 28  1  0
 28 29  1  0
 28 30  1  0
 28 31  1  0
 31 32  1  0
 31 33  1  0
 31 34  1  0
 34 35  1  0
 34 36  1  0
 34 37  1  0
 37 38  1  0
 37 39  1  0
 23 40  2  0
 40 41  1  0
 41 42  3  0
 40 43  1  0
 43 44  1  0
 44 45  1  0
 44 46  1  0
 43 47  2  0
 47 48  1  0
 13 49  2  0
 49 50  1  0
 50 51  1  0
 51 52  1  0
 51 53  1  0
 51 54  1  0
 49  2  1  0
 47 21  1  0
 37 27  1  0
M  END
>  <score>  (216) 
7.12898

$$$$

     RDKit          3D

 46 48  0  0  0  0  0  0  0  0999 V2000
    2.4640  140.2147   51.6345 H   0  0  0  0  0  0  0  0  0  0  0  0
    2.2207  141.1350   52.1296 C   0  0  0  0  0  0  0  0  0  0  0  0
    1.3715  142.0417   51.5694 C   0  0  0  0  0  0  0  0  0  0  0  0
    0.6972  141.8347   49.9829 Cl  0  0  0  0  0  0  0  0  0  0  0  0
    1.1673  143.4869   52.5354 S   0  0  0  0  0  0  0  0  0  0  0  0
    2.3697  142.8630   53.6613 C   0  0  0  0  0  0  0  0  0  0  0  0
    2.9237  143.7010   54.6995 C   0  0  0  0  0  0  0  0  0  0  0  0
    3.0634  144.9743   54.3630 N   0  0  0  0  0  0  0  0  0  0  0  0
    3.5610  145.8095   55.2318 C   0  0  0  0  0  0  0  0  0  0  0  0
    3.6944  146.9898   54.6077 N   0  0  0  0  0  0  0  0  0  0  0  0
    3.4477  146.9588   53.6275 H   0  0  0  0  0  0  0  0  0  0  0  0
    3.7454  148.1878   55.2391 C   0  0  0  0  0  0  0  0  0  0  0  0
    3.8191  148.2469   56.4544 O   0  0  0  0  0  0  0  0  0  0  0  0
    3.7053  149.4579   54.4167 C   0  0  0  0  0  0  0  0  0  0  0  0
    4.4252  149.3965   53.6032 H   0  0  0  0  0  0  0  0  0  0  0  0
    3.9838  150.2722   55.0637 H   0  0  0  0  0  0  0  0  0  0  0  0
    2.3503  149.7715   53.8700 C   0  0  0  0  0  0  0  0  0  0  0  0
    1.5716  150.6807   54.5828 C   0  0  0  0  0  0  0  0  0  0  0  0
    1.9575  151.1302   55.4977 H   0  0  0  0  0  0  0  0  0  0  0  0
    0.3138  151.0404   54.1097 C   0  0  0  0  0  0  0  0  0  0  0  0
   -0.3840  151.9741   54.8207 O   0  0  0  0  0  0  0  0  0  0  0  0
   -1.4217  151.4057   55.6179 C   0  0  0  0  0  0  0  0  0  0  0  0
   -1.0077  150.6916   56.3311 H   0  0  0  0  0  0  0  0  0  0  0  0
   -1.9376  152.1956   56.1720 H   0  0  0  0  0  0  0  0  0  0  0  0
   -2.1460  150.8850   54.9886 H   0  0  0  0  0  0  0  0  0  0  0  0
   -0.1730  150.4822   52.9101 C   0  0  0  0  0  0  0  0  0  0  0  0
   -1.9102  150.9805   52.2647 Br  0  0  0  0  0  0  0  0  0  0  0  0
    0.6270  149.5796   52.1836 C   0  0  0  0  0  0  0  0  0  0  0  0
    0.2872  149.1807   51.2319 H   0  0  0  0  0  0  0  0  0  0  0  0
    1.9014  149.2211   52.6586 C   0  0  0  0  0  0  0  0  0  0  0  0
    2.7604  148.4055   51.9604 O   0  0  0  0  0  0  0  0  0  0  0  0
    2.1515  147.3073   51.2777 C   0  0  0  0  0  0  0  0  0  0  0  0
    2.9208  146.5989   50.9564 H   0  0  0  0  0  0  0  0  0  0  0  0
    1.6061  147.6514   50.3947 H   0  0  0  0  0  0  0  0  0  0  0  0
    1.4610  146.7839   51.9456 H   0  0  0  0  0  0  0  0  0  0  0  0
    3.9134  145.4679   56.5083 C   0  0  0  0  0  0  0  0  0  0  0  0
    4.3096  146.1660   57.2301 H   0  0  0  0  0  0  0  0  0  0  0  0
    3.7821  144.1470   56.8265 C   0  0  0  0  0  0  0  0  0  0  0  0
    4.1629  143.7576   58.0551 N   0  0  0  0  0  0  0  0  0  0  0  0
    4.4978  144.4478   58.7181 H   0  0  0  0  0  0  0  0  0  0  0  0
    4.0810  142.7800   58.3114 H   0  0  0  0  0  0  0  0  0  0  0  0
    3.3054  143.2190   55.9335 C   0  0  0  0  0  0  0  0  0  0  0  0
    3.1861  141.8299   56.2435 C   0  0  0  0  0  0  0  0  0  0  0  0
    3.0742  140.6887   56.4435 N   0  0  0  0  0  0  0  0  0  0  0  0
    2.8074  141.5965   53.3612 C   0  0  0  0  0  0  0  0  0  0  0  0
    3.5757  141.0465   53.8995 H   0  0  0  0  0  0  0  0  0  0  0  0
  1  2  1  0
  2  3  2  0
  3  4  1  0
  3  5  1  0
  5  6  1  0
  6  7  1  0
  7  8  2  0
  8  9  1  0
  9 10  1  0
 10 11  1  0
 10 12  1  0
 12 13  2  0
 12 14  1  0
 14 15  1  0
 14 16  1  0
 14 17  1  0
 17 18  2  0
 18 19  1  0
 18 20  1  0
 20 21  1  0
 21 22  1  0
 22 23  1  0
 22 24  1  0
 22 25  1  0
 20 26  2  0
 26 27  1  0
 26 28  1  0
 28 29  1  0
 28 30  2  0
 30 31  1  0
 31 32  1  0
 32 33  1  0
 32 34  1  0
 32 35  1  0
  9 36  2  0
 36 37  1  0
 36 38  1  0
 38 39  1  0
 39 40  1  0
 39 41  1  0
 38 42  2  0
 42 43  1  0
 43 44  3  0
  6 45  2  0
 45 46  1  0
 45  2  1  0
 42  7  1  0
 30 17  1  0
M  END
>  <score>  (217) 
7.12928

$$$$

     RDKit          3D

 60 62  0  0  0  0  0  0  0  0999 V2000
    6.9622  137.6223   50.3138 H   0  0  0  0  0  0  0  0  0  0  0  0
    6.2590  138.3846   50.6332 C   0  0  0  0  0  0  0  0  0  0  0  0
    5.4677  138.1834   51.7652 C   0  0  0  0  0  0  0  0  0  0  0  0
    5.4780  137.2307   52.2872 H   0  0  0  0  0  0  0  0  0  0  0  0
    4.6098  139.1725   52.2263 C   0  0  0  0  0  0  0  0  0  0  0  0
    4.0498  139.0275   53.1497 H   0  0  0  0  0  0  0  0  0  0  0  0
    4.3752  140.2849   51.4125 C   0  0  0  0  0  0  0  0  0  0  0  0
    3.1647  141.1362   51.6095 C   0  0  0  0  0  0  0  0  0  0  0  0
    2.4479  140.5805   52.2264 H   0  0  0  0  0  0  0  0  0  0  0  0
    2.6883  141.3093   50.6392 H   0  0  0  0  0  0  0  0  0  0  0  0
    3.4894  142.4246   52.2371 N   0  0  0  0  0  0  0  0  0  0  0  0
    3.8871  143.5054   51.3027 C   0  0  0  0  0  0  0  0  0  0  0  0
    4.1409  144.4085   51.8702 H   0  0  0  0  0  0  0  0  0  0  0  0
    4.7585  143.2084   50.6977 H   0  0  0  0  0  0  0  0  0  0  0  0
    3.0558  143.7568   50.6278 H   0  0  0  0  0  0  0  0  0  0  0  0
    2.5067  142.7949   53.2857 C   0  0  0  0  0  0  0  0  0  0  0  0
    2.2154  141.8746   53.8005 H   0  0  0  0  0  0  0  0  0  0  0  0
    1.6104  143.1943   52.7982 H   0  0  0  0  0  0  0  0  0  0  0  0
    3.0008  143.7771   54.3511 C   0  0  0  0  0  0  0  0  0  0  0  0
    3.0785  145.0814   54.0391 N   0  0  0  0  0  0  0  0  0  0  0  0
    3.4686  145.9340   54.9593 C   0  0  0  0  0  0  0  0  0  0  0  0
    3.5162  147.1891   54.4750 N   0  0  0  0  0  0  0  0  0  0  0  0
    3.2511  147.2926   53.5063 H   0  0  0  0  0  0  0  0  0  0  0  0
    3.5710  148.2967   55.2612 C   0  0  0  0  0  0  0  0  0  0  0  0
    3.6937  148.2029   56.4689 O   0  0  0  0  0  0  0  0  0  0  0  0
    3.5143  149.6560   54.6031 C   0  0  0  0  0  0  0  0  0  0  0  0
    4.3304  149.7344   53.8851 H   0  0  0  0  0  0  0  0  0  0  0  0
    3.6612  150.4182   55.3675 H   0  0  0  0  0  0  0  0  0  0  0  0
    2.1913  149.8764   53.9208 C   0  0  0  0  0  0  0  0  0  0  0  0
    1.3335  150.8308   54.4760 C   0  0  0  0  0  0  0  0  0  0  0  0
    1.6387  151.3926   55.3536 H   0  0  0  0  0  0  0  0  0  0  0  0
    0.0772  151.0770   53.9223 C   0  0  0  0  0  0  0  0  0  0  0  0
   -0.7501  151.9777   54.5326 O   0  0  0  0  0  0  0  0  0  0  0  0
   -1.6700  151.3588   55.4393 C   0  0  0  0  0  0  0  0  0  0  0  0
   -2.4906  150.8914   54.8848 H   0  0  0  0  0  0  0  0  0  0  0  0
   -2.0857  152.1136   56.1143 H   0  0  0  0  0  0  0  0  0  0  0  0
   -1.1752  150.5951   56.0482 H   0  0  0  0  0  0  0  0  0  0  0  0
   -0.3075  150.4031   52.7553 C   0  0  0  0  0  0  0  0  0  0  0  0
   -1.9985  150.7445   51.9228 Br  0  0  0  0  0  0  0  0  0  0  0  0
    0.5580  149.4641   52.1883 C   0  0  0  0  0  0  0  0  0  0  0  0
    0.2648  148.9548   51.2785 H   0  0  0  0  0  0  0  0  0  0  0  0
    1.7963  149.1523   52.7756 C   0  0  0  0  0  0  0  0  0  0  0  0
    2.6130  148.1675   52.2582 O   0  0  0  0  0  0  0  0  0  0  0  0
    2.0089  147.3229   51.2638 C   0  0  0  0  0  0  0  0  0  0  0  0
    1.5630  147.9287   50.4683 H   0  0  0  0  0  0  0  0  0  0  0  0
    1.2248  146.7063   51.7180 H   0  0  0  0  0  0  0  0  0  0  0  0
    2.7547  146.6639   50.8098 H   0  0  0  0  0  0  0  0  0  0  0  0
    3.7798  145.5754   56.2381 C   0  0  0  0  0  0  0  0  0  0  0  0
    4.0835  146.2990   56.9706 H   0  0  0  0  0  0  0  0  0  0  0  0
    3.6663  144.2723   56.5770 C   0  0  0  0  0  0  0  0  0  0  0  0
    3.9619  143.9731   57.8620 N   0  0  0  0  0  0  0  0  0  0  0  0
    4.2117  143.0119   58.0701 H   0  0  0  0  0  0  0  0  0  0  0  0
    4.3955  144.7190   58.4023 H   0  0  0  0  0  0  0  0  0  0  0  0
    3.2833  143.3350   55.6506 C   0  0  0  0  0  0  0  0  0  0  0  0
    3.1569  141.9717   56.0353 C   0  0  0  0  0  0  0  0  0  0  0  0
    3.0349  140.8534   56.3403 N   0  0  0  0  0  0  0  0  0  0  0  0
    5.2239  140.5358   50.3321 C   0  0  0  0  0  0  0  0  0  0  0  0
    5.1493  141.4560   49.7697 H   0  0  0  0  0  0  0  0  0  0  0  0
    6.1621  139.5904   49.9443 C   0  0  0  0  0  0  0  0  0  0  0  0
    6.8199  139.7912   49.1066 H   0  0  0  0  0  0  0  0  0  0  0  0
  1  2  1  0
  2  3  2  0
  3  4  1  0
  3  5  1  0
  5  6  1  0
  5  7  2  0
  7  8  1  0
  8  9  1  0
  8 10  1  0
  8 11  1  0
 11 12  1  0
 12 13  1  0
 12 14  1  0
 12 15  1  0
 11 16  1  0
 16 17  1  0
 16 18  1  0
 16 19  1  0
 19 20  2  0
 20 21  1  0
 21 22  1  0
 22 23  1  0
 22 24  1  0
 24 25  2  0
 24 26  1  0
 26 27  1  0
 26 28  1  0
 26 29  1  0
 29 30  2  0
 30 31  1  0
 30 32  1  0
 32 33  1  0
 33 34  1  0
 34 35  1  0
 34 36  1  0
 34 37  1  0
 32 38  2  0
 38 39  1  0
 38 40  1  0
 40 41  1  0
 40 42  2  0
 42 43  1  0
 43 44  1  0
 44 45  1  0
 44 46  1  0
 44 47  1  0
 21 48  2  0
 48 49  1  0
 48 50  1  0
 50 51  1  0
 51 52  1  0
 51 53  1  0
 50 54  2  0
 54 55  1  0
 55 56  3  0
  7 57  1  0
 57 58  1  0
 57 59  2  0
 59 60  1  0
 59  2  1  0
 54 19  1  0
 42 29  1  0
M  END
>  <score>  (218) 
7.13023

$$$$

     RDKit          3D

 57 59  0  0  0  0  0  0  0  0999 V2000
    6.7174  138.2523   49.9061 H   0  0  0  0  0  0  0  0  0  0  0  0
    6.1440  139.0984   50.2808 C   0  0  0  0  0  0  0  0  0  0  0  0
    6.5242  139.7673   51.4453 C   0  0  0  0  0  0  0  0  0  0  0  0
    7.4498  139.4936   51.9273 H   0  0  0  0  0  0  0  0  0  0  0  0
    5.7866  140.8528   51.9186 C   0  0  0  0  0  0  0  0  0  0  0  0
    6.0728  141.3524   52.8312 H   0  0  0  0  0  0  0  0  0  0  0  0
    4.6520  141.2969   51.2404 C   0  0  0  0  0  0  0  0  0  0  0  0
    3.7984  142.4053   51.8113 C   0  0  0  0  0  0  0  0  0  0  0  0
    4.4249  143.2676   52.0585 H   0  0  0  0  0  0  0  0  0  0  0  0
    3.0365  142.7405   51.0917 H   0  0  0  0  0  0  0  0  0  0  0  0
    3.1294  141.8496   53.0632 C   0  0  0  0  0  0  0  0  0  0  0  0
    2.4797  141.0153   52.7698 H   0  0  0  0  0  0  0  0  0  0  0  0
    3.9064  141.4618   53.7358 H   0  0  0  0  0  0  0  0  0  0  0  0
    2.3393  142.9039   53.7084 N   0  0  0  0  0  0  0  0  0  0  0  0
    1.8885  143.5463   53.0627 H   0  0  0  0  0  0  0  0  0  0  0  0
    2.9276  143.6454   54.6762 C   0  0  0  0  0  0  0  0  0  0  0  0
    3.0171  144.8874   54.2720 N   0  0  0  0  0  0  0  0  0  0  0  0
    3.5142  145.7365   55.1332 C   0  0  0  0  0  0  0  0  0  0  0  0
    3.6207  146.9438   54.5466 N   0  0  0  0  0  0  0  0  0  0  0  0
    3.4118  146.9576   53.5611 H   0  0  0  0  0  0  0  0  0  0  0  0
    3.7064  148.1282   55.2144 C   0  0  0  0  0  0  0  0  0  0  0  0
    3.8090  148.1535   56.4279 O   0  0  0  0  0  0  0  0  0  0  0  0
    3.7041  149.4273   54.4230 C   0  0  0  0  0  0  0  0  0  0  0  0
    3.9705  150.2217   55.1055 H   0  0  0  0  0  0  0  0  0  0  0  0
    4.4379  149.3860   53.6127 H   0  0  0  0  0  0  0  0  0  0  0  0
    2.3562  149.7686   53.8662 C   0  0  0  0  0  0  0  0  0  0  0  0
    1.5656  150.6757   54.5743 C   0  0  0  0  0  0  0  0  0  0  0  0
    1.9340  151.1205   55.4936 H   0  0  0  0  0  0  0  0  0  0  0  0
    0.3102  151.0485   54.1029 C   0  0  0  0  0  0  0  0  0  0  0  0
   -0.3967  151.9820   54.8107 O   0  0  0  0  0  0  0  0  0  0  0  0
   -1.4310  151.4054   55.6079 C   0  0  0  0  0  0  0  0  0  0  0  0
   -2.1598  150.8878   54.9780 H   0  0  0  0  0  0  0  0  0  0  0  0
   -1.9435  152.1907   56.1710 H   0  0  0  0  0  0  0  0  0  0  0  0
   -1.0099  150.6905   56.3171 H   0  0  0  0  0  0  0  0  0  0  0  0
   -0.1770  150.4819   52.9107 C   0  0  0  0  0  0  0  0  0  0  0  0
   -1.9107  150.9642   52.2489 Br  0  0  0  0  0  0  0  0  0  0  0  0
    0.6263  149.5808   52.1876 C   0  0  0  0  0  0  0  0  0  0  0  0
    0.2766  149.1739   51.2440 H   0  0  0  0  0  0  0  0  0  0  0  0
    1.9032  149.2244   52.6556 C   0  0  0  0  0  0  0  0  0  0  0  0
    2.7525  148.3926   51.9653 O   0  0  0  0  0  0  0  0  0  0  0  0
    2.1393  147.3043   51.2724 C   0  0  0  0  0  0  0  0  0  0  0  0
    2.9117  146.5998   50.9468 H   0  0  0  0  0  0  0  0  0  0  0  0
    1.5979  147.6616   50.3919 H   0  0  0  0  0  0  0  0  0  0  0  0
    1.4468  146.7764   51.9355 H   0  0  0  0  0  0  0  0  0  0  0  0
    3.8881  145.4167   56.4178 C   0  0  0  0  0  0  0  0  0  0  0  0
    4.2631  146.1572   57.1113 H   0  0  0  0  0  0  0  0  0  0  0  0
    3.7830  144.1034   56.7838 C   0  0  0  0  0  0  0  0  0  0  0  0
    4.1563  143.7512   58.0325 N   0  0  0  0  0  0  0  0  0  0  0  0
    4.4779  144.4707   58.6766 H   0  0  0  0  0  0  0  0  0  0  0  0
    4.0880  142.7792   58.3238 H   0  0  0  0  0  0  0  0  0  0  0  0
    3.3123  143.1708   55.9016 C   0  0  0  0  0  0  0  0  0  0  0  0
    3.1841  141.7851   56.2166 C   0  0  0  0  0  0  0  0  0  0  0  0
    3.0787  140.6491   56.4309 N   0  0  0  0  0  0  0  0  0  0  0  0
    4.2801  140.6337   50.0599 C   0  0  0  0  0  0  0  0  0  0  0  0
    3.3896  140.9463   49.5221 H   0  0  0  0  0  0  0  0  0  0  0  0
    5.0297  139.5465   49.5737 C   0  0  0  0  0  0  0  0  0  0  0  0
    4.7340  139.0527   48.6489 H   0  0  0  0  0  0  0  0  0  0  0  0
  1  2  1  0
  2  3  2  0
  3  4  1  0
  3  5  1  0
  5  6  1  0
  5  7  2  0
  7  8  1  0
  8  9  1  0
  8 10  1  0
  8 11  1  0
 11 12  1  0
 11 13  1  0
 11 14  1  0
 14 15  1  0
 14 16  1  0
 16 17  2  0
 17 18  1  0
 18 19  1  0
 19 20  1  0
 19 21  1  0
 21 22  2  0
 21 23  1  0
 23 24  1  0
 23 25  1  0
 23 26  1  0
 26 27  2  0
 27 28  1  0
 27 29  1  0
 29 30  1  0
 30 31  1  0
 31 32  1  0
 31 33  1  0
 31 34  1  0
 29 35  2  0
 35 36  1  0
 35 37  1  0
 37 38  1  0
 37 39  2  0
 39 40  1  0
 40 41  1  0
 41 42  1  0
 41 43  1  0
 41 44  1  0
 18 45  2  0
 45 46  1  0
 45 47  1  0
 47 48  1  0
 48 49  1  0
 48 50  1  0
 47 51  2  0
 51 52  1  0
 52 53  3  0
  7 54  1  0
 54 55  1  0
 54 56  2  0
 56 57  1  0
 56  2  1  0
 51 16  1  0
 39 26  1  0
M  END
>  <score>  (219) 
7.13247

$$$$

     RDKit          3D

 49 51  0  0  0  0  0  0  0  0999 V2000
   -0.1776  142.9242   51.3543 H   0  0  0  0  0  0  0  0  0  0  0  0
    0.7169  142.5936   51.8670 C   0  0  0  0  0  0  0  0  0  0  0  0
    1.0789  143.1710   53.0772 C   0  0  0  0  0  0  0  0  0  0  0  0
    0.4526  143.9497   53.4875 H   0  0  0  0  0  0  0  0  0  0  0  0
    2.2618  142.8057   53.7274 C   0  0  0  0  0  0  0  0  0  0  0  0
    2.8340  143.6782   54.7503 C   0  0  0  0  0  0  0  0  0  0  0  0
    2.9942  144.9474   54.3731 N   0  0  0  0  0  0  0  0  0  0  0  0
    3.5372  145.7937   55.2083 C   0  0  0  0  0  0  0  0  0  0  0  0
    3.6883  146.9824   54.5931 N   0  0  0  0  0  0  0  0  0  0  0  0
    3.4205  146.9754   53.6206 H   0  0  0  0  0  0  0  0  0  0  0  0
    3.7238  148.1725   55.2449 C   0  0  0  0  0  0  0  0  0  0  0  0
    3.8092  148.1972   56.4612 O   0  0  0  0  0  0  0  0  0  0  0  0
    3.6915  149.4653   54.4441 C   0  0  0  0  0  0  0  0  0  0  0  0
    4.4402  149.4325   53.6501 H   0  0  0  0  0  0  0  0  0  0  0  0
    3.9326  150.2710   55.1227 H   0  0  0  0  0  0  0  0  0  0  0  0
    2.3447  149.7800   53.8651 C   0  0  0  0  0  0  0  0  0  0  0  0
    1.5424  150.6839   54.5654 C   0  0  0  0  0  0  0  0  0  0  0  0
    1.8985  151.1230   55.4922 H   0  0  0  0  0  0  0  0  0  0  0  0
    0.2898  151.0530   54.0862 C   0  0  0  0  0  0  0  0  0  0  0  0
   -0.4206  151.9889   54.7859 O   0  0  0  0  0  0  0  0  0  0  0  0
   -1.4449  151.4050   55.5892 C   0  0  0  0  0  0  0  0  0  0  0  0
   -1.0118  150.6841   56.2868 H   0  0  0  0  0  0  0  0  0  0  0  0
   -1.9523  152.1854   56.1642 H   0  0  0  0  0  0  0  0  0  0  0  0
   -2.1799  150.8905   54.9623 H   0  0  0  0  0  0  0  0  0  0  0  0
   -0.1879  150.4799   52.8959 C   0  0  0  0  0  0  0  0  0  0  0  0
   -1.9228  150.9434   52.2305 Br  0  0  0  0  0  0  0  0  0  0  0  0
    0.6190  149.5724   52.1881 C   0  0  0  0  0  0  0  0  0  0  0  0
    0.2622  149.1539   51.2549 H   0  0  0  0  0  0  0  0  0  0  0  0
    1.8989  149.2232   52.6563 C   0  0  0  0  0  0  0  0  0  0  0  0
    2.7464  148.3830   51.9732 O   0  0  0  0  0  0  0  0  0  0  0  0
    2.1230  147.3063   51.2685 C   0  0  0  0  0  0  0  0  0  0  0  0
    1.5807  147.6775   50.3931 H   0  0  0  0  0  0  0  0  0  0  0  0
    1.4274  146.7690   51.9235 H   0  0  0  0  0  0  0  0  0  0  0  0
    2.8939  146.6053   50.9331 H   0  0  0  0  0  0  0  0  0  0  0  0
    3.9169  145.4673   56.4846 C   0  0  0  0  0  0  0  0  0  0  0  0
    4.3438  146.1917   57.1583 H   0  0  0  0  0  0  0  0  0  0  0  0
    3.7938  144.1528   56.8502 C   0  0  0  0  0  0  0  0  0  0  0  0
    4.2148  143.7799   58.0817 N   0  0  0  0  0  0  0  0  0  0  0  0
    4.4909  144.4947   58.7478 H   0  0  0  0  0  0  0  0  0  0  0  0
    4.1083  142.8120   58.3800 H   0  0  0  0  0  0  0  0  0  0  0  0
    3.2780  143.2231   55.9777 C   0  0  0  0  0  0  0  0  0  0  0  0
    3.1883  141.8328   56.2905 C   0  0  0  0  0  0  0  0  0  0  0  0
    3.1194  140.6881   56.4727 N   0  0  0  0  0  0  0  0  0  0  0  0
    3.0049  141.7355   53.2263 C   0  0  0  0  0  0  0  0  0  0  0  0
    3.8795  141.3732   53.7642 H   0  0  0  0  0  0  0  0  0  0  0  0
    2.6780  141.1887   51.9793 C   0  0  0  0  0  0  0  0  0  0  0  0
    3.3268  140.4360   51.5516 H   0  0  0  0  0  0  0  0  0  0  0  0
    1.5441  141.6368   51.2819 C   0  0  0  0  0  0  0  0  0  0  0  0
    1.1575  141.0785   49.6767 Cl  0  0  0  0  0  0  0  0  0  0  0  0
  1  2  1  0
  2  3  2  0
  3  4  1  0
  3  5  1  0
  5  6  1  0
  6  7  2  0
  7  8  1  0
  8  9  1  0
  9 10  1  0
  9 11  1  0
 11 12  2  0
 11 13  1  0
 13 14  1  0
 13 15  1  0
 13 16  1  0
 16 17  2  0
 17 18  1  0
 17 19  1  0
 19 20  1  0
 20 21  1  0
 21 22  1  0
 21 23  1  0
 21 24  1  0
 19 25  2  0
 25 26  1  0
 25 27  1  0
 27 28  1  0
 27 29  2  0
 29 30  1  0
 30 31  1  0
 31 32  1  0
 31 33  1  0
 31 34  1  0
  8 35  2  0
 35 36  1  0
 35 37  1  0
 37 38  1  0
 38 39  1  0
 38 40  1  0
 37 41  2  0
 41 42  1  0
 42 43  3  0
  5 44  2  0
 44 45  1  0
 44 46  1  0
 46 47  1  0
 46 48  2  0
 48 49  1  0
 48  2  1  0
 41  6  1  0
 29 16  1  0
M  END
>  <score>  (220) 
7.13707

$$$$

     RDKit          3D

 57 59  0  0  0  0  0  0  0  0999 V2000
    0.3022  149.1987   51.2476 H   0  0  0  0  0  0  0  0  0  0  0  0
    0.6555  149.6016   52.1928 C   0  0  0  0  0  0  0  0  0  0  0  0
   -0.1457  150.4975   52.9306 C   0  0  0  0  0  0  0  0  0  0  0  0
   -1.8765  150.9852   52.2756 Br  0  0  0  0  0  0  0  0  0  0  0  0
    0.3293  151.0565   54.1300 C   0  0  0  0  0  0  0  0  0  0  0  0
   -0.3799  151.9746   54.8569 O   0  0  0  0  0  0  0  0  0  0  0  0
   -1.4258  151.4044   55.6452 C   0  0  0  0  0  0  0  0  0  0  0  0
   -2.1506  150.8766   55.0200 H   0  0  0  0  0  0  0  0  0  0  0  0
   -1.0135  150.7024   56.3692 H   0  0  0  0  0  0  0  0  0  0  0  0
   -1.9412  152.1999   56.1892 H   0  0  0  0  0  0  0  0  0  0  0  0
    1.5933  150.6912   54.5751 C   0  0  0  0  0  0  0  0  0  0  0  0
    1.9877  151.1434   55.4742 H   0  0  0  0  0  0  0  0  0  0  0  0
    2.3794  149.7903   53.8582 C   0  0  0  0  0  0  0  0  0  0  0  0
    3.7235  149.4762   54.4015 C   0  0  0  0  0  0  0  0  0  0  0  0
    4.4138  149.3676   53.5670 H   0  0  0  0  0  0  0  0  0  0  0  0
    3.9903  150.3498   54.9753 H   0  0  0  0  0  0  0  0  0  0  0  0
    3.7575  148.2184   55.2716 C   0  0  0  0  0  0  0  0  0  0  0  0
    3.8533  148.2859   56.4881 O   0  0  0  0  0  0  0  0  0  0  0  0
    3.7314  147.0036   54.6611 N   0  0  0  0  0  0  0  0  0  0  0  0
    3.5113  146.9517   53.6793 H   0  0  0  0  0  0  0  0  0  0  0  0
    3.5629  145.8158   55.2671 C   0  0  0  0  0  0  0  0  0  0  0  0
    3.0606  144.9919   54.3780 N   0  0  0  0  0  0  0  0  0  0  0  0
    2.8993  143.6909   54.6594 C   0  0  0  0  0  0  0  0  0  0  0  0
    2.2983  142.7485   53.5947 C   0  0  0  0  0  0  0  0  0  0  0  0
    2.8152  141.7823   53.6648 H   0  0  0  0  0  0  0  0  0  0  0  0
    1.2559  142.5749   53.8552 H   0  0  0  0  0  0  0  0  0  0  0  0
    2.3214  143.2379   52.1836 N   0  0  0  0  0  0  0  0  0  0  0  0
    1.2468  142.7935   51.2828 C   0  0  0  0  0  0  0  0  0  0  0  0
    1.1833  143.4691   50.4253 H   0  0  0  0  0  0  0  0  0  0  0  0
    0.2845  142.8276   51.8021 H   0  0  0  0  0  0  0  0  0  0  0  0
    1.5702  141.3797   50.8019 C   0  0  0  0  0  0  0  0  0  0  0  0
    1.5796  140.7160   51.6713 H   0  0  0  0  0  0  0  0  0  0  0  0
    0.7910  141.0331   50.1195 H   0  0  0  0  0  0  0  0  0  0  0  0
    2.9472  141.3908   50.0960 C   0  0  0  0  0  0  0  0  0  0  0  0
    2.8904  142.0604   49.2333 H   0  0  0  0  0  0  0  0  0  0  0  0
    3.2523  140.4117   49.7213 H   0  0  0  0  0  0  0  0  0  0  0  0
    4.0299  141.8906   51.0552 C   0  0  0  0  0  0  0  0  0  0  0  0
    4.1204  141.2107   51.9080 H   0  0  0  0  0  0  0  0  0  0  0  0
    4.9991  141.9233   50.5449 H   0  0  0  0  0  0  0  0  0  0  0  0
    3.6572  143.2791   51.5652 C   0  0  0  0  0  0  0  0  0  0  0  0
    4.3791  143.6085   52.3107 H   0  0  0  0  0  0  0  0  0  0  0  0
    3.6734  143.9892   50.7327 H   0  0  0  0  0  0  0  0  0  0  0  0
    3.2665  143.2144   55.9160 C   0  0  0  0  0  0  0  0  0  0  0  0
    3.1453  141.8280   56.2416 C   0  0  0  0  0  0  0  0  0  0  0  0
    3.0396  140.6910   56.4580 N   0  0  0  0  0  0  0  0  0  0  0  0
    3.7620  144.1225   56.8261 C   0  0  0  0  0  0  0  0  0  0  0  0
    4.1611  143.7235   58.0487 N   0  0  0  0  0  0  0  0  0  0  0  0
    4.5069  144.4212   58.6977 H   0  0  0  0  0  0  0  0  0  0  0  0
    4.0701  142.7491   58.3168 H   0  0  0  0  0  0  0  0  0  0  0  0
    3.9140  145.4482   56.5322 C   0  0  0  0  0  0  0  0  0  0  0  0
    4.3318  146.1362   57.2564 H   0  0  0  0  0  0  0  0  0  0  0  0
    1.9328  149.2379   52.6520 C   0  0  0  0  0  0  0  0  0  0  0  0
    2.7735  148.4043   51.9496 O   0  0  0  0  0  0  0  0  0  0  0  0
    2.1642  147.2965   51.2821 C   0  0  0  0  0  0  0  0  0  0  0  0
    2.9473  146.5980   50.9694 H   0  0  0  0  0  0  0  0  0  0  0  0
    1.6187  147.6363   50.3975 H   0  0  0  0  0  0  0  0  0  0  0  0
    1.4769  146.7684   51.9516 H   0  0  0  0  0  0  0  0  0  0  0  0
  1  2  1  0
  2  3  2  0
  3  4  1  0
  3  5  1  0
  5  6  1  0
  6  7  1  0
  7  8  1  0
  7  9  1  0
  7 10  1  0
  5 11  2  0
 11 12  1  0
 11 13  1  0
 13 14  1  0
 14 15  1  0
 14 16  1  0
 14 17  1  0
 17 18  2  0
 17 19  1  0
 19 20  1  0
 19 21  1  0
 21 22  2  0
 22 23  1  0
 23 24  1  0
 24 25  1  0
 24 26  1  0
 24 27  1  0
 27 28  1  0
 28 29  1  0
 28 30  1  0
 28 31  1  0
 31 32  1  0
 31 33  1  0
 31 34  1  0
 34 35  1  0
 34 36  1  0
 34 37  1  0
 37 38  1  0
 37 39  1  0
 37 40  1  0
 40 41  1  0
 40 42  1  0
 23 43  2  0
 43 44  1  0
 44 45  3  0
 43 46  1  0
 46 47  1  0
 47 48  1  0
 47 49  1  0
 46 50  2  0
 50 51  1  0
 13 52  2  0
 52 53  1  0
 53 54  1  0
 54 55  1  0
 54 56  1  0
 54 57  1  0
 52  2  1  0
 50 21  1  0
 40 27  1  0
M  END
>  <score>  (221) 
7.13717

$$$$

     RDKit          3D

 46 48  0  0  0  0  0  0  0  0999 V2000
    0.1510  142.3413   51.0735 H   0  0  0  0  0  0  0  0  0  0  0  0
    0.9523  142.2481   51.7952 C   0  0  0  0  0  0  0  0  0  0  0  0
    2.0149  140.8631   51.8726 S   0  0  0  0  0  0  0  0  0  0  0  0
    2.8691  141.5733   53.2358 C   0  0  0  0  0  0  0  0  0  0  0  0
    3.7176  141.0756   53.6992 H   0  0  0  0  0  0  0  0  0  0  0  0
    2.3758  142.8141   53.5918 C   0  0  0  0  0  0  0  0  0  0  0  0
    2.9157  143.6839   54.6541 C   0  0  0  0  0  0  0  0  0  0  0  0
    3.0417  144.9770   54.3539 N   0  0  0  0  0  0  0  0  0  0  0  0
    3.5393  145.8033   55.2486 C   0  0  0  0  0  0  0  0  0  0  0  0
    3.7115  146.9986   54.6551 N   0  0  0  0  0  0  0  0  0  0  0  0
    3.5205  146.9577   53.6676 H   0  0  0  0  0  0  0  0  0  0  0  0
    3.7536  148.2162   55.2705 C   0  0  0  0  0  0  0  0  0  0  0  0
    3.8512  148.2757   56.4851 O   0  0  0  0  0  0  0  0  0  0  0  0
    3.7280  149.4771   54.3981 C   0  0  0  0  0  0  0  0  0  0  0  0
    4.4171  149.3594   53.5595 H   0  0  0  0  0  0  0  0  0  0  0  0
    3.9957  150.3533   54.9713 H   0  0  0  0  0  0  0  0  0  0  0  0
    2.3816  149.7885   53.8573 C   0  0  0  0  0  0  0  0  0  0  0  0
    1.5972  150.6921   54.5733 C   0  0  0  0  0  0  0  0  0  0  0  0
    1.9900  151.1464   55.4735 H   0  0  0  0  0  0  0  0  0  0  0  0
    0.3332  151.0589   54.1319 C   0  0  0  0  0  0  0  0  0  0  0  0
   -0.3791  151.9755   54.8603 O   0  0  0  0  0  0  0  0  0  0  0  0
   -1.4269  151.4044   55.6484 C   0  0  0  0  0  0  0  0  0  0  0  0
   -2.1527  150.8755   55.0234 H   0  0  0  0  0  0  0  0  0  0  0  0
   -1.9432  152.2007   56.1926 H   0  0  0  0  0  0  0  0  0  0  0  0
   -1.0147  150.7035   56.3746 H   0  0  0  0  0  0  0  0  0  0  0  0
   -0.1437  150.5001   52.9347 C   0  0  0  0  0  0  0  0  0  0  0  0
   -1.8703  150.9838   52.2758 Br  0  0  0  0  0  0  0  0  0  0  0  0
    0.6595  149.6062   52.1961 C   0  0  0  0  0  0  0  0  0  0  0  0
    0.3067  149.2016   51.2526 H   0  0  0  0  0  0  0  0  0  0  0  0
    1.9356  149.2398   52.6503 C   0  0  0  0  0  0  0  0  0  0  0  0
    2.7754  148.4027   51.9511 O   0  0  0  0  0  0  0  0  0  0  0  0
    2.1653  147.2964   51.2817 C   0  0  0  0  0  0  0  0  0  0  0  0
    1.6237  147.6361   50.3947 H   0  0  0  0  0  0  0  0  0  0  0  0
    1.4747  146.7696   51.9490 H   0  0  0  0  0  0  0  0  0  0  0  0
    2.9493  146.5971   50.9727 H   0  0  0  0  0  0  0  0  0  0  0  0
    3.9016  145.4382   56.5162 C   0  0  0  0  0  0  0  0  0  0  0  0
    4.3204  146.1344   57.2344 H   0  0  0  0  0  0  0  0  0  0  0  0
    3.7664  144.1128   56.8123 C   0  0  0  0  0  0  0  0  0  0  0  0
    4.1547  143.7222   58.0395 N   0  0  0  0  0  0  0  0  0  0  0  0
    4.5039  144.4248   58.6860 H   0  0  0  0  0  0  0  0  0  0  0  0
    4.0663  142.7451   58.3059 H   0  0  0  0  0  0  0  0  0  0  0  0
    3.2921  143.2016   55.8993 C   0  0  0  0  0  0  0  0  0  0  0  0
    3.1617  141.8227   56.2300 C   0  0  0  0  0  0  0  0  0  0  0  0
    3.0386  140.6867   56.4486 N   0  0  0  0  0  0  0  0  0  0  0  0
    1.2503  143.1920   52.7376 C   0  0  0  0  0  0  0  0  0  0  0  0
    0.6923  144.1170   52.8310 H   0  0  0  0  0  0  0  0  0  0  0  0
  1  2  1  0
  2  3  1  0
  3  4  1  0
  4  5  1  0
  4  6  2  0
  6  7  1  0
  7  8  2  0
  8  9  1  0
  9 10  1  0
 10 11  1  0
 10 12  1  0
 12 13  2  0
 12 14  1  0
 14 15  1  0
 14 16  1  0
 14 17  1  0
 17 18  2  0
 18 19  1  0
 18 20  1  0
 20 21  1  0
 21 22  1  0
 22 23  1  0
 22 24  1  0
 22 25  1  0
 20 26  2  0
 26 27  1  0
 26 28  1  0
 28 29  1  0
 28 30  2  0
 30 31  1  0
 31 32  1  0
 32 33  1  0
 32 34  1  0
 32 35  1  0
  9 36  2  0
 36 37  1  0
 36 38  1  0
 38 39  1  0
 39 40  1  0
 39 41  1  0
 38 42  2  0
 42 43  1  0
 43 44  3  0
  6 45  1  0
 45 46  1  0
 45  2  2  0
 42  7  1  0
 30 17  1  0
M  END
>  <score>  (222) 
7.14077

$$$$

     RDKit          3D

 54 57  0  0  0  0  0  0  0  0999 V2000
    5.4915  145.0138   50.9321 H   0  0  0  0  0  0  0  0  0  0  0  0
    4.7199  144.2573   50.7920 C   0  0  0  0  0  0  0  0  0  0  0  0
    4.0449  144.0829   51.8972 N   0  0  0  0  0  0  0  0  0  0  0  0
    3.0279  143.2312   51.8686 C   0  0  0  0  0  0  0  0  0  0  0  0
    2.3809  143.0755   53.0631 C   0  0  0  0  0  0  0  0  0  0  0  0
    2.8592  143.8526   54.1922 C   0  0  0  0  0  0  0  0  0  0  0  0
    3.0747  145.1347   53.9099 N   0  0  0  0  0  0  0  0  0  0  0  0
    3.5972  145.8943   54.8363 C   0  0  0  0  0  0  0  0  0  0  0  0
    3.8397  147.1246   54.3462 N   0  0  0  0  0  0  0  0  0  0  0  0
    3.6951  147.2272   53.3514 H   0  0  0  0  0  0  0  0  0  0  0  0
    3.7274  148.2311   55.1361 C   0  0  0  0  0  0  0  0  0  0  0  0
    3.6817  148.1103   56.3458 O   0  0  0  0  0  0  0  0  0  0  0  0
    3.6131  149.6181   54.5343 C   0  0  0  0  0  0  0  0  0  0  0  0
    3.7479  150.3407   55.3365 H   0  0  0  0  0  0  0  0  0  0  0  0
    4.4029  149.7836   53.8058 H   0  0  0  0  0  0  0  0  0  0  0  0
    2.2756  149.8599   53.8968 C   0  0  0  0  0  0  0  0  0  0  0  0
    1.4298  150.7969   54.5001 C   0  0  0  0  0  0  0  0  0  0  0  0
    1.7490  151.3294   55.3895 H   0  0  0  0  0  0  0  0  0  0  0  0
    0.1629  151.0652   53.9867 C   0  0  0  0  0  0  0  0  0  0  0  0
   -0.6315  151.9749   54.6345 O   0  0  0  0  0  0  0  0  0  0  0  0
   -1.5956  151.3783   55.5096 C   0  0  0  0  0  0  0  0  0  0  0  0
   -1.1218  150.6302   56.1503 H   0  0  0  0  0  0  0  0  0  0  0  0
   -2.0485  152.1487   56.1452 H   0  0  0  0  0  0  0  0  0  0  0  0
   -2.3880  150.8917   54.9339 H   0  0  0  0  0  0  0  0  0  0  0  0
   -0.2480  150.4189   52.8110 C   0  0  0  0  0  0  0  0  0  0  0  0
   -1.9549  150.8125   52.0360 Br  0  0  0  0  0  0  0  0  0  0  0  0
    0.6091  149.4976   52.1907 C   0  0  0  0  0  0  0  0  0  0  0  0
    0.3151  149.0125   51.2680 H   0  0  0  0  0  0  0  0  0  0  0  0
    1.8643  149.1819   52.7334 C   0  0  0  0  0  0  0  0  0  0  0  0
    2.6875  148.2397   52.1537 O   0  0  0  0  0  0  0  0  0  0  0  0
    2.0432  147.3033   51.2716 C   0  0  0  0  0  0  0  0  0  0  0  0
    2.7757  146.6117   50.8458 H   0  0  0  0  0  0  0  0  0  0  0  0
    1.2941  146.7147   51.8113 H   0  0  0  0  0  0  0  0  0  0  0  0
    1.5482  147.8277   50.4494 H   0  0  0  0  0  0  0  0  0  0  0  0
    3.8502  145.4663   56.1141 C   0  0  0  0  0  0  0  0  0  0  0  0
    4.2340  146.1199   56.8828 H   0  0  0  0  0  0  0  0  0  0  0  0
    3.6153  144.1595   56.3940 C   0  0  0  0  0  0  0  0  0  0  0  0
    3.8432  143.7883   57.6678 N   0  0  0  0  0  0  0  0  0  0  0  0
    4.0011  142.8048   57.8607 H   0  0  0  0  0  0  0  0  0  0  0  0
    4.2506  144.5007   58.2714 H   0  0  0  0  0  0  0  0  0  0  0  0
    3.1673  143.2943   55.4257 C   0  0  0  0  0  0  0  0  0  0  0  0
    3.0914  141.8900   55.6587 C   0  0  0  0  0  0  0  0  0  0  0  0
    3.0791  140.7410   55.8425 N   0  0  0  0  0  0  0  0  0  0  0  0
    1.2882  142.2417   53.1200 C   0  0  0  0  0  0  0  0  0  0  0  0
    0.8615  142.1250   54.0862 H   0  0  0  0  0  0  0  0  0  0  0  0
    0.8083  141.5579   51.9969 C   0  0  0  0  0  0  0  0  0  0  0  0
   -0.0800  140.9372   52.0650 H   0  0  0  0  0  0  0  0  0  0  0  0
    1.4994  141.6645   50.7881 C   0  0  0  0  0  0  0  0  0  0  0  0
    1.1830  141.1236   49.8993 H   0  0  0  0  0  0  0  0  0  0  0  0
    2.6283  142.4924   50.7254 C   0  0  0  0  0  0  0  0  0  0  0  0
    3.3675  142.6320   49.5527 C   0  0  0  0  0  0  0  0  0  0  0  0
    3.1099  142.1139   48.6234 H   0  0  0  0  0  0  0  0  0  0  0  0
    4.4309  143.5346   49.6063 C   0  0  0  0  0  0  0  0  0  0  0  0
    5.0367  143.6594   48.7215 H   0  0  0  0  0  0  0  0  0  0  0  0
  1  2  1  0
  2  3  2  0
  3  4  1  0
  4  5  2  0
  5  6  1  0
  6  7  2  0
  7  8  1  0
  8  9  1  0
  9 10  1  0
  9 11  1  0
 11 12  2  0
 11 13  1  0
 13 14  1  0
 13 15  1  0
 13 16  1  0
 16 17  2  0
 17 18  1  0
 17 19  1  0
 19 20  1  0
 20 21  1  0
 21 22  1  0
 21 23  1  0
 21 24  1  0
 19 25  2  0
 25 26  1  0
 25 27  1  0
 27 28  1  0
 27 29  2  0
 29 30  1  0
 30 31  1  0
 31 32  1  0
 31 33  1  0
 31 34  1  0
  8 35  2  0
 35 36  1  0
 35 37  1  0
 37 38  1  0
 38 39  1  0
 38 40  1  0
 37 41  2  0
 41 42  1  0
 42 43  3  0
  5 44  1  0
 44 45  1  0
 44 46  2  0
 46 47  1  0
 46 48  1  0
 48 49  1  0
 48 50  2  0
 50 51  1  0
 51 52  1  0
 51 53  2  0
 53 54  1  0
 53  2  1  0
 50  4  1  0
 41  6  1  0
 29 16  1  0
M  END
>  <score>  (223) 
7.14197

$$$$

     RDKit          3D

 48 50  0  0  0  0  0  0  0  0999 V2000
    3.8822  141.0355   53.9477 H   0  0  0  0  0  0  0  0  0  0  0  0
    3.0619  141.5070   53.4029 C   0  0  0  0  0  0  0  0  0  0  0  0
    2.2663  140.8143   52.0194 S   0  0  0  0  0  0  0  0  0  0  0  0
    1.2556  142.2366   51.9627 C   0  0  0  0  0  0  0  0  0  0  0  0
    0.1204  142.4708   51.0871 C   0  0  0  0  0  0  0  0  0  0  0  0
   -0.7715  142.0854   51.5821 H   0  0  0  0  0  0  0  0  0  0  0  0
    0.2736  141.9684   50.1248 H   0  0  0  0  0  0  0  0  0  0  0  0
   -0.0195  143.5545   50.9487 H   0  0  0  0  0  0  0  0  0  0  0  0
    1.4843  143.1507   52.8405 N   0  0  0  0  0  0  0  0  0  0  0  0
    2.5357  142.7623   53.6500 C   0  0  0  0  0  0  0  0  0  0  0  0
    3.0042  143.6957   54.6921 C   0  0  0  0  0  0  0  0  0  0  0  0
    3.1387  144.9929   54.3812 N   0  0  0  0  0  0  0  0  0  0  0  0
    3.6040  145.8279   55.2711 C   0  0  0  0  0  0  0  0  0  0  0  0
    3.7406  146.9993   54.6377 N   0  0  0  0  0  0  0  0  0  0  0  0
    3.4569  146.9520   53.6714 H   0  0  0  0  0  0  0  0  0  0  0  0
    3.7578  148.2091   55.2549 C   0  0  0  0  0  0  0  0  0  0  0  0
    3.8334  148.2704   56.4667 O   0  0  0  0  0  0  0  0  0  0  0  0
    3.7035  149.4727   54.4131 C   0  0  0  0  0  0  0  0  0  0  0  0
    4.4184  149.4070   53.5949 H   0  0  0  0  0  0  0  0  0  0  0  0
    3.9662  150.3098   55.0413 H   0  0  0  0  0  0  0  0  0  0  0  0
    2.3489  149.7736   53.8672 C   0  0  0  0  0  0  0  0  0  0  0  0
    1.5703  150.6854   54.5763 C   0  0  0  0  0  0  0  0  0  0  0  0
    1.9547  151.1406   55.4885 H   0  0  0  0  0  0  0  0  0  0  0  0
    0.3125  151.0420   54.1086 C   0  0  0  0  0  0  0  0  0  0  0  0
   -0.3838  151.9752   54.8215 O   0  0  0  0  0  0  0  0  0  0  0  0
   -1.4224  151.4050   55.6183 C   0  0  0  0  0  0  0  0  0  0  0  0
   -2.1485  150.8827   54.9894 H   0  0  0  0  0  0  0  0  0  0  0  0
   -1.9370  152.1965   56.1724 H   0  0  0  0  0  0  0  0  0  0  0  0
   -1.0086  150.6917   56.3340 H   0  0  0  0  0  0  0  0  0  0  0  0
   -0.1735  150.4813   52.9131 C   0  0  0  0  0  0  0  0  0  0  0  0
   -1.9054  150.9794   52.2674 Br  0  0  0  0  0  0  0  0  0  0  0  0
    0.6290  149.5827   52.1867 C   0  0  0  0  0  0  0  0  0  0  0  0
    0.2916  149.1792   51.2395 H   0  0  0  0  0  0  0  0  0  0  0  0
    1.9036  149.2270   52.6561 C   0  0  0  0  0  0  0  0  0  0  0  0
    2.7629  148.4080   51.9643 O   0  0  0  0  0  0  0  0  0  0  0  0
    2.1520  147.3104   51.2815 C   0  0  0  0  0  0  0  0  0  0  0  0
    1.4610  146.7840   51.9476 H   0  0  0  0  0  0  0  0  0  0  0  0
    2.9229  146.6034   50.9601 H   0  0  0  0  0  0  0  0  0  0  0  0
    1.6050  147.6541   50.3988 H   0  0  0  0  0  0  0  0  0  0  0  0
    3.9310  145.4738   56.5498 C   0  0  0  0  0  0  0  0  0  0  0  0
    4.3221  146.1675   57.2755 H   0  0  0  0  0  0  0  0  0  0  0  0
    3.7931  144.1540   56.8577 C   0  0  0  0  0  0  0  0  0  0  0  0
    4.1688  143.7592   58.0819 N   0  0  0  0  0  0  0  0  0  0  0  0
    4.0836  142.7781   58.3271 H   0  0  0  0  0  0  0  0  0  0  0  0
    4.5075  144.4526   58.7427 H   0  0  0  0  0  0  0  0  0  0  0  0
    3.3334  143.2311   55.9524 C   0  0  0  0  0  0  0  0  0  0  0  0
    3.2007  141.8458   56.2748 C   0  0  0  0  0  0  0  0  0  0  0  0
    3.0764  140.7044   56.4602 N   0  0  0  0  0  0  0  0  0  0  0  0
  1  2  1  0
  2  3  1  0
  3  4  1  0
  4  5  1  0
  5  6  1  0
  5  7  1  0
  5  8  1  0
  4  9  2  0
  9 10  1  0
 10 11  1  0
 11 12  2  0
 12 13  1  0
 13 14  1  0
 14 15  1  0
 14 16  1  0
 16 17  2  0
 16 18  1  0
 18 19  1  0
 18 20  1  0
 18 21  1  0
 21 22  2  0
 22 23  1  0
 22 24  1  0
 24 25  1  0
 25 26  1  0
 26 27  1  0
 26 28  1  0
 26 29  1  0
 24 30  2  0
 30 31  1  0
 30 32  1  0
 32 33  1  0
 32 34  2  0
 34 35  1  0
 35 36  1  0
 36 37  1  0
 36 38  1  0
 36 39  1  0
 13 40  2  0
 40 41  1  0
 40 42  1  0
 42 43  1  0
 43 44  1  0
 43 45  1  0
 42 46  2  0
 46 47  1  0
 47 48  3  0
 10  2  2  0
 46 11  1  0
 34 21  1  0
M  END
>  <score>  (224) 
7.14258

$$$$

     RDKit          3D

 54 55  0  0  0  0  0  0  0  0999 V2000
    0.3091  149.2071   51.2605 H   0  0  0  0  0  0  0  0  0  0  0  0
    0.6630  149.6139   52.1988 C   0  0  0  0  0  0  0  0  0  0  0  0
   -0.1398  150.5055   52.9377 C   0  0  0  0  0  0  0  0  0  0  0  0
   -1.8623  150.9818   52.2737 Br  0  0  0  0  0  0  0  0  0  0  0  0
    0.3369  151.0627   54.1346 C   0  0  0  0  0  0  0  0  0  0  0  0
   -0.3790  151.9773   54.8655 O   0  0  0  0  0  0  0  0  0  0  0  0
   -1.4293  151.4056   55.6549 C   0  0  0  0  0  0  0  0  0  0  0  0
   -1.0172  150.7063   56.3838 H   0  0  0  0  0  0  0  0  0  0  0  0
   -1.9493  152.2002   56.2008 H   0  0  0  0  0  0  0  0  0  0  0  0
   -2.1564  150.8741   55.0314 H   0  0  0  0  0  0  0  0  0  0  0  0
    1.6036  150.6970   54.5706 C   0  0  0  0  0  0  0  0  0  0  0  0
    1.9948  151.1484   55.4751 H   0  0  0  0  0  0  0  0  0  0  0  0
    2.3866  149.7917   53.8504 C   0  0  0  0  0  0  0  0  0  0  0  0
    3.7356  149.4863   54.3910 C   0  0  0  0  0  0  0  0  0  0  0  0
    4.4271  149.3501   53.5536 H   0  0  0  0  0  0  0  0  0  0  0  0
    4.0024  150.3719   54.9530 H   0  0  0  0  0  0  0  0  0  0  0  0
    3.7567  148.2404   55.2836 C   0  0  0  0  0  0  0  0  0  0  0  0
    3.8600  148.3035   56.4975 O   0  0  0  0  0  0  0  0  0  0  0  0
    3.7325  147.0260   54.6809 N   0  0  0  0  0  0  0  0  0  0  0  0
    3.5446  146.9834   53.6924 H   0  0  0  0  0  0  0  0  0  0  0  0
    3.5606  145.8332   55.2768 C   0  0  0  0  0  0  0  0  0  0  0  0
    3.0649  145.0331   54.3665 N   0  0  0  0  0  0  0  0  0  0  0  0
    2.9071  143.7148   54.6040 C   0  0  0  0  0  0  0  0  0  0  0  0
    2.4276  142.8554   53.4393 C   0  0  0  0  0  0  0  0  0  0  0  0
    2.5245  141.6299   53.5064 O   0  0  0  0  0  0  0  0  0  0  0  0
    1.9628  143.5269   52.3422 O   0  0  0  0  0  0  0  0  0  0  0  0
    1.4289  142.7905   51.2308 C   0  0  0  0  0  0  0  0  0  0  0  0
    0.1108  142.1482   51.5982 C   0  0  0  0  0  0  0  0  0  0  0  0
   -0.5696  142.8825   52.0450 H   0  0  0  0  0  0  0  0  0  0  0  0
    0.2264  141.2954   52.2773 H   0  0  0  0  0  0  0  0  0  0  0  0
   -0.2845  141.7911   50.6568 H   0  0  0  0  0  0  0  0  0  0  0  0
    1.1717  143.8232   50.1312 C   0  0  0  0  0  0  0  0  0  0  0  0
    0.4861  144.5932   50.5029 H   0  0  0  0  0  0  0  0  0  0  0  0
    0.7271  143.3625   49.2375 H   0  0  0  0  0  0  0  0  0  0  0  0
    2.1205  144.2909   49.8478 H   0  0  0  0  0  0  0  0  0  0  0  0
    2.3493  141.6989   50.6585 C   0  0  0  0  0  0  0  0  0  0  0  0
    1.9432  141.2995   49.7168 H   0  0  0  0  0  0  0  0  0  0  0  0
    3.3362  142.1201   50.4493 H   0  0  0  0  0  0  0  0  0  0  0  0
    2.4506  140.8619   51.3586 H   0  0  0  0  0  0  0  0  0  0  0  0
    3.2511  143.2205   55.8799 C   0  0  0  0  0  0  0  0  0  0  0  0
    3.1331  141.8349   56.2109 C   0  0  0  0  0  0  0  0  0  0  0  0
    3.0401  140.7058   56.4716 N   0  0  0  0  0  0  0  0  0  0  0  0
    3.7492  144.1099   56.8161 C   0  0  0  0  0  0  0  0  0  0  0  0
    4.1530  143.7122   58.0400 N   0  0  0  0  0  0  0  0  0  0  0  0
    4.0652  142.7336   58.3138 H   0  0  0  0  0  0  0  0  0  0  0  0
    4.5053  144.4196   58.6796 H   0  0  0  0  0  0  0  0  0  0  0  0
    3.9089  145.4377   56.5353 C   0  0  0  0  0  0  0  0  0  0  0  0
    4.3306  146.1249   57.2516 H   0  0  0  0  0  0  0  0  0  0  0  0
    1.9386  149.2450   52.6443 C   0  0  0  0  0  0  0  0  0  0  0  0
    2.7780  148.4009   51.9516 O   0  0  0  0  0  0  0  0  0  0  0  0
    2.1687  147.2921   51.2821 C   0  0  0  0  0  0  0  0  0  0  0  0
    1.6260  147.6277   50.3940 H   0  0  0  0  0  0  0  0  0  0  0  0
    1.4791  146.7620   51.9480 H   0  0  0  0  0  0  0  0  0  0  0  0
    2.9525  146.5924   50.9723 H   0  0  0  0  0  0  0  0  0  0  0  0
  1  2  1  0
  2  3  2  0
  3  4  1  0
  3  5  1  0
  5  6  1  0
  6  7  1  0
  7  8  1  0
  7  9  1  0
  7 10  1  0
  5 11  2  0
 11 12  1  0
 11 13  1  0
 13 14  1  0
 14 15  1  0
 14 16  1  0
 14 17  1  0
 17 18  2  0
 17 19  1  0
 19 20  1  0
 19 21  1  0
 21 22  2  0
 22 23  1  0
 23 24  1  0
 24 25  2  0
 24 26  1  0
 26 27  1  0
 27 28  1  0
 28 29  1  0
 28 30  1  0
 28 31  1  0
 27 32  1  0
 32 33  1  0
 32 34  1  0
 32 35  1  0
 27 36  1  0
 36 37  1  0
 36 38  1  0
 36 39  1  0
 23 40  2  0
 40 41  1  0
 41 42  3  0
 40 43  1  0
 43 44  1  0
 44 45  1  0
 44 46  1  0
 43 47  2  0
 47 48  1  0
 13 49  2  0
 49 50  1  0
 50 51  1  0
 51 52  1  0
 51 53  1  0
 51 54  1  0
 49  2  1  0
 47 21  1  0
M  END
>  <score>  (225) 
7.14519

$$$$

     RDKit          3D

 46 47  0  0  0  0  0  0  0  0999 V2000
    0.3083  149.2020   51.2517 H   0  0  0  0  0  0  0  0  0  0  0  0
    0.6596  149.6066   52.1965 C   0  0  0  0  0  0  0  0  0  0  0  0
   -0.1443  150.4998   52.9364 C   0  0  0  0  0  0  0  0  0  0  0  0
   -1.8693  150.9853   52.2786 Br  0  0  0  0  0  0  0  0  0  0  0  0
    0.3351  151.0577   54.1319 C   0  0  0  0  0  0  0  0  0  0  0  0
   -0.3776  151.9750   54.8593 O   0  0  0  0  0  0  0  0  0  0  0  0
   -1.4253  151.4036   55.6467 C   0  0  0  0  0  0  0  0  0  0  0  0
   -1.0132  150.7024   56.3742 H   0  0  0  0  0  0  0  0  0  0  0  0
   -2.1526  150.8749   55.0217 H   0  0  0  0  0  0  0  0  0  0  0  0
   -1.9401  152.2020   56.1902 H   0  0  0  0  0  0  0  0  0  0  0  0
    1.5968  150.6856   54.5739 C   0  0  0  0  0  0  0  0  0  0  0  0
    1.9921  151.1412   55.4720 H   0  0  0  0  0  0  0  0  0  0  0  0
    2.3801  149.7803   53.8597 C   0  0  0  0  0  0  0  0  0  0  0  0
    3.7240  149.4703   54.4017 C   0  0  0  0  0  0  0  0  0  0  0  0
    3.9957  150.3448   54.9832 H   0  0  0  0  0  0  0  0  0  0  0  0
    4.4105  149.3554   53.5604 H   0  0  0  0  0  0  0  0  0  0  0  0
    3.7432  148.2026   55.2621 C   0  0  0  0  0  0  0  0  0  0  0  0
    3.8476  148.2539   56.4780 O   0  0  0  0  0  0  0  0  0  0  0  0
    3.7085  146.9883   54.6360 N   0  0  0  0  0  0  0  0  0  0  0  0
    3.5129  146.9399   53.6484 H   0  0  0  0  0  0  0  0  0  0  0  0
    3.5443  145.7942   55.2225 C   0  0  0  0  0  0  0  0  0  0  0  0
    3.0543  144.9671   54.3223 N   0  0  0  0  0  0  0  0  0  0  0  0
    2.9086  143.6873   54.6660 C   0  0  0  0  0  0  0  0  0  0  0  0
    2.3925  142.7688   53.7726 O   0  0  0  0  0  0  0  0  0  0  0  0
    1.9815  143.1648   52.4335 C   0  0  0  0  0  0  0  0  0  0  0  0
    1.1898  143.9219   52.4941 H   0  0  0  0  0  0  0  0  0  0  0  0
    2.8282  143.6147   51.8989 H   0  0  0  0  0  0  0  0  0  0  0  0
    1.4525  141.9710   51.5806 C   0  0  0  0  0  0  0  0  0  0  0  0
    2.4185  141.0256   51.4321 F   0  0  0  0  0  0  0  0  0  0  0  0
    1.0802  142.4087   50.3500 F   0  0  0  0  0  0  0  0  0  0  0  0
    0.3558  141.3984   52.1415 F   0  0  0  0  0  0  0  0  0  0  0  0
    3.2669  143.2216   55.9118 C   0  0  0  0  0  0  0  0  0  0  0  0
    3.1449  141.8414   56.2393 C   0  0  0  0  0  0  0  0  0  0  0  0
    3.0366  140.7027   56.4477 N   0  0  0  0  0  0  0  0  0  0  0  0
    3.7513  144.1258   56.8052 C   0  0  0  0  0  0  0  0  0  0  0  0
    4.1490  143.7315   58.0195 N   0  0  0  0  0  0  0  0  0  0  0  0
    4.4983  144.4369   58.6626 H   0  0  0  0  0  0  0  0  0  0  0  0
    4.0578  142.7515   58.2809 H   0  0  0  0  0  0  0  0  0  0  0  0
    3.8924  145.4392   56.4969 C   0  0  0  0  0  0  0  0  0  0  0  0
    4.3098  146.1315   57.2134 H   0  0  0  0  0  0  0  0  0  0  0  0
    1.9353  149.2369   52.6502 C   0  0  0  0  0  0  0  0  0  0  0  0
    2.7754  148.4012   51.9482 O   0  0  0  0  0  0  0  0  0  0  0  0
    2.1644  147.2959   51.2806 C   0  0  0  0  0  0  0  0  0  0  0  0
    1.6235  147.6371   50.3935 H   0  0  0  0  0  0  0  0  0  0  0  0
    2.9495  146.5967   50.9731 H   0  0  0  0  0  0  0  0  0  0  0  0
    1.4730  146.7712   51.9492 H   0  0  0  0  0  0  0  0  0  0  0  0
  1  2  1  0
  2  3  2  0
  3  4  1  0
  3  5  1  0
  5  6  1  0
  6  7  1  0
  7  8  1  0
  7  9  1  0
  7 10  1  0
  5 11  2  0
 11 12  1  0
 11 13  1  0
 13 14  1  0
 14 15  1  0
 14 16  1  0
 14 17  1  0
 17 18  2  0
 17 19  1  0
 19 20  1  0
 19 21  1  0
 21 22  2  0
 22 23  1  0
 23 24  1  0
 24 25  1  0
 25 26  1  0
 25 27  1  0
 25 28  1  0
 28 29  1  0
 28 30  1  0
 28 31  1  0
 23 32  2  0
 32 33  1  0
 33 34  3  0
 32 35  1  0
 35 36  1  0
 36 37  1  0
 36 38  1  0
 35 39  2  0
 39 40  1  0
 13 41  2  0
 41 42  1  0
 42 43  1  0
 43 44  1  0
 43 45  1  0
 43 46  1  0
 41  2  1  0
 39 21  1  0
M  END
>  <score>  (226) 
7.1461

$$$$

     RDKit          3D

 50 52  0  0  0  0  0  0  0  0999 V2000
    1.3121  139.8773   50.2770 H   0  0  0  0  0  0  0  0  0  0  0  0
    1.0221  140.8059   50.2742 O   0  0  0  0  0  0  0  0  0  0  0  0
    1.4312  141.4160   51.4170 C   0  0  0  0  0  0  0  0  0  0  0  0
    0.6822  142.4736   51.9156 C   0  0  0  0  0  0  0  0  0  0  0  0
   -0.2454  142.7351   51.4310 H   0  0  0  0  0  0  0  0  0  0  0  0
    1.1356  143.2175   53.0028 C   0  0  0  0  0  0  0  0  0  0  0  0
    0.5797  144.0948   53.3376 H   0  0  0  0  0  0  0  0  0  0  0  0
    2.3206  142.8361   53.6537 C   0  0  0  0  0  0  0  0  0  0  0  0
    2.8782  143.6939   54.6866 C   0  0  0  0  0  0  0  0  0  0  0  0
    3.0316  144.9701   54.3479 N   0  0  0  0  0  0  0  0  0  0  0  0
    3.5506  145.7975   55.2174 C   0  0  0  0  0  0  0  0  0  0  0  0
    3.7034  146.9851   54.6079 N   0  0  0  0  0  0  0  0  0  0  0  0
    3.4638  146.9649   53.6298 H   0  0  0  0  0  0  0  0  0  0  0  0
    3.7508  148.1872   55.2440 C   0  0  0  0  0  0  0  0  0  0  0  0
    3.8249  148.2442   56.4583 O   0  0  0  0  0  0  0  0  0  0  0  0
    3.7063  149.4598   54.4119 C   0  0  0  0  0  0  0  0  0  0  0  0
    3.9778  150.2932   55.0394 H   0  0  0  0  0  0  0  0  0  0  0  0
    4.4182  149.3936   53.5923 H   0  0  0  0  0  0  0  0  0  0  0  0
    2.3544  149.7739   53.8687 C   0  0  0  0  0  0  0  0  0  0  0  0
    1.5753  150.6848   54.5791 C   0  0  0  0  0  0  0  0  0  0  0  0
    1.9622  151.1389   55.4899 H   0  0  0  0  0  0  0  0  0  0  0  0
    0.3166  151.0410   54.1130 C   0  0  0  0  0  0  0  0  0  0  0  0
   -0.3811  151.9737   54.8275 O   0  0  0  0  0  0  0  0  0  0  0  0
   -1.4219  151.4056   55.6227 C   0  0  0  0  0  0  0  0  0  0  0  0
   -1.0099  150.6937   56.3395 H   0  0  0  0  0  0  0  0  0  0  0  0
   -2.1472  150.8827   54.9945 H   0  0  0  0  0  0  0  0  0  0  0  0
   -1.9374  152.1970   56.1747 H   0  0  0  0  0  0  0  0  0  0  0  0
   -0.1676  150.4829   52.9143 C   0  0  0  0  0  0  0  0  0  0  0  0
   -1.9014  150.9810   52.2686 Br  0  0  0  0  0  0  0  0  0  0  0  0
    0.6341  149.5830   52.1879 C   0  0  0  0  0  0  0  0  0  0  0  0
    0.2940  149.1836   51.2392 H   0  0  0  0  0  0  0  0  0  0  0  0
    1.9072  149.2251   52.6587 C   0  0  0  0  0  0  0  0  0  0  0  0
    2.7649  148.4063   51.9629 O   0  0  0  0  0  0  0  0  0  0  0  0
    2.1544  147.3082   51.2800 C   0  0  0  0  0  0  0  0  0  0  0  0
    2.9260  146.6017   50.9591 H   0  0  0  0  0  0  0  0  0  0  0  0
    1.6080  147.6517   50.3969 H   0  0  0  0  0  0  0  0  0  0  0  0
    1.4635  146.7815   51.9460 H   0  0  0  0  0  0  0  0  0  0  0  0
    3.9061  145.4492   56.4923 C   0  0  0  0  0  0  0  0  0  0  0  0
    4.3086  146.1479   57.2127 H   0  0  0  0  0  0  0  0  0  0  0  0
    3.7743  144.1279   56.8064 C   0  0  0  0  0  0  0  0  0  0  0  0
    4.1605  143.7446   58.0350 N   0  0  0  0  0  0  0  0  0  0  0  0
    4.0736  142.7700   58.3022 H   0  0  0  0  0  0  0  0  0  0  0  0
    4.4938  144.4444   58.6907 H   0  0  0  0  0  0  0  0  0  0  0  0
    3.2827  143.2102   55.9120 C   0  0  0  0  0  0  0  0  0  0  0  0
    3.1693  141.8207   56.2268 C   0  0  0  0  0  0  0  0  0  0  0  0
    3.0650  140.6845   56.4455 N   0  0  0  0  0  0  0  0  0  0  0  0
    3.0237  141.6920   53.2267 C   0  0  0  0  0  0  0  0  0  0  0  0
    3.9279  141.3471   53.7366 H   0  0  0  0  0  0  0  0  0  0  0  0
    2.5922  141.0151   52.0773 C   0  0  0  0  0  0  0  0  0  0  0  0
    3.1727  140.1954   51.6700 H   0  0  0  0  0  0  0  0  0  0  0  0
  1  2  1  0
  2  3  1  0
  3  4  2  0
  4  5  1  0
  4  6  1  0
  6  7  1  0
  6  8  2  0
  8  9  1  0
  9 10  2  0
 10 11  1  0
 11 12  1  0
 12 13  1  0
 12 14  1  0
 14 15  2  0
 14 16  1  0
 16 17  1  0
 16 18  1  0
 16 19  1  0
 19 20  2  0
 20 21  1  0
 20 22  1  0
 22 23  1  0
 23 24  1  0
 24 25  1  0
 24 26  1  0
 24 27  1  0
 22 28  2  0
 28 29  1  0
 28 30  1  0
 30 31  1  0
 30 32  2  0
 32 33  1  0
 33 34  1  0
 34 35  1  0
 34 36  1  0
 34 37  1  0
 11 38  2  0
 38 39  1  0
 38 40  1  0
 40 41  1  0
 41 42  1  0
 41 43  1  0
 40 44  2  0
 44 45  1  0
 45 46  3  0
  8 47  1  0
 47 48  1  0
 47 49  2  0
 49 50  1  0
 49  3  1  0
 44  9  1  0
 32 19  1  0
M  END
>  <score>  (227) 
7.14761

$$$$

     RDKit          3D

 53 55  0  0  0  0  0  0  0  0999 V2000
    0.1286  141.2110   52.2911 H   0  0  0  0  0  0  0  0  0  0  0  0
    1.0799  141.7142   52.1390 C   0  0  0  0  0  0  0  0  0  0  0  0
    1.6147  141.7919   50.8585 C   0  0  0  0  0  0  0  0  0  0  0  0
    1.1014  141.3317   50.0223 H   0  0  0  0  0  0  0  0  0  0  0  0
    2.8244  142.4524   50.6177 C   0  0  0  0  0  0  0  0  0  0  0  0
    3.3548  142.4898   49.3494 O   0  0  0  0  0  0  0  0  0  0  0  0
    2.7855  141.5382   48.4315 C   0  0  0  0  0  0  0  0  0  0  0  0
    3.3353  141.5473   47.4895 H   0  0  0  0  0  0  0  0  0  0  0  0
    1.7344  141.7758   48.2309 H   0  0  0  0  0  0  0  0  0  0  0  0
    2.8433  140.5238   48.8392 H   0  0  0  0  0  0  0  0  0  0  0  0
    3.5007  143.0496   51.6985 C   0  0  0  0  0  0  0  0  0  0  0  0
    4.4187  143.5936   51.4945 H   0  0  0  0  0  0  0  0  0  0  0  0
    2.9623  142.9997   53.0111 C   0  0  0  0  0  0  0  0  0  0  0  0
    3.4671  143.7882   54.1544 C   0  0  0  0  0  0  0  0  0  0  0  0
    3.6661  145.0826   53.9004 N   0  0  0  0  0  0  0  0  0  0  0  0
    3.8348  145.9078   54.9056 C   0  0  0  0  0  0  0  0  0  0  0  0
    3.8266  147.1719   54.4698 N   0  0  0  0  0  0  0  0  0  0  0  0
    3.7023  147.2478   53.4751 H   0  0  0  0  0  0  0  0  0  0  0  0
    3.7017  148.2856   55.2452 C   0  0  0  0  0  0  0  0  0  0  0  0
    3.7657  148.2169   56.4603 O   0  0  0  0  0  0  0  0  0  0  0  0
    3.6317  149.6251   54.5358 C   0  0  0  0  0  0  0  0  0  0  0  0
    3.7719  150.4134   55.2777 H   0  0  0  0  0  0  0  0  0  0  0  0
    4.4336  149.6761   53.7917 H   0  0  0  0  0  0  0  0  0  0  0  0
    2.2950  149.8534   53.8873 C   0  0  0  0  0  0  0  0  0  0  0  0
    1.4460  150.7512   54.5442 C   0  0  0  0  0  0  0  0  0  0  0  0
    1.7625  151.2090   55.4786 H   0  0  0  0  0  0  0  0  0  0  0  0
    0.2003  151.0833   54.0182 C   0  0  0  0  0  0  0  0  0  0  0  0
   -0.5714  152.0032   54.6754 O   0  0  0  0  0  0  0  0  0  0  0  0
   -1.5402  151.3903   55.5293 C   0  0  0  0  0  0  0  0  0  0  0  0
   -1.0739  150.6509   56.1881 H   0  0  0  0  0  0  0  0  0  0  0  0
   -2.3165  150.8982   54.9341 H   0  0  0  0  0  0  0  0  0  0  0  0
   -2.0095  152.1535   56.1548 H   0  0  0  0  0  0  0  0  0  0  0  0
   -0.2268  150.4643   52.8319 C   0  0  0  0  0  0  0  0  0  0  0  0
   -1.9568  150.8458   52.1045 Br  0  0  0  0  0  0  0  0  0  0  0  0
    0.6078  149.5365   52.1857 C   0  0  0  0  0  0  0  0  0  0  0  0
    0.2706  149.0498   51.2761 H   0  0  0  0  0  0  0  0  0  0  0  0
    1.8799  149.2168   52.6934 C   0  0  0  0  0  0  0  0  0  0  0  0
    2.7068  148.3066   52.0635 O   0  0  0  0  0  0  0  0  0  0  0  0
    2.0609  147.3074   51.2506 C   0  0  0  0  0  0  0  0  0  0  0  0
    1.5325  147.7559   50.4006 H   0  0  0  0  0  0  0  0  0  0  0  0
    2.8037  146.6054   50.8544 H   0  0  0  0  0  0  0  0  0  0  0  0
    1.3439  146.7413   51.8556 H   0  0  0  0  0  0  0  0  0  0  0  0
    3.9047  145.5242   56.2075 C   0  0  0  0  0  0  0  0  0  0  0  0
    4.0574  146.2307   57.0068 H   0  0  0  0  0  0  0  0  0  0  0  0
    3.7517  144.1976   56.4637 C   0  0  0  0  0  0  0  0  0  0  0  0
    3.8334  143.8095   57.7522 N   0  0  0  0  0  0  0  0  0  0  0  0
    3.9912  142.8210   57.9370 H   0  0  0  0  0  0  0  0  0  0  0  0
    4.2241  144.4914   58.3940 H   0  0  0  0  0  0  0  0  0  0  0  0
    3.4933  143.2980   55.4592 C   0  0  0  0  0  0  0  0  0  0  0  0
    3.2417  141.9234   55.7476 C   0  0  0  0  0  0  0  0  0  0  0  0
    3.0414  140.7961   55.9598 N   0  0  0  0  0  0  0  0  0  0  0  0
    1.7696  142.2917   53.2082 C   0  0  0  0  0  0  0  0  0  0  0  0
    1.3618  142.2071   54.2119 H   0  0  0  0  0  0  0  0  0  0  0  0
  1  2  1  0
  2  3  2  0
  3  4  1  0
  3  5  1  0
  5  6  1  0
  6  7  1  0
  7  8  1  0
  7  9  1  0
  7 10  1  0
  5 11  2  0
 11 12  1  0
 11 13  1  0
 13 14  1  0
 14 15  2  0
 15 16  1  0
 16 17  1  0
 17 18  1  0
 17 19  1  0
 19 20  2  0
 19 21  1  0
 21 22  1  0
 21 23  1  0
 21 24  1  0
 24 25  2  0
 25 26  1  0
 25 27  1  0
 27 28  1  0
 28 29  1  0
 29 30  1  0
 29 31  1  0
 29 32  1  0
 27 33  2  0
 33 34  1  0
 33 35  1  0
 35 36  1  0
 35 37  2  0
 37 38  1  0
 38 39  1  0
 39 40  1  0
 39 41  1  0
 39 42  1  0
 16 43  2  0
 43 44  1  0
 43 45  1  0
 45 46  1  0
 46 47  1  0
 46 48  1  0
 45 49  2  0
 49 50  1  0
 50 51  3  0
 13 52  2  0
 52 53  1  0
 52  2  1  0
 49 14  1  0
 37 24  1  0
M  END
>  <score>  (228) 
7.14802

$$$$

     RDKit          3D

 51 53  0  0  0  0  0  0  0  0999 V2000
    0.2725  148.8519   51.4143 H   0  0  0  0  0  0  0  0  0  0  0  0
    0.5467  149.4491   52.2742 C   0  0  0  0  0  0  0  0  0  0  0  0
   -0.3562  150.3908   52.7846 C   0  0  0  0  0  0  0  0  0  0  0  0
   -2.0629  150.6248   51.9466 Br  0  0  0  0  0  0  0  0  0  0  0  0
   -0.0074  151.1318   53.9224 C   0  0  0  0  0  0  0  0  0  0  0  0
   -0.8735  152.0164   54.5061 O   0  0  0  0  0  0  0  0  0  0  0  0
   -1.7081  151.3825   55.4854 C   0  0  0  0  0  0  0  0  0  0  0  0
   -2.1434  152.1308   56.1534 H   0  0  0  0  0  0  0  0  0  0  0  0
   -2.5249  150.8435   54.9975 H   0  0  0  0  0  0  0  0  0  0  0  0
   -1.1403  150.6713   56.0935 H   0  0  0  0  0  0  0  0  0  0  0  0
    1.2440  150.9396   54.5010 C   0  0  0  0  0  0  0  0  0  0  0  0
    1.5057  151.5233   55.3763 H   0  0  0  0  0  0  0  0  0  0  0  0
    2.1548  150.0175   53.9796 C   0  0  0  0  0  0  0  0  0  0  0  0
    3.4839  149.9054   54.6718 C   0  0  0  0  0  0  0  0  0  0  0  0
    3.6121  150.7427   55.3553 H   0  0  0  0  0  0  0  0  0  0  0  0
    4.2924  149.9495   53.9357 H   0  0  0  0  0  0  0  0  0  0  0  0
    3.5956  148.6229   55.4716 C   0  0  0  0  0  0  0  0  0  0  0  0
    3.0776  148.4755   56.5634 O   0  0  0  0  0  0  0  0  0  0  0  0
    4.2920  147.6080   54.9154 N   0  0  0  0  0  0  0  0  0  0  0  0
    4.3623  147.6541   53.9125 H   0  0  0  0  0  0  0  0  0  0  0  0
    4.2169  146.3574   55.3708 C   0  0  0  0  0  0  0  0  0  0  0  0
    4.0169  145.5484   54.3670 N   0  0  0  0  0  0  0  0  0  0  0  0
    3.8061  144.2575   54.6219 C   0  0  0  0  0  0  0  0  0  0  0  0
    3.3413  143.4793   53.4365 C   0  0  0  0  0  0  0  0  0  0  0  0
    2.2438  142.5985   53.5186 C   0  0  0  0  0  0  0  0  0  0  0  0
    1.7744  142.3804   54.4747 H   0  0  0  0  0  0  0  0  0  0  0  0
    1.7174  142.0064   52.3593 C   0  0  0  0  0  0  0  0  0  0  0  0
    0.8311  141.3904   52.4457 H   0  0  0  0  0  0  0  0  0  0  0  0
    2.2517  142.2731   51.0846 C   0  0  0  0  0  0  0  0  0  0  0  0
    1.7027  141.7701   49.8941 N   0  0  0  0  0  4  0  0  0  0  0  0
    0.7969  140.9651   49.9824 O   0  0  0  0  0  0  0  0  0  0  0  0
    2.1562  142.1669   48.8198 O   0  0  0  0  0  1  0  0  0  0  0  0
    3.3583  143.1157   51.0125 C   0  0  0  0  0  0  0  0  0  0  0  0
    3.8312  143.3204   50.0566 H   0  0  0  0  0  0  0  0  0  0  0  0
    3.8556  143.7377   52.1439 C   0  0  0  0  0  0  0  0  0  0  0  0
    4.6452  144.4535   51.9470 H   0  0  0  0  0  0  0  0  0  0  0  0
    3.8748  143.7585   55.9316 C   0  0  0  0  0  0  0  0  0  0  0  0
    3.8379  142.3562   56.1806 C   0  0  0  0  0  0  0  0  0  0  0  0
    3.8784  141.2018   56.3377 N   0  0  0  0  0  0  0  0  0  0  0  0
    4.0591  144.6654   56.9597 C   0  0  0  0  0  0  0  0  0  0  0  0
    4.0600  144.3320   58.2747 N   0  0  0  0  0  0  0  0  0  0  0  0
    4.3860  143.4047   58.5311 H   0  0  0  0  0  0  0  0  0  0  0  0
    4.2564  145.0900   58.9274 H   0  0  0  0  0  0  0  0  0  0  0  0
    4.2352  145.9839   56.6781 C   0  0  0  0  0  0  0  0  0  0  0  0
    4.3988  146.7167   57.4496 H   0  0  0  0  0  0  0  0  0  0  0  0
    1.8043  149.2328   52.8608 C   0  0  0  0  0  0  0  0  0  0  0  0
    2.6777  148.2821   52.3706 O   0  0  0  0  0  0  0  0  0  0  0  0
    2.1454  147.4121   51.3534 C   0  0  0  0  0  0  0  0  0  0  0  0
    1.7361  148.0014   50.5269 H   0  0  0  0  0  0  0  0  0  0  0  0
    2.9211  146.7514   50.9537 H   0  0  0  0  0  0  0  0  0  0  0  0
    1.3445  146.7878   51.7632 H   0  0  0  0  0  0  0  0  0  0  0  0
  1  2  1  0
  2  3  2  0
  3  4  1  0
  3  5  1  0
  5  6  1  0
  6  7  1  0
  7  8  1  0
  7  9  1  0
  7 10  1  0
  5 11  2  0
 11 12  1  0
 11 13  1  0
 13 14  1  0
 14 15  1  0
 14 16  1  0
 14 17  1  0
 17 18  2  0
 17 19  1  0
 19 20  1  0
 19 21  1  0
 21 22  2  0
 22 23  1  0
 23 24  1  0
 24 25  2  0
 25 26  1  0
 25 27  1  0
 27 28  1  0
 27 29  2  0
 29 30  1  0
 30 31  2  0
 30 32  1  0
 29 33  1  0
 33 34  1  0
 33 35  2  0
 35 36  1  0
 23 37  2  0
 37 38  1  0
 38 39  3  0
 37 40  1  0
 40 41  1  0
 41 42  1  0
 41 43  1  0
 40 44  2  0
 44 45  1  0
 13 46  2  0
 46 47  1  0
 47 48  1  0
 48 49  1  0
 48 50  1  0
 48 51  1  0
 46  2  1  0
 44 21  1  0
 35 24  1  0
M  CHG  2  30   1  32  -1
M  END
>  <score>  (229) 
7.1494

$$$$

     RDKit          3D

 51 53  0  0  0  0  0  0  0  0999 V2000
    0.2832  149.1728   51.2330 H   0  0  0  0  0  0  0  0  0  0  0  0
    0.6166  149.5726   52.1829 C   0  0  0  0  0  0  0  0  0  0  0  0
   -0.1829  150.4721   52.9059 C   0  0  0  0  0  0  0  0  0  0  0  0
   -1.9193  150.9758   52.2597 Br  0  0  0  0  0  0  0  0  0  0  0  0
    0.3096  151.0336   54.0996 C   0  0  0  0  0  0  0  0  0  0  0  0
   -0.3849  151.9735   54.8036 O   0  0  0  0  0  0  0  0  0  0  0  0
   -1.4208  151.4055   55.6041 C   0  0  0  0  0  0  0  0  0  0  0  0
   -1.9344  152.1936   56.1634 H   0  0  0  0  0  0  0  0  0  0  0  0
   -1.0070  150.6881   56.3145 H   0  0  0  0  0  0  0  0  0  0  0  0
   -2.1474  150.8879   54.9740 H   0  0  0  0  0  0  0  0  0  0  0  0
    1.5626  150.6728   54.5804 C   0  0  0  0  0  0  0  0  0  0  0  0
    1.9389  151.1251   55.4976 H   0  0  0  0  0  0  0  0  0  0  0  0
    2.3412  149.7568   53.8744 C   0  0  0  0  0  0  0  0  0  0  0  0
    3.6950  149.4202   54.4216 C   0  0  0  0  0  0  0  0  0  0  0  0
    4.4224  149.3971   53.6101 H   0  0  0  0  0  0  0  0  0  0  0  0
    3.9656  150.2022   55.1132 H   0  0  0  0  0  0  0  0  0  0  0  0
    3.7172  148.1116   55.1920 C   0  0  0  0  0  0  0  0  0  0  0  0
    3.8008  148.1397   56.4048 O   0  0  0  0  0  0  0  0  0  0  0  0
    3.6223  146.9258   54.5340 N   0  0  0  0  0  0  0  0  0  0  0  0
    3.3920  146.9343   53.5509 H   0  0  0  0  0  0  0  0  0  0  0  0
    3.5157  145.7288   55.1392 C   0  0  0  0  0  0  0  0  0  0  0  0
    3.0367  144.8703   54.2824 N   0  0  0  0  0  0  0  0  0  0  0  0
    2.9514  143.6276   54.6873 C   0  0  0  0  0  0  0  0  0  0  0  0
    2.3615  142.8862   53.7241 N   0  0  0  0  0  0  0  0  0  0  0  0
    1.9330  143.5538   53.0798 H   0  0  0  0  0  0  0  0  0  0  0  0
    3.1434  141.8468   53.0468 C   0  0  0  0  0  0  0  0  0  0  0  0
    3.9154  141.4267   53.6952 H   0  0  0  0  0  0  0  0  0  0  0  0
    2.4957  141.0180   52.7452 H   0  0  0  0  0  0  0  0  0  0  0  0
    3.8223  142.4937   51.8434 C   0  0  0  0  0  0  0  0  0  0  0  0
    4.4144  143.3700   52.1023 H   0  0  0  0  0  0  0  0  0  0  0  0
    4.3453  141.6301   50.7022 C   0  0  0  0  0  0  0  0  0  0  0  0
    5.3031  141.8988   50.2438 H   0  0  0  0  0  0  0  0  0  0  0  0
    4.1224  140.5598   50.7175 H   0  0  0  0  0  0  0  0  0  0  0  0
    3.1790  142.5834   50.4703 C   0  0  0  0  0  0  0  0  0  0  0  0
    3.3944  143.4764   49.8746 H   0  0  0  0  0  0  0  0  0  0  0  0
    2.1841  142.1542   50.3350 H   0  0  0  0  0  0  0  0  0  0  0  0
    3.3261  143.1627   55.9128 C   0  0  0  0  0  0  0  0  0  0  0  0
    3.1922  141.7770   56.2289 C   0  0  0  0  0  0  0  0  0  0  0  0
    3.0730  140.6384   56.4366 N   0  0  0  0  0  0  0  0  0  0  0  0
    3.7835  144.1128   56.7867 C   0  0  0  0  0  0  0  0  0  0  0  0
    4.1528  143.7628   58.0254 N   0  0  0  0  0  0  0  0  0  0  0  0
    4.0799  142.7881   58.2930 H   0  0  0  0  0  0  0  0  0  0  0  0
    4.4791  144.4747   58.6724 H   0  0  0  0  0  0  0  0  0  0  0  0
    3.8818  145.4280   56.4268 C   0  0  0  0  0  0  0  0  0  0  0  0
    4.2657  146.1656   57.1239 H   0  0  0  0  0  0  0  0  0  0  0  0
    1.8886  149.2174   52.6593 C   0  0  0  0  0  0  0  0  0  0  0  0
    2.7535  148.4034   51.9686 O   0  0  0  0  0  0  0  0  0  0  0  0
    2.1440  147.3126   51.2764 C   0  0  0  0  0  0  0  0  0  0  0  0
    1.4517  146.7886   51.9406 H   0  0  0  0  0  0  0  0  0  0  0  0
    2.9095  146.6030   50.9510 H   0  0  0  0  0  0  0  0  0  0  0  0
    1.5981  147.6610   50.3952 H   0  0  0  0  0  0  0  0  0  0  0  0
  1  2  1  0
  2  3  2  0
  3  4  1  0
  3  5  1  0
  5  6  1  0
  6  7  1  0
  7  8  1  0
  7  9  1  0
  7 10  1  0
  5 11  2  0
 11 12  1  0
 11 13  1  0
 13 14  1  0
 14 15  1  0
 14 16  1  0
 14 17  1  0
 17 18  2  0
 17 19  1  0
 19 20  1  0
 19 21  1  0
 21 22  2  0
 22 23  1  0
 23 24  1  0
 24 25  1  0
 24 26  1  0
 26 27  1  0
 26 28  1  0
 26 29  1  0
 29 30  1  0
 29 31  1  0
 31 32  1  0
 31 33  1  0
 31 34  1  0
 34 35  1  0
 34 36  1  0
 23 37  2  0
 37 38  1  0
 38 39  3  0
 37 40  1  0
 40 41  1  0
 41 42  1  0
 41 43  1  0
 40 44  2  0
 44 45  1  0
 13 46  2  0
 46 47  1  0
 47 48  1  0
 48 49  1  0
 48 50  1  0
 48 51  1  0
 46  2  1  0
 44 21  1  0
 34 29  1  0
M  END
>  <score>  (230) 
7.15226

$$$$

     RDKit          3D

 49 51  0  0  0  0  0  0  0  0999 V2000
    1.3858  141.2011   49.8292 H   0  0  0  0  0  0  0  0  0  0  0  0
    1.7780  141.7521   50.6810 C   0  0  0  0  0  0  0  0  0  0  0  0
    1.1905  141.5967   51.9411 C   0  0  0  0  0  0  0  0  0  0  0  0
    0.3039  140.9799   52.0762 H   0  0  0  0  0  0  0  0  0  0  0  0
    1.7622  142.2322   53.0487 C   0  0  0  0  0  0  0  0  0  0  0  0
    1.2970  142.1568   54.0242 H   0  0  0  0  0  0  0  0  0  0  0  0
    2.8892  143.0513   52.9133 C   0  0  0  0  0  0  0  0  0  0  0  0
    3.3773  143.7996   54.0698 C   0  0  0  0  0  0  0  0  0  0  0  0
    3.5767  145.0934   53.8305 N   0  0  0  0  0  0  0  0  0  0  0  0
    3.8104  145.8860   54.8378 C   0  0  0  0  0  0  0  0  0  0  0  0
    3.8226  147.1418   54.3981 N   0  0  0  0  0  0  0  0  0  0  0  0
    3.6627  147.2121   53.4045 H   0  0  0  0  0  0  0  0  0  0  0  0
    3.7013  148.2372   55.1918 C   0  0  0  0  0  0  0  0  0  0  0  0
    3.7674  148.1437   56.4084 O   0  0  0  0  0  0  0  0  0  0  0  0
    3.6252  149.5985   54.5300 C   0  0  0  0  0  0  0  0  0  0  0  0
    4.4208  149.6780   53.7841 H   0  0  0  0  0  0  0  0  0  0  0  0
    3.7634  150.3675   55.2922 H   0  0  0  0  0  0  0  0  0  0  0  0
    2.2916  149.8440   53.8879 C   0  0  0  0  0  0  0  0  0  0  0  0
    1.4529  150.7534   54.5449 C   0  0  0  0  0  0  0  0  0  0  0  0
    1.7778  151.2185   55.4731 H   0  0  0  0  0  0  0  0  0  0  0  0
    0.2054  151.0838   54.0224 C   0  0  0  0  0  0  0  0  0  0  0  0
   -0.5637  152.0047   54.6819 O   0  0  0  0  0  0  0  0  0  0  0  0
   -1.5349  151.3900   55.5285 C   0  0  0  0  0  0  0  0  0  0  0  0
   -2.0024  152.1578   56.1460 H   0  0  0  0  0  0  0  0  0  0  0  0
   -1.0735  150.6513   56.1906 H   0  0  0  0  0  0  0  0  0  0  0  0
   -2.3084  150.8981   54.9316 H   0  0  0  0  0  0  0  0  0  0  0  0
   -0.2217  150.4641   52.8339 C   0  0  0  0  0  0  0  0  0  0  0  0
   -1.9534  150.8511   52.1168 Br  0  0  0  0  0  0  0  0  0  0  0  0
    0.6075  149.5326   52.1801 C   0  0  0  0  0  0  0  0  0  0  0  0
    0.2741  149.0443   51.2671 H   0  0  0  0  0  0  0  0  0  0  0  0
    1.8769  149.2107   52.6927 C   0  0  0  0  0  0  0  0  0  0  0  0
    2.7061  148.3027   52.0638 O   0  0  0  0  0  0  0  0  0  0  0  0
    2.0627  147.3046   51.2528 C   0  0  0  0  0  0  0  0  0  0  0  0
    1.3443  146.7429   51.8604 H   0  0  0  0  0  0  0  0  0  0  0  0
    1.5370  147.7569   50.4032 H   0  0  0  0  0  0  0  0  0  0  0  0
    2.8089  146.6034   50.8607 H   0  0  0  0  0  0  0  0  0  0  0  0
    3.8975  145.4902   56.1332 C   0  0  0  0  0  0  0  0  0  0  0  0
    4.0540  146.1935   56.9334 H   0  0  0  0  0  0  0  0  0  0  0  0
    3.7254  144.1662   56.3748 C   0  0  0  0  0  0  0  0  0  0  0  0
    3.8107  143.7885   57.6670 N   0  0  0  0  0  0  0  0  0  0  0  0
    4.1973  144.4716   58.3126 H   0  0  0  0  0  0  0  0  0  0  0  0
    3.9796  142.8056   57.8472 H   0  0  0  0  0  0  0  0  0  0  0  0
    3.4458  143.2730   55.3643 C   0  0  0  0  0  0  0  0  0  0  0  0
    3.2208  141.8950   55.6601 C   0  0  0  0  0  0  0  0  0  0  0  0
    3.0542  140.7664   55.9056 N   0  0  0  0  0  0  0  0  0  0  0  0
    3.4113  143.2910   51.6310 C   0  0  0  0  0  0  0  0  0  0  0  0
    4.6787  144.4760   51.3830 Cl  0  0  0  0  0  0  0  0  0  0  0  0
    2.8752  142.6124   50.5290 C   0  0  0  0  0  0  0  0  0  0  0  0
    3.3018  142.7912   49.5489 H   0  0  0  0  0  0  0  0  0  0  0  0
  1  2  1  0
  2  3  2  0
  3  4  1  0
  3  5  1  0
  5  6  1  0
  5  7  2  0
  7  8  1  0
  8  9  2  0
  9 10  1  0
 10 11  1  0
 11 12  1  0
 11 13  1  0
 13 14  2  0
 13 15  1  0
 15 16  1  0
 15 17  1  0
 15 18  1  0
 18 19  2  0
 19 20  1  0
 19 21  1  0
 21 22  1  0
 22 23  1  0
 23 24  1  0
 23 25  1  0
 23 26  1  0
 21 27  2  0
 27 28  1  0
 27 29  1  0
 29 30  1  0
 29 31  2  0
 31 32  1  0
 32 33  1  0
 33 34  1  0
 33 35  1  0
 33 36  1  0
 10 37  2  0
 37 38  1  0
 37 39  1  0
 39 40  1  0
 40 41  1  0
 40 42  1  0
 39 43  2  0
 43 44  1  0
 44 45  3  0
  7 46  1  0
 46 47  1  0
 46 48  2  0
 48 49  1  0
 48  2  1  0
 43  8  1  0
 31 18  1  0
M  END
>  <score>  (231) 
7.15235

$$$$

     RDKit          3D

 46 48  0  0  0  0  0  0  0  0999 V2000
    1.4962  140.1971   52.0446 H   0  0  0  0  0  0  0  0  0  0  0  0
    1.8479  141.2086   52.2399 C   0  0  0  0  0  0  0  0  0  0  0  0
    2.4599  141.6093   53.4206 N   0  0  0  0  0  0  0  0  0  0  0  0
    2.6067  142.9196   53.4006 C   0  0  0  0  0  0  0  0  0  0  0  0
    3.0493  143.7804   54.5654 C   0  0  0  0  0  0  0  0  0  0  0  0
    3.1908  145.0915   54.3288 N   0  0  0  0  0  0  0  0  0  0  0  0
    3.6201  145.8718   55.2753 C   0  0  0  0  0  0  0  0  0  0  0  0
    3.7661  147.0363   54.6622 N   0  0  0  0  0  0  0  0  0  0  0  0
    3.4779  146.9741   53.6962 H   0  0  0  0  0  0  0  0  0  0  0  0
    3.7666  148.2403   55.2673 C   0  0  0  0  0  0  0  0  0  0  0  0
    3.8309  148.3081   56.4811 O   0  0  0  0  0  0  0  0  0  0  0  0
    3.7018  149.4865   54.4117 C   0  0  0  0  0  0  0  0  0  0  0  0
    4.4197  149.4155   53.5993 H   0  0  0  0  0  0  0  0  0  0  0  0
    3.9646  150.3273   55.0240 H   0  0  0  0  0  0  0  0  0  0  0  0
    2.3497  149.7804   53.8669 C   0  0  0  0  0  0  0  0  0  0  0  0
    1.5697  150.6883   54.5756 C   0  0  0  0  0  0  0  0  0  0  0  0
    1.9537  151.1408   55.4886 H   0  0  0  0  0  0  0  0  0  0  0  0
    0.3112  151.0399   54.1079 C   0  0  0  0  0  0  0  0  0  0  0  0
   -0.3843  151.9744   54.8209 O   0  0  0  0  0  0  0  0  0  0  0  0
   -1.4225  151.4065   55.6190 C   0  0  0  0  0  0  0  0  0  0  0  0
   -2.1481  150.8836   54.9922 H   0  0  0  0  0  0  0  0  0  0  0  0
   -1.9390  152.1950   56.1743 H   0  0  0  0  0  0  0  0  0  0  0  0
   -1.0103  150.6933   56.3339 H   0  0  0  0  0  0  0  0  0  0  0  0
   -0.1738  150.4817   52.9103 C   0  0  0  0  0  0  0  0  0  0  0  0
   -1.9073  150.9801   52.2660 Br  0  0  0  0  0  0  0  0  0  0  0  0
    0.6302  149.5820   52.1872 C   0  0  0  0  0  0  0  0  0  0  0  0
    0.2900  149.1811   51.2392 H   0  0  0  0  0  0  0  0  0  0  0  0
    1.9042  149.2293   52.6597 C   0  0  0  0  0  0  0  0  0  0  0  0
    2.7626  148.4104   51.9663 O   0  0  0  0  0  0  0  0  0  0  0  0
    2.1527  147.3132   51.2799 C   0  0  0  0  0  0  0  0  0  0  0  0
    1.4630  146.7840   51.9441 H   0  0  0  0  0  0  0  0  0  0  0  0
    2.9217  146.6054   50.9546 H   0  0  0  0  0  0  0  0  0  0  0  0
    1.6038  147.6558   50.3983 H   0  0  0  0  0  0  0  0  0  0  0  0
    3.9217  145.4855   56.5427 C   0  0  0  0  0  0  0  0  0  0  0  0
    4.3159  146.1523   57.2886 H   0  0  0  0  0  0  0  0  0  0  0  0
    3.7615  144.1655   56.8136 C   0  0  0  0  0  0  0  0  0  0  0  0
    4.1184  143.7655   58.0543 N   0  0  0  0  0  0  0  0  0  0  0  0
    4.5008  144.4449   58.7093 H   0  0  0  0  0  0  0  0  0  0  0  0
    4.0758  142.7801   58.2916 H   0  0  0  0  0  0  0  0  0  0  0  0
    3.3103  143.2809   55.8529 C   0  0  0  0  0  0  0  0  0  0  0  0
    3.1652  141.8959   56.1653 C   0  0  0  0  0  0  0  0  0  0  0  0
    3.0632  140.7730   56.4514 N   0  0  0  0  0  0  0  0  0  0  0  0
    2.2058  143.3519   52.1325 N   0  0  0  0  0  0  0  0  0  0  0  0
    2.2198  144.3146   51.7975 H   0  0  0  0  0  0  0  0  0  0  0  0
    1.6535  142.2927   51.4463 C   0  0  0  0  0  0  0  0  0  0  0  0
    1.1340  142.3029   50.4951 H   0  0  0  0  0  0  0  0  0  0  0  0
  1  2  1  0
  2  3  1  0
  3  4  2  0
  4  5  1  0
  5  6  2  0
  6  7  1  0
  7  8  1  0
  8  9  1  0
  8 10  1  0
 10 11  2  0
 10 12  1  0
 12 13  1  0
 12 14  1  0
 12 15  1  0
 15 16  2  0
 16 17  1  0
 16 18  1  0
 18 19  1  0
 19 20  1  0
 20 21  1  0
 20 22  1  0
 20 23  1  0
 18 24  2  0
 24 25  1  0
 24 26  1  0
 26 27  1  0
 26 28  2  0
 28 29  1  0
 29 30  1  0
 30 31  1  0
 30 32  1  0
 30 33  1  0
  7 34  2  0
 34 35  1  0
 34 36  1  0
 36 37  1  0
 37 38  1  0
 37 39  1  0
 36 40  2  0
 40 41  1  0
 41 42  3  0
  4 43  1  0
 43 44  1  0
 43 45  1  0
 45 46  1  0
 45  2  2  0
 40  5  1  0
 28 15  1  0
M  END
>  <score>  (232) 
7.15381

$$$$

     RDKit          3D

 48 50  0  0  0  0  0  0  0  0999 V2000
    1.5866  141.5161   49.8084 H   0  0  0  0  0  0  0  0  0  0  0  0
    1.9505  141.9196   50.7428 C   0  0  0  0  0  0  0  0  0  0  0  0
    3.0725  142.6623   50.7337 N   0  0  0  0  0  0  0  0  0  0  0  0
    3.4830  143.2250   51.8819 C   0  0  0  0  0  0  0  0  0  0  0  0
    4.3252  143.9116   51.8494 H   0  0  0  0  0  0  0  0  0  0  0  0
    2.8007  143.0329   53.0898 C   0  0  0  0  0  0  0  0  0  0  0  0
    3.2372  143.7493   54.2649 C   0  0  0  0  0  0  0  0  0  0  0  0
    3.4505  145.0181   53.9791 N   0  0  0  0  0  0  0  0  0  0  0  0
    3.7530  145.8249   54.9526 C   0  0  0  0  0  0  0  0  0  0  0  0
    3.7822  147.0565   54.4479 N   0  0  0  0  0  0  0  0  0  0  0  0
    3.4733  147.1101   53.4888 H   0  0  0  0  0  0  0  0  0  0  0  0
    3.7134  148.1732   55.2121 C   0  0  0  0  0  0  0  0  0  0  0  0
    3.7889  148.1093   56.4278 O   0  0  0  0  0  0  0  0  0  0  0  0
    3.6568  149.4935   54.4790 C   0  0  0  0  0  0  0  0  0  0  0  0
    3.8675  150.2674   55.2085 H   0  0  0  0  0  0  0  0  0  0  0  0
    4.4270  149.5068   53.7025 H   0  0  0  0  0  0  0  0  0  0  0  0
    2.3109  149.7793   53.8716 C   0  0  0  0  0  0  0  0  0  0  0  0
    1.4935  150.6761   54.5581 C   0  0  0  0  0  0  0  0  0  0  0  0
    1.8290  151.1079   55.4950 H   0  0  0  0  0  0  0  0  0  0  0  0
    0.2538  151.0537   54.0571 C   0  0  0  0  0  0  0  0  0  0  0  0
   -0.4566  152.0003   54.7384 O   0  0  0  0  0  0  0  0  0  0  0  0
   -1.4607  151.4054   55.5522 C   0  0  0  0  0  0  0  0  0  0  0  0
   -2.2035  150.8990   54.9270 H   0  0  0  0  0  0  0  0  0  0  0  0
   -1.9548  152.1803   56.1436 H   0  0  0  0  0  0  0  0  0  0  0  0
   -1.0097  150.6764   56.2313 H   0  0  0  0  0  0  0  0  0  0  0  0
   -0.2189  150.4680   52.8732 C   0  0  0  0  0  0  0  0  0  0  0  0
   -1.9549  150.9206   52.1983 Br  0  0  0  0  0  0  0  0  0  0  0  0
    0.5926  149.5520   52.1833 C   0  0  0  0  0  0  0  0  0  0  0  0
    0.2328  149.1239   51.2550 H   0  0  0  0  0  0  0  0  0  0  0  0
    1.8743  149.2118   52.6604 C   0  0  0  0  0  0  0  0  0  0  0  0
    2.7227  148.3662   51.9863 O   0  0  0  0  0  0  0  0  0  0  0  0
    2.0929  147.3092   51.2582 C   0  0  0  0  0  0  0  0  0  0  0  0
    1.5551  147.7043   50.3896 H   0  0  0  0  0  0  0  0  0  0  0  0
    2.8633  146.6132   50.9116 H   0  0  0  0  0  0  0  0  0  0  0  0
    1.3919  146.7643   51.9029 H   0  0  0  0  0  0  0  0  0  0  0  0
    3.9065  145.4553   56.2610 C   0  0  0  0  0  0  0  0  0  0  0  0
    4.1546  146.1500   57.0481 H   0  0  0  0  0  0  0  0  0  0  0  0
    3.6777  144.1467   56.5546 C   0  0  0  0  0  0  0  0  0  0  0  0
    3.8312  143.7786   57.8511 N   0  0  0  0  0  0  0  0  0  0  0  0
    4.3544  144.4398   58.4190 H   0  0  0  0  0  0  0  0  0  0  0  0
    4.0280  142.7960   58.0137 H   0  0  0  0  0  0  0  0  0  0  0  0
    3.3310  143.2482   55.5668 C   0  0  0  0  0  0  0  0  0  0  0  0
    3.1208  141.8731   55.8861 C   0  0  0  0  0  0  0  0  0  0  0  0
    2.9776  140.7530   56.1630 N   0  0  0  0  0  0  0  0  0  0  0  0
    1.6164  142.3010   53.0839 C   0  0  0  0  0  0  0  0  0  0  0  0
    1.0283  142.2138   53.9888 H   0  0  0  0  0  0  0  0  0  0  0  0
    1.1826  141.7170   51.8952 C   0  0  0  0  0  0  0  0  0  0  0  0
    0.0457  140.9797   51.8651 F   0  0  0  0  0  0  0  0  0  0  0  0
  1  2  1  0
  2  3  2  0
  3  4  1  0
  4  5  1  0
  4  6  2  0
  6  7  1  0
  7  8  2  0
  8  9  1  0
  9 10  1  0
 10 11  1  0
 10 12  1  0
 12 13  2  0
 12 14  1  0
 14 15  1  0
 14 16  1  0
 14 17  1  0
 17 18  2  0
 18 19  1  0
 18 20  1  0
 20 21  1  0
 21 22  1  0
 22 23  1  0
 22 24  1  0
 22 25  1  0
 20 26  2  0
 26 27  1  0
 26 28  1  0
 28 29  1  0
 28 30  2  0
 30 31  1  0
 31 32  1  0
 32 33  1  0
 32 34  1  0
 32 35  1  0
  9 36  2  0
 36 37  1  0
 36 38  1  0
 38 39  1  0
 39 40  1  0
 39 41  1  0
 38 42  2  0
 42 43  1  0
 43 44  3  0
  6 45  1  0
 45 46  1  0
 45 47  2  0
 47 48  1  0
 47  2  1  0
 42  7  1  0
 30 17  1  0
M  END
>  <score>  (233) 
7.15402

$$$$

     RDKit          3D

 51 53  0  0  0  0  0  0  0  0999 V2000
    0.2435  149.1366   51.2532 H   0  0  0  0  0  0  0  0  0  0  0  0
    0.6008  149.5554   52.1874 C   0  0  0  0  0  0  0  0  0  0  0  0
   -0.2084  150.4668   52.8883 C   0  0  0  0  0  0  0  0  0  0  0  0
   -1.9445  150.9327   52.2147 Br  0  0  0  0  0  0  0  0  0  0  0  0
    0.2733  151.0487   54.0710 C   0  0  0  0  0  0  0  0  0  0  0  0
   -0.4338  151.9947   54.7586 O   0  0  0  0  0  0  0  0  0  0  0  0
   -1.4479  151.4046   55.5639 C   0  0  0  0  0  0  0  0  0  0  0  0
   -1.0072  150.6796   56.2524 H   0  0  0  0  0  0  0  0  0  0  0  0
   -1.9467  152.1812   56.1478 H   0  0  0  0  0  0  0  0  0  0  0  0
   -2.1853  150.8978   54.9338 H   0  0  0  0  0  0  0  0  0  0  0  0
    1.5156  150.6660   54.5639 C   0  0  0  0  0  0  0  0  0  0  0  0
    1.8582  151.1013   55.4939 H   0  0  0  0  0  0  0  0  0  0  0  0
    2.3293  149.7697   53.8701 C   0  0  0  0  0  0  0  0  0  0  0  0
    3.6783  149.4593   54.4609 C   0  0  0  0  0  0  0  0  0  0  0  0
    4.4415  149.4566   53.6721 H   0  0  0  0  0  0  0  0  0  0  0  0
    3.9061  150.2335   55.1843 H   0  0  0  0  0  0  0  0  0  0  0  0
    3.6990  148.1509   55.2243 C   0  0  0  0  0  0  0  0  0  0  0  0
    3.7895  148.1395   56.4421 O   0  0  0  0  0  0  0  0  0  0  0  0
    3.6814  146.9985   54.5089 N   0  0  0  0  0  0  0  0  0  0  0  0
    3.3862  147.0407   53.5455 H   0  0  0  0  0  0  0  0  0  0  0  0
    3.5662  145.7870   55.0725 C   0  0  0  0  0  0  0  0  0  0  0  0
    3.0798  144.9685   54.1761 N   0  0  0  0  0  0  0  0  0  0  0  0
    2.9011  143.6983   54.5054 C   0  0  0  0  0  0  0  0  0  0  0  0
    2.3245  142.8548   53.3951 C   0  0  1  0  0  0  0  0  0  0  0  0
    2.1807  141.8334   53.7424 H   0  0  0  0  0  0  0  0  0  0  0  0
    1.0153  143.4496   52.8534 C   0  0  0  0  0  0  0  0  0  0  0  0
    1.1181  144.5356   52.7028 H   0  0  0  0  0  0  0  0  0  0  0  0
    0.1278  143.2841   53.4791 H   0  0  0  0  0  0  0  0  0  0  0  0
    0.9058  142.7368   51.5787 N   0  0  0  0  0  0  0  0  0  0  0  0
    0.4958  141.8147   51.7156 H   0  0  0  0  0  0  0  0  0  0  0  0
    2.2416  142.5941   50.9885 C   0  0  0  0  0  0  0  0  0  0  0  0
    2.3644  141.5875   50.5801 H   0  0  0  0  0  0  0  0  0  0  0  0
    2.3974  143.3302   50.1956 H   0  0  0  0  0  0  0  0  0  0  0  0
    3.2086  142.8301   52.1350 C   0  0  0  0  0  0  0  0  0  0  0  0
    3.7065  143.7939   51.9910 H   0  0  0  0  0  0  0  0  0  0  0  0
    3.9785  142.0558   52.1720 H   0  0  0  0  0  0  0  0  0  0  0  0
    3.2429  143.2277   55.7795 C   0  0  0  0  0  0  0  0  0  0  0  0
    3.1324  141.8525   56.1249 C   0  0  0  0  0  0  0  0  0  0  0  0
    3.0709  140.7144   56.3614 N   0  0  0  0  0  0  0  0  0  0  0  0
    3.7195  144.1335   56.7073 C   0  0  0  0  0  0  0  0  0  0  0  0
    4.0494  143.7787   57.9819 N   0  0  0  0  0  0  0  0  0  0  0  0
    4.0756  142.7956   58.2538 H   0  0  0  0  0  0  0  0  0  0  0  0
    4.4408  144.4857   58.5990 H   0  0  0  0  0  0  0  0  0  0  0  0
    3.8798  145.4441   56.3628 C   0  0  0  0  0  0  0  0  0  0  0  0
    4.2493  146.1587   57.0847 H   0  0  0  0  0  0  0  0  0  0  0  0
    1.8827  149.2126   52.6607 C   0  0  0  0  0  0  0  0  0  0  0  0
    2.7291  148.3711   51.9803 O   0  0  0  0  0  0  0  0  0  0  0  0
    2.1036  147.3059   51.2638 C   0  0  0  0  0  0  0  0  0  0  0  0
    1.4071  146.7679   51.9176 H   0  0  0  0  0  0  0  0  0  0  0  0
    2.8741  146.6070   50.9217 H   0  0  0  0  0  0  0  0  0  0  0  0
    1.5643  147.6924   50.3929 H   0  0  0  0  0  0  0  0  0  0  0  0
  1  2  1  0
  2  3  2  0
  3  4  1  0
  3  5  1  0
  5  6  1  0
  6  7  1  0
  7  8  1  0
  7  9  1  0
  7 10  1  0
  5 11  2  0
 11 12  1  0
 11 13  1  0
 13 14  1  0
 14 15  1  0
 14 16  1  0
 14 17  1  0
 17 18  2  0
 17 19  1  0
 19 20  1  0
 19 21  1  0
 21 22  2  0
 22 23  1  0
 23 24  1  0
 24 25  1  1
 24 26  1  0
 26 27  1  0
 26 28  1  0
 26 29  1  0
 29 30  1  0
 29 31  1  0
 31 32  1  0
 31 33  1  0
 31 34  1  0
 34 35  1  0
 34 36  1  0
 23 37  2  0
 37 38  1  0
 38 39  3  0
 37 40  1  0
 40 41  1  0
 41 42  1  0
 41 43  1  0
 40 44  2  0
 44 45  1  0
 13 46  2  0
 46 47  1  0
 47 48  1  0
 48 49  1  0
 48 50  1  0
 48 51  1  0
 46  2  1  0
 44 21  1  0
 34 24  1  0
M  END
>  <score>  (234) 
7.15414

$$$$

     RDKit          3D

 52 54  0  0  0  0  0  0  0  0999 V2000
    6.3678  140.9313   50.4770 H   0  0  0  0  0  0  0  0  0  0  0  0
    5.5138  141.2443   51.0614 C   0  0  0  0  0  0  0  0  0  0  0  0
    4.9346  142.4814   50.7882 C   0  0  0  0  0  0  0  0  0  0  0  0
    5.3177  143.0738   49.9724 H   0  0  0  0  0  0  0  0  0  0  0  0
    3.9581  142.9982   51.6418 C   0  0  0  0  0  0  0  0  0  0  0  0
    3.6006  144.0149   51.5087 H   0  0  0  0  0  0  0  0  0  0  0  0
    3.4606  142.2206   52.6907 C   0  0  0  0  0  0  0  0  0  0  0  0
    2.3924  142.7931   53.5820 C   0  0  0  0  0  0  0  0  0  0  0  0
    1.6912  143.3687   52.9717 H   0  0  0  0  0  0  0  0  0  0  0  0
    1.8584  141.9886   54.0779 H   0  0  0  0  0  0  0  0  0  0  0  0
    2.9425  143.6948   54.6415 C   0  0  0  0  0  0  0  0  0  0  0  0
    3.0679  144.9829   54.3271 N   0  0  0  0  0  0  0  0  0  0  0  0
    3.5486  145.8067   55.2337 C   0  0  0  0  0  0  0  0  0  0  0  0
    3.7190  146.9970   54.6388 N   0  0  0  0  0  0  0  0  0  0  0  0
    3.5079  146.9444   53.6536 H   0  0  0  0  0  0  0  0  0  0  0  0
    3.7446  148.2106   55.2643 C   0  0  0  0  0  0  0  0  0  0  0  0
    3.8468  148.2619   56.4801 O   0  0  0  0  0  0  0  0  0  0  0  0
    3.7197  149.4767   54.4038 C   0  0  0  0  0  0  0  0  0  0  0  0
    3.9886  150.3524   54.9858 H   0  0  0  0  0  0  0  0  0  0  0  0
    4.4035  149.3642   53.5600 H   0  0  0  0  0  0  0  0  0  0  0  0
    2.3756  149.7791   53.8609 C   0  0  0  0  0  0  0  0  0  0  0  0
    1.5921  150.6826   54.5739 C   0  0  0  0  0  0  0  0  0  0  0  0
    1.9895  151.1397   55.4696 H   0  0  0  0  0  0  0  0  0  0  0  0
    0.3322  151.0560   54.1305 C   0  0  0  0  0  0  0  0  0  0  0  0
   -0.3781  151.9751   54.8569 O   0  0  0  0  0  0  0  0  0  0  0  0
   -1.4243  151.4026   55.6437 C   0  0  0  0  0  0  0  0  0  0  0  0
   -1.0114  150.7007   56.3701 H   0  0  0  0  0  0  0  0  0  0  0  0
   -1.9367  152.2027   56.1862 H   0  0  0  0  0  0  0  0  0  0  0  0
   -2.1513  150.8750   55.0174 H   0  0  0  0  0  0  0  0  0  0  0  0
   -0.1476  150.4971   52.9356 C   0  0  0  0  0  0  0  0  0  0  0  0
   -1.8723  150.9868   52.2802 Br  0  0  0  0  0  0  0  0  0  0  0  0
    0.6569  149.6035   52.1950 C   0  0  0  0  0  0  0  0  0  0  0  0
    0.3080  149.1989   51.2481 H   0  0  0  0  0  0  0  0  0  0  0  0
    1.9329  149.2351   52.6505 C   0  0  0  0  0  0  0  0  0  0  0  0
    2.7743  148.4032   51.9457 O   0  0  0  0  0  0  0  0  0  0  0  0
    2.1634  147.2971   51.2804 C   0  0  0  0  0  0  0  0  0  0  0  0
    1.4783  146.7690   51.9532 H   0  0  0  0  0  0  0  0  0  0  0  0
    2.9500  146.6024   50.9668 H   0  0  0  0  0  0  0  0  0  0  0  0
    1.6155  147.6404   50.3984 H   0  0  0  0  0  0  0  0  0  0  0  0
    3.8927  145.4402   56.5086 C   0  0  0  0  0  0  0  0  0  0  0  0
    4.3131  146.1293   57.2277 H   0  0  0  0  0  0  0  0  0  0  0  0
    3.7462  144.1187   56.8101 C   0  0  0  0  0  0  0  0  0  0  0  0
    4.1444  143.7258   58.0287 N   0  0  0  0  0  0  0  0  0  0  0  0
    4.4990  144.4320   58.6669 H   0  0  0  0  0  0  0  0  0  0  0  0
    4.0633  142.7465   58.2921 H   0  0  0  0  0  0  0  0  0  0  0  0
    3.2721  143.2106   55.8989 C   0  0  0  0  0  0  0  0  0  0  0  0
    3.1451  141.8274   56.2215 C   0  0  0  0  0  0  0  0  0  0  0  0
    3.0404  140.6888   56.4430 N   0  0  0  0  0  0  0  0  0  0  0  0
    3.9840  140.9338   52.9037 C   0  0  0  0  0  0  0  0  0  0  0  0
    3.5918  140.3207   53.7074 H   0  0  0  0  0  0  0  0  0  0  0  0
    5.0328  140.4511   52.1046 C   0  0  0  0  0  0  0  0  0  0  0  0
    5.5148  139.4958   52.3087 H   0  0  0  0  0  0  0  0  0  0  0  0
  1  2  1  0
  2  3  2  0
  3  4  1  0
  3  5  1  0
  5  6  1  0
  5  7  2  0
  7  8  1  0
  8  9  1  0
  8 10  1  0
  8 11  1  0
 11 12  2  0
 12 13  1  0
 13 14  1  0
 14 15  1  0
 14 16  1  0
 16 17  2  0
 16 18  1  0
 18 19  1  0
 18 20  1  0
 18 21  1  0
 21 22  2  0
 22 23  1  0
 22 24  1  0
 24 25  1  0
 25 26  1  0
 26 27  1  0
 26 28  1  0
 26 29  1  0
 24 30  2  0
 30 31  1  0
 30 32  1  0
 32 33  1  0
 32 34  2  0
 34 35  1  0
 35 36  1  0
 36 37  1  0
 36 38  1  0
 36 39  1  0
 13 40  2  0
 40 41  1  0
 40 42  1  0
 42 43  1  0
 43 44  1  0
 43 45  1  0
 42 46  2  0
 46 47  1  0
 47 48  3  0
  7 49  1  0
 49 50  1  0
 49 51  2  0
 51 52  1  0
 51  2  1  0
 46 11  1  0
 34 21  1  0
M  END
>  <score>  (235) 
7.1546

$$$$

     RDKit          3D

 48 50  0  0  0  0  0  0  0  0999 V2000
    3.0489  141.5307   53.8910 H   0  0  0  0  0  0  0  0  0  0  0  0
    2.6953  142.5583   53.8448 C   0  0  0  0  0  0  0  0  0  0  0  0
    1.6832  142.9301   52.9744 C   0  0  0  0  0  0  0  0  0  0  0  0
    1.1590  144.6027   52.8288 S   0  0  0  0  0  0  0  0  0  0  0  0
    0.3259  144.1674   51.3534 C   0  0  0  0  0  0  0  0  0  0  0  0
   -0.0092  144.9217   50.4697 O   0  0  0  0  0  0  0  0  0  0  0  0
    0.1982  142.8302   51.1614 N   0  0  0  0  0  0  0  0  0  0  0  0
    0.0649  142.4749   50.2245 H   0  0  0  0  0  0  0  0  0  0  0  0
    0.9445  142.1050   52.0234 C   0  0  0  0  0  0  0  0  0  0  0  0
    0.8853  140.8973   51.9551 O   0  0  0  0  0  0  0  0  0  0  0  0
    3.2478  143.5340   54.7962 C   0  0  0  0  0  0  0  0  0  0  0  0
    3.3072  144.7957   54.3786 N   0  0  0  0  0  0  0  0  0  0  0  0
    3.6463  145.7259   55.2339 C   0  0  0  0  0  0  0  0  0  0  0  0
    3.6316  146.9229   54.6180 N   0  0  0  0  0  0  0  0  0  0  0  0
    3.3741  146.8855   53.6430 H   0  0  0  0  0  0  0  0  0  0  0  0
    3.6691  148.1190   55.2671 C   0  0  0  0  0  0  0  0  0  0  0  0
    3.8052  148.1416   56.4784 O   0  0  0  0  0  0  0  0  0  0  0  0
    3.6556  149.4243   54.4887 C   0  0  0  0  0  0  0  0  0  0  0  0
    3.8962  150.2182   55.1863 H   0  0  0  0  0  0  0  0  0  0  0  0
    4.4219  149.3975   53.7136 H   0  0  0  0  0  0  0  0  0  0  0  0
    2.3250  149.7634   53.8815 C   0  0  0  0  0  0  0  0  0  0  0  0
    1.5214  150.6777   54.5669 C   0  0  0  0  0  0  0  0  0  0  0  0
    1.8616  151.1054   55.5045 H   0  0  0  0  0  0  0  0  0  0  0  0
    0.2798  151.0611   54.0659 C   0  0  0  0  0  0  0  0  0  0  0  0
   -0.4477  151.9915   54.7573 O   0  0  0  0  0  0  0  0  0  0  0  0
   -1.4678  151.4021   55.5647 C   0  0  0  0  0  0  0  0  0  0  0  0
   -1.9702  152.1737   56.1564 H   0  0  0  0  0  0  0  0  0  0  0  0
   -2.2108  150.9013   54.9383 H   0  0  0  0  0  0  0  0  0  0  0  0
   -1.0332  150.6684   56.2471 H   0  0  0  0  0  0  0  0  0  0  0  0
   -0.1910  150.4828   52.8753 C   0  0  0  0  0  0  0  0  0  0  0  0
   -1.9316  150.9165   52.2033 Br  0  0  0  0  0  0  0  0  0  0  0  0
    0.6166  149.5714   52.1773 C   0  0  0  0  0  0  0  0  0  0  0  0
    0.2542  149.1397   51.2496 H   0  0  0  0  0  0  0  0  0  0  0  0
    1.8894  149.2171   52.6610 C   0  0  0  0  0  0  0  0  0  0  0  0
    2.7260  148.3597   51.9850 O   0  0  0  0  0  0  0  0  0  0  0  0
    2.0893  147.3076   51.2493 C   0  0  0  0  0  0  0  0  0  0  0  0
    1.5956  147.6972   50.3545 H   0  0  0  0  0  0  0  0  0  0  0  0
    1.3451  146.8043   51.8724 H   0  0  0  0  0  0  0  0  0  0  0  0
    2.8359  146.5674   50.9430 H   0  0  0  0  0  0  0  0  0  0  0  0
    3.9656  145.4751   56.5455 C   0  0  0  0  0  0  0  0  0  0  0  0
    4.2609  146.2516   57.2329 H   0  0  0  0  0  0  0  0  0  0  0  0
    3.8874  144.1782   56.9699 C   0  0  0  0  0  0  0  0  0  0  0  0
    4.1447  143.9131   58.2725 N   0  0  0  0  0  0  0  0  0  0  0  0
    4.2589  142.9525   58.5736 H   0  0  0  0  0  0  0  0  0  0  0  0
    4.5428  144.6444   58.8471 H   0  0  0  0  0  0  0  0  0  0  0  0
    3.5320  143.1724   56.1015 C   0  0  0  0  0  0  0  0  0  0  0  0
    3.3842  141.8124   56.5060 C   0  0  0  0  0  0  0  0  0  0  0  0
    3.2398  140.6936   56.7940 N   0  0  0  0  0  0  0  0  0  0  0  0
  1  2  1  0
  2  3  2  3
  3  4  1  0
  4  5  1  0
  5  6  2  0
  5  7  1  0
  7  8  1  0
  7  9  1  0
  9 10  2  0
  2 11  1  0
 11 12  2  0
 12 13  1  0
 13 14  1  0
 14 15  1  0
 14 16  1  0
 16 17  2  0
 16 18  1  0
 18 19  1  0
 18 20  1  0
 18 21  1  0
 21 22  2  0
 22 23  1  0
 22 24  1  0
 24 25  1  0
 25 26  1  0
 26 27  1  0
 26 28  1  0
 26 29  1  0
 24 30  2  0
 30 31  1  0
 30 32  1  0
 32 33  1  0
 32 34  2  0
 34 35  1  0
 35 36  1  0
 36 37  1  0
 36 38  1  0
 36 39  1  0
 13 40  2  0
 40 41  1  0
 40 42  1  0
 42 43  1  0
 43 44  1  0
 43 45  1  0
 42 46  2  0
 46 47  1  0
 47 48  3  0
  9  3  1  0
 46 11  1  0
 34 21  1  0
M  END
>  <score>  (236) 
7.15551

$$$$

     RDKit          3D

 55 57  0  0  0  0  0  0  0  0999 V2000
   -0.7361  143.7109   46.9032 H   0  0  0  0  0  0  0  0  0  0  0  0
   -0.2131  143.4798   47.8229 C   0  0  0  0  0  0  0  0  0  0  0  0
    0.1917  144.5273   48.6667 C   0  0  0  0  0  0  0  0  0  0  0  0
   -0.0274  145.5676   48.4158 H   0  0  0  0  0  0  0  0  0  0  0  0
    0.8734  144.2304   49.8610 C   0  0  0  0  0  0  0  0  0  0  0  0
    1.2159  145.0214   50.5208 H   0  0  0  0  0  0  0  0  0  0  0  0
    1.0746  142.8960   50.2527 C   0  0  0  0  0  0  0  0  0  0  0  0
    1.6475  142.5523   51.4820 N   0  0  0  0  0  0  0  0  0  0  0  0
    1.7172  141.5728   51.7271 H   0  0  0  0  0  0  0  0  0  0  0  0
    1.7520  143.4213   52.5301 C   0  0  0  0  0  0  0  0  0  0  0  0
    1.2597  144.5337   52.4927 O   0  0  0  0  0  0  0  0  0  0  0  0
    2.2210  142.8814   53.6865 N   0  0  0  0  0  0  0  0  0  0  0  0
    2.5402  141.9289   53.6426 H   0  0  0  0  0  0  0  0  0  0  0  0
    2.7862  143.7004   54.6179 C   0  0  0  0  0  0  0  0  0  0  0  0
    2.9498  144.9532   54.2459 N   0  0  0  0  0  0  0  0  0  0  0  0
    3.4912  145.7663   55.1057 C   0  0  0  0  0  0  0  0  0  0  0  0
    3.6427  146.9617   54.5243 N   0  0  0  0  0  0  0  0  0  0  0  0
    3.3595  146.9750   53.5586 H   0  0  0  0  0  0  0  0  0  0  0  0
    3.6979  148.1302   55.2133 C   0  0  0  0  0  0  0  0  0  0  0  0
    3.8000  148.1180   56.4270 O   0  0  0  0  0  0  0  0  0  0  0  0
    3.6823  149.4461   54.4553 C   0  0  0  0  0  0  0  0  0  0  0  0
    3.9317  150.2362   55.1518 H   0  0  0  0  0  0  0  0  0  0  0  0
    4.4351  149.4223   53.6680 H   0  0  0  0  0  0  0  0  0  0  0  0
    2.3434  149.7758   53.8681 C   0  0  0  0  0  0  0  0  0  0  0  0
    1.5448  150.6827   54.5647 C   0  0  0  0  0  0  0  0  0  0  0  0
    1.9017  151.1181   55.4927 H   0  0  0  0  0  0  0  0  0  0  0  0
    0.2949  151.0531   54.0815 C   0  0  0  0  0  0  0  0  0  0  0  0
   -0.4198  151.9840   54.7830 O   0  0  0  0  0  0  0  0  0  0  0  0
   -1.4472  151.4031   55.5867 C   0  0  0  0  0  0  0  0  0  0  0  0
   -1.0178  150.6798   56.2820 H   0  0  0  0  0  0  0  0  0  0  0  0
   -2.1838  150.8918   54.9613 H   0  0  0  0  0  0  0  0  0  0  0  0
   -1.9552  152.1820   56.1640 H   0  0  0  0  0  0  0  0  0  0  0  0
   -0.1822  150.4808   52.8912 C   0  0  0  0  0  0  0  0  0  0  0  0
   -1.9185  150.9405   52.2270 Br  0  0  0  0  0  0  0  0  0  0  0  0
    0.6226  149.5717   52.1853 C   0  0  0  0  0  0  0  0  0  0  0  0
    0.2617  149.1484   51.2553 H   0  0  0  0  0  0  0  0  0  0  0  0
    1.8992  149.2197   52.6572 C   0  0  0  0  0  0  0  0  0  0  0  0
    2.7406  148.3711   51.9764 O   0  0  0  0  0  0  0  0  0  0  0  0
    2.1122  147.2955   51.2700 C   0  0  0  0  0  0  0  0  0  0  0  0
    2.8727  146.5705   50.9650 H   0  0  0  0  0  0  0  0  0  0  0  0
    1.6002  147.6612   50.3755 H   0  0  0  0  0  0  0  0  0  0  0  0
    1.3877  146.7820   51.9098 H   0  0  0  0  0  0  0  0  0  0  0  0
    3.8660  145.4222   56.3727 C   0  0  0  0  0  0  0  0  0  0  0  0
    4.2861  146.1349   57.0588 H   0  0  0  0  0  0  0  0  0  0  0  0
    3.7283  144.1160   56.7203 C   0  0  0  0  0  0  0  0  0  0  0  0
    4.1750  143.7500   57.9415 N   0  0  0  0  0  0  0  0  0  0  0  0
    4.0339  142.7950   58.2594 H   0  0  0  0  0  0  0  0  0  0  0  0
    4.4211  144.4824   58.6030 H   0  0  0  0  0  0  0  0  0  0  0  0
    3.1983  143.2114   55.8371 C   0  0  0  0  0  0  0  0  0  0  0  0
    3.1112  141.8243   56.1388 C   0  0  0  0  0  0  0  0  0  0  0  0
    3.0735  140.6820   56.3643 N   0  0  0  0  0  0  0  0  0  0  0  0
    0.6742  141.8708   49.4018 C   0  0  0  0  0  0  0  0  0  0  0  0
    0.8391  140.8534   49.7411 H   0  0  0  0  0  0  0  0  0  0  0  0
    0.0506  142.1467   48.1697 C   0  0  0  0  0  0  0  0  0  0  0  0
   -0.2702  141.3445   47.5034 H   0  0  0  0  0  0  0  0  0  0  0  0
  1  2  1  0
  2  3  2  0
  3  4  1  0
  3  5  1  0
  5  6  1  0
  5  7  2  0
  7  8  1  0
  8  9  1  0
  8 10  1  0
 10 11  2  0
 10 12  1  0
 12 13  1  0
 12 14  1  0
 14 15  2  0
 15 16  1  0
 16 17  1  0
 17 18  1  0
 17 19  1  0
 19 20  2  0
 19 21  1  0
 21 22  1  0
 21 23  1  0
 21 24  1  0
 24 25  2  0
 25 26  1  0
 25 27  1  0
 27 28  1  0
 28 29  1  0
 29 30  1  0
 29 31  1  0
 29 32  1  0
 27 33  2  0
 33 34  1  0
 33 35  1  0
 35 36  1  0
 35 37  2  0
 37 38  1  0
 38 39  1  0
 39 40  1  0
 39 41  1  0
 39 42  1  0
 16 43  2  0
 43 44  1  0
 43 45  1  0
 45 46  1  0
 46 47  1  0
 46 48  1  0
 45 49  2  0
 49 50  1  0
 50 51  3  0
  7 52  1  0
 52 53  1  0
 52 54  2  0
 54 55  1  0
 54  2  1  0
 49 14  1  0
 37 24  1  0
M  END
>  <score>  (237) 
7.15774

$$$$

     RDKit          3D

 52 53  0  0  0  0  0  0  0  0999 V2000
    0.3067  149.2013   51.2514 H   0  0  0  0  0  0  0  0  0  0  0  0
    0.6582  149.6054   52.1946 C   0  0  0  0  0  0  0  0  0  0  0  0
   -0.1451  150.4993   52.9347 C   0  0  0  0  0  0  0  0  0  0  0  0
   -1.8705  150.9848   52.2771 Br  0  0  0  0  0  0  0  0  0  0  0  0
    0.3337  151.0585   54.1313 C   0  0  0  0  0  0  0  0  0  0  0  0
   -0.3791  151.9765   54.8603 O   0  0  0  0  0  0  0  0  0  0  0  0
   -1.4263  151.4041   55.6474 C   0  0  0  0  0  0  0  0  0  0  0  0
   -2.1529  150.8751   55.0216 H   0  0  0  0  0  0  0  0  0  0  0  0
   -1.0137  150.7024   56.3744 H   0  0  0  0  0  0  0  0  0  0  0  0
   -1.9418  152.2017   56.1913 H   0  0  0  0  0  0  0  0  0  0  0  0
    1.5962  150.6886   54.5729 C   0  0  0  0  0  0  0  0  0  0  0  0
    1.9896  151.1450   55.4718 H   0  0  0  0  0  0  0  0  0  0  0  0
    2.3795  149.7808   53.8596 C   0  0  0  0  0  0  0  0  0  0  0  0
    3.7247  149.4654   54.4009 C   0  0  0  0  0  0  0  0  0  0  0  0
    4.4117  149.3552   53.5597 H   0  0  0  0  0  0  0  0  0  0  0  0
    3.9969  150.3405   54.9817 H   0  0  0  0  0  0  0  0  0  0  0  0
    3.7458  148.1931   55.2597 C   0  0  0  0  0  0  0  0  0  0  0  0
    3.8479  148.2462   56.4762 O   0  0  0  0  0  0  0  0  0  0  0  0
    3.7033  146.9809   54.6296 N   0  0  0  0  0  0  0  0  0  0  0  0
    3.5122  146.9366   53.6433 H   0  0  0  0  0  0  0  0  0  0  0  0
    3.5391  145.7810   55.2037 C   0  0  0  0  0  0  0  0  0  0  0  0
    3.0549  144.9555   54.2991 N   0  0  0  0  0  0  0  0  0  0  0  0
    2.9091  143.6750   54.6423 C   0  0  0  0  0  0  0  0  0  0  0  0
    2.3751  142.7598   53.7684 O   0  0  0  0  0  0  0  0  0  0  0  0
    2.0190  143.1478   52.4255 C   0  0  0  0  0  0  0  0  0  0  0  0
    1.4055  144.0574   52.4329 H   0  0  0  0  0  0  0  0  0  0  0  0
    1.4034  142.3396   52.0172 H   0  0  0  0  0  0  0  0  0  0  0  0
    3.2222  143.3390   51.4825 C   0  0  0  0  0  0  0  0  0  0  0  0
    3.7994  144.1959   51.8482 H   0  0  0  0  0  0  0  0  0  0  0  0
    4.1128  142.0883   51.4683 C   0  0  0  0  0  0  0  0  0  0  0  0
    3.5552  141.2082   51.1226 H   0  0  0  0  0  0  0  0  0  0  0  0
    4.9642  142.2430   50.7955 H   0  0  0  0  0  0  0  0  0  0  0  0
    4.4903  141.8885   52.4767 H   0  0  0  0  0  0  0  0  0  0  0  0
    2.7597  143.6201   50.0375 C   0  0  0  0  0  0  0  0  0  0  0  0
    2.0865  144.4832   50.0036 H   0  0  0  0  0  0  0  0  0  0  0  0
    3.6268  143.8370   49.4050 H   0  0  0  0  0  0  0  0  0  0  0  0
    2.2376  142.7549   49.6095 H   0  0  0  0  0  0  0  0  0  0  0  0
    3.2655  143.2135   55.8921 C   0  0  0  0  0  0  0  0  0  0  0  0
    3.1406  141.8361   56.2254 C   0  0  0  0  0  0  0  0  0  0  0  0
    3.0349  140.6996   56.4470 N   0  0  0  0  0  0  0  0  0  0  0  0
    3.7479  144.1165   56.7876 C   0  0  0  0  0  0  0  0  0  0  0  0
    4.1426  143.7279   58.0061 N   0  0  0  0  0  0  0  0  0  0  0  0
    4.4924  144.4351   58.6467 H   0  0  0  0  0  0  0  0  0  0  0  0
    4.0542  142.7493   58.2721 H   0  0  0  0  0  0  0  0  0  0  0  0
    3.8853  145.4279   56.4781 C   0  0  0  0  0  0  0  0  0  0  0  0
    4.2995  146.1190   57.1960 H   0  0  0  0  0  0  0  0  0  0  0  0
    1.9339  149.2375   52.6488 C   0  0  0  0  0  0  0  0  0  0  0  0
    2.7761  148.4022   51.9487 O   0  0  0  0  0  0  0  0  0  0  0  0
    2.1671  147.2955   51.2811 C   0  0  0  0  0  0  0  0  0  0  0  0
    1.6137  147.6375   50.4015 H   0  0  0  0  0  0  0  0  0  0  0  0
    1.4869  146.7610   51.9540 H   0  0  0  0  0  0  0  0  0  0  0  0
    2.9532  146.6029   50.9607 H   0  0  0  0  0  0  0  0  0  0  0  0
  1  2  1  0
  2  3  2  0
  3  4  1  0
  3  5  1  0
  5  6  1  0
  6  7  1  0
  7  8  1  0
  7  9  1  0
  7 10  1  0
  5 11  2  0
 11 12  1  0
 11 13  1  0
 13 14  1  0
 14 15  1  0
 14 16  1  0
 14 17  1  0
 17 18  2  0
 17 19  1  0
 19 20  1  0
 19 21  1  0
 21 22  2  0
 22 23  1  0
 23 24  1  0
 24 25  1  0
 25 26  1  0
 25 27  1  0
 25 28  1  0
 28 29  1  0
 28 30  1  0
 30 31  1  0
 30 32  1  0
 30 33  1  0
 28 34  1  0
 34 35  1  0
 34 36  1  0
 34 37  1  0
 23 38  2  0
 38 39  1  0
 39 40  3  0
 38 41  1  0
 41 42  1  0
 42 43  1  0
 42 44  1  0
 41 45  2  0
 45 46  1  0
 13 47  2  0
 47 48  1  0
 48 49  1  0
 49 50  1  0
 49 51  1  0
 49 52  1  0
 47  2  1  0
 45 21  1  0
M  END
>  <score>  (238) 
7.15863

$$$$

     RDKit          3D

 53 55  0  0  0  0  0  0  0  0999 V2000
    0.2737  149.1618   51.2462 H   0  0  0  0  0  0  0  0  0  0  0  0
    0.6155  149.5748   52.1889 C   0  0  0  0  0  0  0  0  0  0  0  0
   -0.1929  150.4763   52.9047 C   0  0  0  0  0  0  0  0  0  0  0  0
   -1.9256  150.9604   52.2443 Br  0  0  0  0  0  0  0  0  0  0  0  0
    0.2931  151.0487   54.0921 C   0  0  0  0  0  0  0  0  0  0  0  0
   -0.4092  151.9860   54.7936 O   0  0  0  0  0  0  0  0  0  0  0  0
   -1.4338  151.4054   55.5984 C   0  0  0  0  0  0  0  0  0  0  0  0
   -2.1635  150.8880   54.9697 H   0  0  0  0  0  0  0  0  0  0  0  0
   -1.9445  152.1880   56.1669 H   0  0  0  0  0  0  0  0  0  0  0  0
   -1.0081  150.6881   56.3035 H   0  0  0  0  0  0  0  0  0  0  0  0
    1.5431  150.6856   54.5711 C   0  0  0  0  0  0  0  0  0  0  0  0
    1.9090  151.1388   55.4882 H   0  0  0  0  0  0  0  0  0  0  0  0
    2.3426  149.7894   53.8659 C   0  0  0  0  0  0  0  0  0  0  0  0
    3.7051  149.5229   54.4251 C   0  0  0  0  0  0  0  0  0  0  0  0
    4.4441  149.4613   53.6183 H   0  0  0  0  0  0  0  0  0  0  0  0
    3.9308  150.3642   55.0637 H   0  0  0  0  0  0  0  0  0  0  0  0
    3.7710  148.2750   55.2848 C   0  0  0  0  0  0  0  0  0  0  0  0
    3.8261  148.3350   56.4984 O   0  0  0  0  0  0  0  0  0  0  0  0
    3.8067  147.0831   54.6508 N   0  0  0  0  0  0  0  0  0  0  0  0
    3.4978  147.0719   53.6935 H   0  0  0  0  0  0  0  0  0  0  0  0
    3.6646  145.8923   55.2393 C   0  0  0  0  0  0  0  0  0  0  0  0
    3.2334  145.0789   54.3003 N   0  0  0  0  0  0  0  0  0  0  0  0
    3.0681  143.7645   54.5489 C   0  0  0  0  0  0  0  0  0  0  0  0
    2.6569  142.8352   53.3958 C   0  0  0  0  0  0  0  0  0  0  0  0
    2.5840  141.6182   53.5397 O   0  0  0  0  0  0  0  0  0  0  0  0
    2.3517  143.2763   52.1091 N   0  0  0  0  0  0  0  0  0  0  0  0
    2.7105  144.1897   51.8480 H   0  0  0  0  0  0  0  0  0  0  0  0
    1.7421  142.4534   51.0634 C   0  0  0  0  0  0  0  0  0  0  0  0
    1.5047  143.0651   50.1846 H   0  0  0  0  0  0  0  0  0  0  0  0
    0.7957  142.0524   51.4387 H   0  0  0  0  0  0  0  0  0  0  0  0
    2.6369  141.2830   50.6592 C   0  0  0  0  0  0  0  0  0  0  0  0
    2.7075  140.5373   51.4574 H   0  0  0  0  0  0  0  0  0  0  0  0
    3.8839  141.4994   49.7971 C   0  0  0  0  0  0  0  0  0  0  0  0
    4.1096  142.5368   49.5544 H   0  0  0  0  0  0  0  0  0  0  0  0
    4.7841  140.8876   49.9712 H   0  0  0  0  0  0  0  0  0  0  0  0
    2.6262  140.8814   49.1756 C   0  0  0  0  0  0  0  0  0  0  0  0
    2.6884  139.8351   48.8599 H   0  0  0  0  0  0  0  0  0  0  0  0
    2.0373  141.5103   48.5000 H   0  0  0  0  0  0  0  0  0  0  0  0
    3.3277  143.3191   55.8578 C   0  0  0  0  0  0  0  0  0  0  0  0
    3.1801  141.9427   56.1927 C   0  0  0  0  0  0  0  0  0  0  0  0
    3.0764  140.8107   56.4314 N   0  0  0  0  0  0  0  0  0  0  0  0
    3.7696  144.2131   56.8210 C   0  0  0  0  0  0  0  0  0  0  0  0
    4.0770  143.8052   58.0785 N   0  0  0  0  0  0  0  0  0  0  0  0
    4.0838  142.8069   58.2767 H   0  0  0  0  0  0  0  0  0  0  0  0
    4.5018  144.4658   58.7302 H   0  0  0  0  0  0  0  0  0  0  0  0
    3.9440  145.5306   56.5293 C   0  0  0  0  0  0  0  0  0  0  0  0
    4.3121  146.2108   57.2847 H   0  0  0  0  0  0  0  0  0  0  0  0
    1.8944  149.2297   52.6606 C   0  0  0  0  0  0  0  0  0  0  0  0
    2.7503  148.3995   51.9772 O   0  0  0  0  0  0  0  0  0  0  0  0
    2.1366  147.3157   51.2756 C   0  0  0  0  0  0  0  0  0  0  0  0
    1.4494  146.7812   51.9378 H   0  0  0  0  0  0  0  0  0  0  0  0
    2.9045  146.6131   50.9370 H   0  0  0  0  0  0  0  0  0  0  0  0
    1.5863  147.6763   50.4022 H   0  0  0  0  0  0  0  0  0  0  0  0
  1  2  1  0
  2  3  2  0
  3  4  1  0
  3  5  1  0
  5  6  1  0
  6  7  1  0
  7  8  1  0
  7  9  1  0
  7 10  1  0
  5 11  2  0
 11 12  1  0
 11 13  1  0
 13 14  1  0
 14 15  1  0
 14 16  1  0
 14 17  1  0
 17 18  2  0
 17 19  1  0
 19 20  1  0
 19 21  1  0
 21 22  2  0
 22 23  1  0
 23 24  1  0
 24 25  2  0
 24 26  1  0
 26 27  1  0
 26 28  1  0
 28 29  1  0
 28 30  1  0
 28 31  1  0
 31 32  1  0
 31 33  1  0
 33 34  1  0
 33 35  1  0
 33 36  1  0
 36 37  1  0
 36 38  1  0
 23 39  2  0
 39 40  1  0
 40 41  3  0
 39 42  1  0
 42 43  1  0
 43 44  1  0
 43 45  1  0
 42 46  2  0
 46 47  1  0
 13 48  2  0
 48 49  1  0
 49 50  1  0
 50 51  1  0
 50 52  1  0
 50 53  1  0
 48  2  1  0
 46 21  1  0
 36 31  1  0
M  END
>  <score>  (239) 
7.15998

$$$$

     RDKit          3D

 52 53  0  0  0  0  0  0  0  0999 V2000
    0.2512  149.1506   51.2421 H   0  0  0  0  0  0  0  0  0  0  0  0
    0.6057  149.5626   52.1834 C   0  0  0  0  0  0  0  0  0  0  0  0
   -0.2001  150.4702   52.8962 C   0  0  0  0  0  0  0  0  0  0  0  0
   -1.9376  150.9469   52.2302 Br  0  0  0  0  0  0  0  0  0  0  0  0
    0.2866  151.0452   54.0809 C   0  0  0  0  0  0  0  0  0  0  0  0
   -0.4190  151.9896   54.7726 O   0  0  0  0  0  0  0  0  0  0  0  0
   -1.4390  151.4036   55.5725 C   0  0  0  0  0  0  0  0  0  0  0  0
   -1.0066  150.6821   56.2670 H   0  0  0  0  0  0  0  0  0  0  0  0
   -1.9387  152.1830   56.1486 H   0  0  0  0  0  0  0  0  0  0  0  0
   -2.1734  150.8951   54.9431 H   0  0  0  0  0  0  0  0  0  0  0  0
    1.5302  150.6577   54.5659 C   0  0  0  0  0  0  0  0  0  0  0  0
    1.8794  151.0976   55.4886 H   0  0  0  0  0  0  0  0  0  0  0  0
    2.3353  149.7589   53.8675 C   0  0  0  0  0  0  0  0  0  0  0  0
    3.6782  149.4137   54.4438 C   0  0  0  0  0  0  0  0  0  0  0  0
    3.9181  150.1603   55.1929 H   0  0  0  0  0  0  0  0  0  0  0  0
    4.4359  149.4327   53.6512 H   0  0  0  0  0  0  0  0  0  0  0  0
    3.6820  148.0759   55.1578 C   0  0  0  0  0  0  0  0  0  0  0  0
    3.7811  148.0430   56.3746 O   0  0  0  0  0  0  0  0  0  0  0  0
    3.6210  146.9216   54.4447 N   0  0  0  0  0  0  0  0  0  0  0  0
    3.3285  146.9569   53.4816 H   0  0  0  0  0  0  0  0  0  0  0  0
    3.4901  145.7216   55.0283 C   0  0  0  0  0  0  0  0  0  0  0  0
    2.9951  144.8569   54.1820 N   0  0  0  0  0  0  0  0  0  0  0  0
    2.8621  143.6013   54.6025 C   0  0  0  0  0  0  0  0  0  0  0  0
    2.3599  142.6454   53.7711 O   0  0  0  0  0  0  0  0  0  0  0  0
    1.8666  143.0273   52.4851 C   0  0  0  0  0  0  0  0  0  0  0  0
    1.4227  141.7286   51.8293 C   0  0  0  0  0  0  0  0  0  0  0  0
    1.0664  141.9192   50.8146 H   0  0  0  0  0  0  0  0  0  0  0  0
    2.2642  141.0279   51.7849 H   0  0  0  0  0  0  0  0  0  0  0  0
    0.6077  141.2773   52.4012 H   0  0  0  0  0  0  0  0  0  0  0  0
    0.6679  143.9659   52.5995 C   0  0  0  0  0  0  0  0  0  0  0  0
   -0.1300  143.4931   53.1775 H   0  0  0  0  0  0  0  0  0  0  0  0
    0.2771  144.1895   51.6033 H   0  0  0  0  0  0  0  0  0  0  0  0
    0.9549  144.9045   53.0828 H   0  0  0  0  0  0  0  0  0  0  0  0
    2.9456  143.6679   51.6147 C   0  0  0  0  0  0  0  0  0  0  0  0
    3.8044  142.9977   51.5235 H   0  0  0  0  0  0  0  0  0  0  0  0
    3.2758  144.6217   52.0350 H   0  0  0  0  0  0  0  0  0  0  0  0
    2.5477  143.8498   50.6124 H   0  0  0  0  0  0  0  0  0  0  0  0
    3.2325  143.2020   55.8646 C   0  0  0  0  0  0  0  0  0  0  0  0
    3.1477  141.8292   56.2350 C   0  0  0  0  0  0  0  0  0  0  0  0
    3.0911  140.6903   56.4505 N   0  0  0  0  0  0  0  0  0  0  0  0
    3.7094  144.1400   56.7179 C   0  0  0  0  0  0  0  0  0  0  0  0
    4.0961  143.8011   57.9623 N   0  0  0  0  0  0  0  0  0  0  0  0
    4.0714  142.8259   58.2562 H   0  0  0  0  0  0  0  0  0  0  0  0
    4.4395  144.5231   58.5858 H   0  0  0  0  0  0  0  0  0  0  0  0
    3.8379  145.4265   56.3174 C   0  0  0  0  0  0  0  0  0  0  0  0
    4.2270  146.1617   56.9960 H   0  0  0  0  0  0  0  0  0  0  0  0
    1.8836  149.2134   52.6583 C   0  0  0  0  0  0  0  0  0  0  0  0
    2.7304  148.3819   51.9674 O   0  0  0  0  0  0  0  0  0  0  0  0
    2.1122  147.3080   51.2613 C   0  0  0  0  0  0  0  0  0  0  0  0
    1.4619  146.7415   51.9363 H   0  0  0  0  0  0  0  0  0  0  0  0
    1.5263  147.6922   50.4203 H   0  0  0  0  0  0  0  0  0  0  0  0
    2.8891  146.6367   50.8799 H   0  0  0  0  0  0  0  0  0  0  0  0
  1  2  1  0
  2  3  2  0
  3  4  1  0
  3  5  1  0
  5  6  1  0
  6  7  1  0
  7  8  1  0
  7  9  1  0
  7 10  1  0
  5 11  2  0
 11 12  1  0
 11 13  1  0
 13 14  1  0
 14 15  1  0
 14 16  1  0
 14 17  1  0
 17 18  2  0
 17 19  1  0
 19 20  1  0
 19 21  1  0
 21 22  2  0
 22 23  1  0
 23 24  1  0
 24 25  1  0
 25 26  1  0
 26 27  1  0
 26 28  1  0
 26 29  1  0
 25 30  1  0
 30 31  1  0
 30 32  1  0
 30 33  1  0
 25 34  1  0
 34 35  1  0
 34 36  1  0
 34 37  1  0
 23 38  2  0
 38 39  1  0
 39 40  3  0
 38 41  1  0
 41 42  1  0
 42 43  1  0
 42 44  1  0
 41 45  2  0
 45 46  1  0
 13 47  2  0
 47 48  1  0
 48 49  1  0
 49 50  1  0
 49 51  1  0
 49 52  1  0
 47  2  1  0
 45 21  1  0
M  END
>  <score>  (240) 
7.16048

$$$$

     RDKit          3D

 49 51  0  0  0  0  0  0  0  0999 V2000
    1.0321  144.4514   52.8698 H   0  0  0  0  0  0  0  0  0  0  0  0
    1.4182  143.4450   52.7071 C   0  0  0  0  0  0  0  0  0  0  0  0
    1.0338  142.7815   51.6083 N   0  0  0  0  0  0  0  0  0  0  0  0
    1.6179  141.6006   51.4419 C   0  0  0  0  0  0  0  0  0  0  0  0
    1.2087  140.9963   50.2954 N   0  0  0  0  0  0  0  0  0  0  0  0
    0.2776  141.2810   50.0193 H   0  0  0  0  0  0  0  0  0  0  0  0
    1.5174  140.0438   50.1204 H   0  0  0  0  0  0  0  0  0  0  0  0
    2.5228  141.0335   52.3691 C   0  0  0  0  0  0  0  0  0  0  0  0
    2.9993  140.0940   52.1472 H   0  0  0  0  0  0  0  0  0  0  0  0
    2.8260  141.6389   53.5263 N   0  0  0  0  0  0  0  0  0  0  0  0
    2.3049  142.8832   53.6521 C   0  0  0  0  0  0  0  0  0  0  0  0
    2.7781  143.7545   54.7075 C   0  0  0  0  0  0  0  0  0  0  0  0
    2.9081  145.0353   54.3645 N   0  0  0  0  0  0  0  0  0  0  0  0
    3.5014  145.8457   55.1971 C   0  0  0  0  0  0  0  0  0  0  0  0
    3.6958  147.0163   54.5656 N   0  0  0  0  0  0  0  0  0  0  0  0
    3.3939  147.0253   53.6013 H   0  0  0  0  0  0  0  0  0  0  0  0
    3.7280  148.1918   55.2257 C   0  0  0  0  0  0  0  0  0  0  0  0
    3.7923  148.2156   56.4437 O   0  0  0  0  0  0  0  0  0  0  0  0
    3.6927  149.4747   54.4334 C   0  0  0  0  0  0  0  0  0  0  0  0
    4.4386  149.4466   53.6342 H   0  0  0  0  0  0  0  0  0  0  0  0
    3.9353  150.2589   55.1332 H   0  0  0  0  0  0  0  0  0  0  0  0
    2.3361  149.7736   53.8706 C   0  0  0  0  0  0  0  0  0  0  0  0
    1.5374  150.6722   54.5705 C   0  0  0  0  0  0  0  0  0  0  0  0
    1.8960  151.1186   55.4926 H   0  0  0  0  0  0  0  0  0  0  0  0
    0.2900  151.0411   54.0836 C   0  0  0  0  0  0  0  0  0  0  0  0
   -0.4079  151.9848   54.7793 O   0  0  0  0  0  0  0  0  0  0  0  0
   -1.4329  151.4065   55.5843 C   0  0  0  0  0  0  0  0  0  0  0  0
   -1.0078  150.6849   56.2846 H   0  0  0  0  0  0  0  0  0  0  0  0
   -1.9427  152.1851   56.1585 H   0  0  0  0  0  0  0  0  0  0  0  0
   -2.1641  150.8929   54.9552 H   0  0  0  0  0  0  0  0  0  0  0  0
   -0.1995  150.4700   52.8965 C   0  0  0  0  0  0  0  0  0  0  0  0
   -1.9352  150.9543   52.2378 Br  0  0  0  0  0  0  0  0  0  0  0  0
    0.6065  149.5649   52.1862 C   0  0  0  0  0  0  0  0  0  0  0  0
    0.2630  149.1544   51.2427 H   0  0  0  0  0  0  0  0  0  0  0  0
    1.8843  149.2195   52.6640 C   0  0  0  0  0  0  0  0  0  0  0  0
    2.7402  148.3926   51.9798 O   0  0  0  0  0  0  0  0  0  0  0  0
    2.1267  147.3137   51.2711 C   0  0  0  0  0  0  0  0  0  0  0  0
    1.4265  146.7868   51.9256 H   0  0  0  0  0  0  0  0  0  0  0  0
    2.8906  146.6019   50.9418 H   0  0  0  0  0  0  0  0  0  0  0  0
    1.5908  147.6794   50.3908 H   0  0  0  0  0  0  0  0  0  0  0  0
    3.8945  145.4963   56.4657 C   0  0  0  0  0  0  0  0  0  0  0  0
    4.3360  146.2036   57.1476 H   0  0  0  0  0  0  0  0  0  0  0  0
    3.7379  144.1876   56.8224 C   0  0  0  0  0  0  0  0  0  0  0  0
    4.1837  143.7921   58.0377 N   0  0  0  0  0  0  0  0  0  0  0  0
    4.0882  142.8137   58.3058 H   0  0  0  0  0  0  0  0  0  0  0  0
    4.4893  144.5006   58.7036 H   0  0  0  0  0  0  0  0  0  0  0  0
    3.1998  143.2826   55.9439 C   0  0  0  0  0  0  0  0  0  0  0  0
    3.1481  141.8941   56.2608 C   0  0  0  0  0  0  0  0  0  0  0  0
    3.1078  140.7493   56.4615 N   0  0  0  0  0  0  0  0  0  0  0  0
  1  2  1  0
  2  3  2  0
  3  4  1  0
  4  5  1  0
  5  6  1  0
  5  7  1  0
  4  8  2  0
  8  9  1  0
  8 10  1  0
 10 11  2  0
 11 12  1  0
 12 13  2  0
 13 14  1  0
 14 15  1  0
 15 16  1  0
 15 17  1  0
 17 18  2  0
 17 19  1  0
 19 20  1  0
 19 21  1  0
 19 22  1  0
 22 23  2  0
 23 24  1  0
 23 25  1  0
 25 26  1  0
 26 27  1  0
 27 28  1  0
 27 29  1  0
 27 30  1  0
 25 31  2  0
 31 32  1  0
 31 33  1  0
 33 34  1  0
 33 35  2  0
 35 36  1  0
 36 37  1  0
 37 38  1  0
 37 39  1  0
 37 40  1  0
 14 41  2  0
 41 42  1  0
 41 43  1  0
 43 44  1  0
 44 45  1  0
 44 46  1  0
 43 47  2  0
 47 48  1  0
 48 49  3  0
 11  2  1  0
 47 12  1  0
 35 22  1  0
M  END
>  <score>  (241) 
7.16115

$$$$

     RDKit          3D

 47 48  0  0  0  0  0  0  0  0999 V2000
    1.8060  144.2833   50.0841 H   0  0  0  0  0  0  0  0  0  0  0  0
    2.7518  143.7883   50.2562 C   0  0  0  0  0  0  0  0  0  0  0  0
    3.5128  143.7454   49.4751 H   0  0  0  0  0  0  0  0  0  0  0  0
    2.9781  143.2550   51.4997 C   0  0  0  0  0  0  0  0  0  0  0  0
    3.9349  142.7896   51.7185 H   0  0  0  0  0  0  0  0  0  0  0  0
    1.8916  143.2513   52.5354 C   0  0  0  0  0  0  0  0  0  0  0  0
    1.4529  144.2476   52.6850 H   0  0  0  0  0  0  0  0  0  0  0  0
    1.0863  142.6162   52.1626 H   0  0  0  0  0  0  0  0  0  0  0  0
    2.4178  142.7086   53.7609 O   0  0  0  0  0  0  0  0  0  0  0  0
    3.0148  143.6010   54.6140 C   0  0  0  0  0  0  0  0  0  0  0  0
    3.1597  144.8655   54.2164 N   0  0  0  0  0  0  0  0  0  0  0  0
    3.5904  145.7451   55.0793 C   0  0  0  0  0  0  0  0  0  0  0  0
    3.6084  146.9652   54.5133 N   0  0  0  0  0  0  0  0  0  0  0  0
    3.3702  146.9765   53.5337 H   0  0  0  0  0  0  0  0  0  0  0  0
    3.6441  148.1356   55.2151 C   0  0  0  0  0  0  0  0  0  0  0  0
    3.7681  148.1178   56.4264 O   0  0  0  0  0  0  0  0  0  0  0  0
    3.6437  149.4746   54.4931 C   0  0  0  0  0  0  0  0  0  0  0  0
    3.8569  150.2584   55.2207 H   0  0  0  0  0  0  0  0  0  0  0  0
    4.4281  149.4769   53.7338 H   0  0  0  0  0  0  0  0  0  0  0  0
    2.3149  149.7922   53.8715 C   0  0  0  0  0  0  0  0  0  0  0  0
    1.4986  150.7038   54.5507 C   0  0  0  0  0  0  0  0  0  0  0  0
    1.8349  151.1405   55.4885 H   0  0  0  0  0  0  0  0  0  0  0  0
    0.2537  151.0689   54.0398 C   0  0  0  0  0  0  0  0  0  0  0  0
   -0.4937  151.9944   54.7197 O   0  0  0  0  0  0  0  0  0  0  0  0
   -1.4975  151.3967   55.5446 C   0  0  0  0  0  0  0  0  0  0  0  0
   -1.0550  150.6577   56.2183 H   0  0  0  0  0  0  0  0  0  0  0  0
   -2.2563  150.9035   54.9303 H   0  0  0  0  0  0  0  0  0  0  0  0
   -1.9865  152.1656   56.1498 H   0  0  0  0  0  0  0  0  0  0  0  0
   -0.2005  150.4724   52.8486 C   0  0  0  0  0  0  0  0  0  0  0  0
   -1.9386  150.8812   52.1550 Br  0  0  0  0  0  0  0  0  0  0  0  0
    0.6102  149.5467   52.1705 C   0  0  0  0  0  0  0  0  0  0  0  0
    0.2486  149.0866   51.2544 H   0  0  0  0  0  0  0  0  0  0  0  0
    1.8815  149.2059   52.6643 C   0  0  0  0  0  0  0  0  0  0  0  0
    2.7105  148.3176   52.0144 O   0  0  0  0  0  0  0  0  0  0  0  0
    2.0724  147.2894   51.2403 C   0  0  0  0  0  0  0  0  0  0  0  0
    2.8239  146.5879   50.8589 H   0  0  0  0  0  0  0  0  0  0  0  0
    1.3699  146.7311   51.8669 H   0  0  0  0  0  0  0  0  0  0  0  0
    1.5297  147.7095   50.3869 H   0  0  0  0  0  0  0  0  0  0  0  0
    3.9073  145.4515   56.3727 C   0  0  0  0  0  0  0  0  0  0  0  0
    4.2458  146.2125   57.0571 H   0  0  0  0  0  0  0  0  0  0  0  0
    3.7601  144.1586   56.7679 C   0  0  0  0  0  0  0  0  0  0  0  0
    3.9936  143.8963   58.0673 N   0  0  0  0  0  0  0  0  0  0  0  0
    4.1596  142.9267   58.3176 H   0  0  0  0  0  0  0  0  0  0  0  0
    4.4712  144.6248   58.5946 H   0  0  0  0  0  0  0  0  0  0  0  0
    3.3498  143.1868   55.8894 C   0  0  0  0  0  0  0  0  0  0  0  0
    3.2171  141.8136   56.2590 C   0  0  0  0  0  0  0  0  0  0  0  0
    3.1195  140.6840   56.5205 N   0  0  0  0  0  0  0  0  0  0  0  0
  1  2  1  0
  2  3  1  0
  2  4  2  0
  4  5  1  0
  4  6  1  0
  6  7  1  0
  6  8  1  0
  6  9  1  0
  9 10  1  0
 10 11  2  0
 11 12  1  0
 12 13  1  0
 13 14  1  0
 13 15  1  0
 15 16  2  0
 15 17  1  0
 17 18  1  0
 17 19  1  0
 17 20  1  0
 20 21  2  0
 21 22  1  0
 21 23  1  0
 23 24  1  0
 24 25  1  0
 25 26  1  0
 25 27  1  0
 25 28  1  0
 23 29  2  0
 29 30  1  0
 29 31  1  0
 31 32  1  0
 31 33  2  0
 33 34  1  0
 34 35  1  0
 35 36  1  0
 35 37  1  0
 35 38  1  0
 12 39  2  0
 39 40  1  0
 39 41  1  0
 41 42  1  0
 42 43  1  0
 42 44  1  0
 41 45  2  0
 45 46  1  0
 46 47  3  0
 45 10  1  0
 33 20  1  0
M  END
>  <score>  (242) 
7.16202

$$$$

     RDKit          3D

 45 47  0  0  0  0  0  0  0  0999 V2000
    1.7242  139.9713   52.2002 H   0  0  0  0  0  0  0  0  0  0  0  0
    1.9432  141.0242   52.2933 C   0  0  0  0  0  0  0  0  0  0  0  0
    2.5792  141.5422   53.4170 N   0  0  0  0  0  0  0  0  0  0  0  0
    2.5378  142.8620   53.4233 C   0  0  0  0  0  0  0  0  0  0  0  0
    2.9936  143.7308   54.5621 C   0  0  0  0  0  0  0  0  0  0  0  0
    3.1236  145.0415   54.3109 N   0  0  0  0  0  0  0  0  0  0  0  0
    3.5685  145.8387   55.2453 C   0  0  0  0  0  0  0  0  0  0  0  0
    3.7371  147.0109   54.6393 N   0  0  0  0  0  0  0  0  0  0  0  0
    3.4767  146.9525   53.6661 H   0  0  0  0  0  0  0  0  0  0  0  0
    3.7598  148.2134   55.2573 C   0  0  0  0  0  0  0  0  0  0  0  0
    3.8342  148.2771   56.4731 O   0  0  0  0  0  0  0  0  0  0  0  0
    3.7089  149.4765   54.4123 C   0  0  0  0  0  0  0  0  0  0  0  0
    3.9807  150.3288   55.0172 H   0  0  0  0  0  0  0  0  0  0  0  0
    4.4092  149.3962   53.5844 H   0  0  0  0  0  0  0  0  0  0  0  0
    2.3580  149.7792   53.8659 C   0  0  0  0  0  0  0  0  0  0  0  0
    1.5769  150.6870   54.5764 C   0  0  0  0  0  0  0  0  0  0  0  0
    1.9686  151.1419   55.4815 H   0  0  0  0  0  0  0  0  0  0  0  0
    0.3174  151.0451   54.1169 C   0  0  0  0  0  0  0  0  0  0  0  0
   -0.3816  151.9749   54.8364 O   0  0  0  0  0  0  0  0  0  0  0  0
   -1.4226  151.4048   55.6283 C   0  0  0  0  0  0  0  0  0  0  0  0
   -1.9365  152.1986   56.1766 H   0  0  0  0  0  0  0  0  0  0  0  0
   -2.1471  150.8808   55.0004 H   0  0  0  0  0  0  0  0  0  0  0  0
   -1.0101  150.6954   56.3465 H   0  0  0  0  0  0  0  0  0  0  0  0
   -0.1630  150.4866   52.9168 C   0  0  0  0  0  0  0  0  0  0  0  0
   -1.8963  150.9837   52.2727 Br  0  0  0  0  0  0  0  0  0  0  0  0
    0.6386  149.5862   52.1869 C   0  0  0  0  0  0  0  0  0  0  0  0
    0.2960  149.1860   51.2384 H   0  0  0  0  0  0  0  0  0  0  0  0
    1.9123  149.2277   52.6563 C   0  0  0  0  0  0  0  0  0  0  0  0
    2.7667  148.4068   51.9580 O   0  0  0  0  0  0  0  0  0  0  0  0
    2.1564  147.3059   51.2813 C   0  0  0  0  0  0  0  0  0  0  0  0
    2.9320  146.6006   50.9662 H   0  0  0  0  0  0  0  0  0  0  0  0
    1.6131  147.6498   50.3963 H   0  0  0  0  0  0  0  0  0  0  0  0
    1.4637  146.7815   51.9482 H   0  0  0  0  0  0  0  0  0  0  0  0
    3.8943  145.4617   56.5140 C   0  0  0  0  0  0  0  0  0  0  0  0
    4.3111  146.1277   57.2486 H   0  0  0  0  0  0  0  0  0  0  0  0
    3.7419  144.1376   56.7923 C   0  0  0  0  0  0  0  0  0  0  0  0
    4.1251  143.7438   58.0249 N   0  0  0  0  0  0  0  0  0  0  0  0
    4.4905  144.4363   58.6682 H   0  0  0  0  0  0  0  0  0  0  0  0
    4.0700  142.7669   58.2897 H   0  0  0  0  0  0  0  0  0  0  0  0
    3.2871  143.2384   55.8430 C   0  0  0  0  0  0  0  0  0  0  0  0
    3.1484  141.8535   56.1683 C   0  0  0  0  0  0  0  0  0  0  0  0
    3.0577  140.7300   56.4623 N   0  0  0  0  0  0  0  0  0  0  0  0
    1.8374  143.5633   51.9539 S   0  0  0  0  0  0  0  0  0  0  0  0
    1.4602  141.9494   51.4129 C   0  0  0  0  0  0  0  0  0  0  0  0
    0.8912  141.6985   50.5188 H   0  0  0  0  0  0  0  0  0  0  0  0
  1  2  1  0
  2  3  1  0
  3  4  2  0
  4  5  1  0
  5  6  2  0
  6  7  1  0
  7  8  1  0
  8  9  1  0
  8 10  1  0
 10 11  2  0
 10 12  1  0
 12 13  1  0
 12 14  1  0
 12 15  1  0
 15 16  2  0
 16 17  1  0
 16 18  1  0
 18 19  1  0
 19 20  1  0
 20 21  1  0
 20 22  1  0
 20 23  1  0
 18 24  2  0
 24 25  1  0
 24 26  1  0
 26 27  1  0
 26 28  2  0
 28 29  1  0
 29 30  1  0
 30 31  1  0
 30 32  1  0
 30 33  1  0
  7 34  2  0
 34 35  1  0
 34 36  1  0
 36 37  1  0
 37 38  1  0
 37 39  1  0
 36 40  2  0
 40 41  1  0
 41 42  3  0
  4 43  1  0
 43 44  1  0
 44 45  1  0
 44  2  2  0
 40  5  1  0
 28 15  1  0
M  END
>  <score>  (243) 
7.16485

$$$$

     RDKit          3D

 52 54  0  0  0  0  0  0  0  0999 V2000
    0.9318  141.3764   50.3205 H   0  0  0  0  0  0  0  0  0  0  0  0
    1.5087  141.8017   51.1375 C   0  0  0  0  0  0  0  0  0  0  0  0
    1.0113  141.7466   52.3811 N   0  0  0  0  0  0  0  0  0  0  0  0
    1.7339  142.2959   53.3631 C   0  0  0  0  0  0  0  0  0  0  0  0
    1.3513  142.2459   54.3692 H   0  0  0  0  0  0  0  0  0  0  0  0
    2.9193  142.9584   53.1571 C   0  0  0  0  0  0  0  0  0  0  0  0
    3.3888  143.7315   54.2877 C   0  0  0  0  0  0  0  0  0  0  0  0
    3.5288  145.0204   54.0236 N   0  0  0  0  0  0  0  0  0  0  0  0
    3.7550  145.8507   55.0050 C   0  0  0  0  0  0  0  0  0  0  0  0
    3.7456  147.1011   54.5105 N   0  0  0  0  0  0  0  0  0  0  0  0
    3.5267  147.1577   53.5251 H   0  0  0  0  0  0  0  0  0  0  0  0
    3.6906  148.2322   55.2566 C   0  0  0  0  0  0  0  0  0  0  0  0
    3.7920  148.1932   56.4713 O   0  0  0  0  0  0  0  0  0  0  0  0
    3.6468  149.5542   54.5165 C   0  0  0  0  0  0  0  0  0  0  0  0
    4.4271  149.5386   53.7607 H   0  0  0  0  0  0  0  0  0  0  0  0
    3.8571  150.3716   55.2021 H   0  0  0  0  0  0  0  0  0  0  0  0
    2.3128  149.8171   53.8786 C   0  0  0  0  0  0  0  0  0  0  0  0
    1.4862  150.7125   54.5546 C   0  0  0  0  0  0  0  0  0  0  0  0
    1.8168  151.1411   55.4961 H   0  0  0  0  0  0  0  0  0  0  0  0
    0.2465  151.0719   54.0403 C   0  0  0  0  0  0  0  0  0  0  0  0
   -0.4944  151.9975   54.7217 O   0  0  0  0  0  0  0  0  0  0  0  0
   -1.4919  151.4015   55.5509 C   0  0  0  0  0  0  0  0  0  0  0  0
   -1.9852  152.1707   56.1543 H   0  0  0  0  0  0  0  0  0  0  0  0
   -2.2457  150.8999   54.9391 H   0  0  0  0  0  0  0  0  0  0  0  0
   -1.0376  150.6661   56.2188 H   0  0  0  0  0  0  0  0  0  0  0  0
   -0.2083  150.4734   52.8541 C   0  0  0  0  0  0  0  0  0  0  0  0
   -1.9456  150.8878   52.1666 Br  0  0  0  0  0  0  0  0  0  0  0  0
    0.6057  149.5519   52.1772 C   0  0  0  0  0  0  0  0  0  0  0  0
    0.2370  149.0924   51.2640 H   0  0  0  0  0  0  0  0  0  0  0  0
    1.8849  149.2228   52.6686 C   0  0  0  0  0  0  0  0  0  0  0  0
    2.7191  148.3463   52.0087 O   0  0  0  0  0  0  0  0  0  0  0  0
    2.0821  147.3037   51.2521 C   0  0  0  0  0  0  0  0  0  0  0  0
    1.3753  146.7502   51.8773 H   0  0  0  0  0  0  0  0  0  0  0  0
    2.8365  146.5991   50.8877 H   0  0  0  0  0  0  0  0  0  0  0  0
    1.5424  147.7090   50.3913 H   0  0  0  0  0  0  0  0  0  0  0  0
    3.8983  145.4812   56.3125 C   0  0  0  0  0  0  0  0  0  0  0  0
    4.1011  146.2140   57.0786 H   0  0  0  0  0  0  0  0  0  0  0  0
    3.7232  144.1586   56.5923 C   0  0  0  0  0  0  0  0  0  0  0  0
    3.8471  143.7853   57.8850 N   0  0  0  0  0  0  0  0  0  0  0  0
    4.3359  144.4493   58.4895 H   0  0  0  0  0  0  0  0  0  0  0  0
    4.0273  142.7961   58.0156 H   0  0  0  0  0  0  0  0  0  0  0  0
    3.4447  143.2452   55.5925 C   0  0  0  0  0  0  0  0  0  0  0  0
    3.2125  141.8688   55.8863 C   0  0  0  0  0  0  0  0  0  0  0  0
    3.0282  140.7407   56.1016 N   0  0  0  0  0  0  0  0  0  0  0  0
    3.4553  143.0092   51.8554 C   0  0  0  0  0  0  0  0  0  0  0  0
    4.3676  143.5654   51.6595 H   0  0  0  0  0  0  0  0  0  0  0  0
    2.7598  142.3586   50.8243 C   0  0  0  0  0  0  0  0  0  0  0  0
    3.2670  142.3023   49.5409 O   0  0  0  0  0  0  0  0  0  0  0  0
    2.5459  141.4220   48.6640 C   0  0  0  0  0  0  0  0  0  0  0  0
    2.5962  140.3967   49.0384 H   0  0  0  0  0  0  0  0  0  0  0  0
    2.9474  141.4565   47.6489 H   0  0  0  0  0  0  0  0  0  0  0  0
    1.4952  141.7132   48.6295 H   0  0  0  0  0  0  0  0  0  0  0  0
  1  2  1  0
  2  3  2  0
  3  4  1  0
  4  5  1  0
  4  6  2  0
  6  7  1  0
  7  8  2  0
  8  9  1  0
  9 10  1  0
 10 11  1  0
 10 12  1  0
 12 13  2  0
 12 14  1  0
 14 15  1  0
 14 16  1  0
 14 17  1  0
 17 18  2  0
 18 19  1  0
 18 20  1  0
 20 21  1  0
 21 22  1  0
 22 23  1  0
 22 24  1  0
 22 25  1  0
 20 26  2  0
 26 27  1  0
 26 28  1  0
 28 29  1  0
 28 30  2  0
 30 31  1  0
 31 32  1  0
 32 33  1  0
 32 34  1  0
 32 35  1  0
  9 36  2  0
 36 37  1  0
 36 38  1  0
 38 39  1  0
 39 40  1  0
 39 41  1  0
 38 42  2  0
 42 43  1  0
 43 44  3  0
  6 45  1  0
 45 46  1  0
 45 47  2  0
 47 48  1  0
 48 49  1  0
 49 50  1  0
 49 51  1  0
 49 52  1  0
 47  2  1  0
 42  7  1  0
 30 17  1  0
M  END
>  <score>  (244) 
7.16773

$$$$

     RDKit          3D

 52 54  0  0  0  0  0  0  0  0999 V2000
    6.1750  141.1792   50.0149 H   0  0  0  0  0  0  0  0  0  0  0  0
    5.5223  140.9960   50.8607 C   0  0  0  0  0  0  0  0  0  0  0  0
    4.5847  141.9562   51.2602 C   0  0  0  0  0  0  0  0  0  0  0  0
    4.5665  142.9023   50.7166 H   0  0  0  0  0  0  0  0  0  0  0  0
    3.7097  141.6921   52.3441 C   0  0  0  0  0  0  0  0  0  0  0  0
    2.3948  142.9005   52.8129 S   0  0  0  0  0  0  0  0  0  0  0  0
    1.1593  142.1820   53.1759 O   0  0  0  0  0  0  0  0  0  0  0  0
    2.0568  143.7143   51.6273 O   0  0  0  0  0  0  0  0  0  0  0  0
    3.0207  143.9216   54.2843 C   0  0  0  0  0  0  0  0  0  0  0  0
    3.2747  145.2396   54.0951 N   0  0  0  0  0  0  0  0  0  0  0  0
    3.6728  146.0181   55.0739 C   0  0  0  0  0  0  0  0  0  0  0  0
    3.8344  147.2536   54.5750 N   0  0  0  0  0  0  0  0  0  0  0  0
    3.6575  147.3225   53.5816 H   0  0  0  0  0  0  0  0  0  0  0  0
    3.6943  148.3709   55.3277 C   0  0  0  0  0  0  0  0  0  0  0  0
    3.6797  148.2952   56.5431 O   0  0  0  0  0  0  0  0  0  0  0  0
    3.5635  149.7080   54.6267 C   0  0  0  0  0  0  0  0  0  0  0  0
    3.6675  150.4802   55.3882 H   0  0  0  0  0  0  0  0  0  0  0  0
    4.3818  149.8241   53.9148 H   0  0  0  0  0  0  0  0  0  0  0  0
    2.2332  149.8903   53.9307 C   0  0  0  0  0  0  0  0  0  0  0  0
    1.3548  150.8214   54.5043 C   0  0  0  0  0  0  0  0  0  0  0  0
    1.6390  151.3544   55.4074 H   0  0  0  0  0  0  0  0  0  0  0  0
    0.1034  151.0818   53.9480 C   0  0  0  0  0  0  0  0  0  0  0  0
   -0.7180  151.9877   54.5624 O   0  0  0  0  0  0  0  0  0  0  0  0
   -1.6396  151.3733   55.4691 C   0  0  0  0  0  0  0  0  0  0  0  0
   -1.1379  150.6218   56.0861 H   0  0  0  0  0  0  0  0  0  0  0  0
   -2.0694  152.1304   56.1327 H   0  0  0  0  0  0  0  0  0  0  0  0
   -2.4519  150.8906   54.9166 H   0  0  0  0  0  0  0  0  0  0  0  0
   -0.2816  150.4065   52.7837 C   0  0  0  0  0  0  0  0  0  0  0  0
   -1.9866  150.7335   51.9775 Br  0  0  0  0  0  0  0  0  0  0  0  0
    0.5916  149.4769   52.2077 C   0  0  0  0  0  0  0  0  0  0  0  0
    0.2953  148.9531   51.3100 H   0  0  0  0  0  0  0  0  0  0  0  0
    1.8477  149.1837   52.7653 C   0  0  0  0  0  0  0  0  0  0  0  0
    2.6673  148.2240   52.2018 O   0  0  0  0  0  0  0  0  0  0  0  0
    2.0220  147.3266   51.2750 C   0  0  0  0  0  0  0  0  0  0  0  0
    1.5347  147.8803   50.4656 H   0  0  0  0  0  0  0  0  0  0  0  0
    2.7489  146.6468   50.8243 H   0  0  0  0  0  0  0  0  0  0  0  0
    1.2644  146.7256   51.7900 H   0  0  0  0  0  0  0  0  0  0  0  0
    3.8448  145.5975   56.3603 C   0  0  0  0  0  0  0  0  0  0  0  0
    4.1631  146.2709   57.1402 H   0  0  0  0  0  0  0  0  0  0  0  0
    3.6302  144.2764   56.6099 C   0  0  0  0  0  0  0  0  0  0  0  0
    3.8634  143.9076   57.9010 N   0  0  0  0  0  0  0  0  0  0  0  0
    4.3115  144.6054   58.4935 H   0  0  0  0  0  0  0  0  0  0  0  0
    4.0622  142.9316   58.0852 H   0  0  0  0  0  0  0  0  0  0  0  0
    3.2272  143.4015   55.5950 C   0  0  0  0  0  0  0  0  0  0  0  0
    3.0856  142.0117   55.9036 C   0  0  0  0  0  0  0  0  0  0  0  0
    3.0213  140.8776   56.1566 N   0  0  0  0  0  0  0  0  0  0  0  0
    3.8505  140.4866   53.0523 C   0  0  0  0  0  0  0  0  0  0  0  0
    3.2250  140.2139   53.9047 H   0  0  0  0  0  0  0  0  0  0  0  0
    4.8065  139.5576   52.6532 C   0  0  0  0  0  0  0  0  0  0  0  0
    4.9088  138.6367   53.2017 H   0  0  0  0  0  0  0  0  0  0  0  0
    5.6343  139.7909   51.5575 C   0  0  0  0  0  0  0  0  0  0  0  0
    6.7753  138.5729   51.0511 Cl  0  0  0  0  0  0  0  0  0  0  0  0
  1  2  1  0
  2  3  2  0
  3  4  1  0
  3  5  1  0
  5  6  1  0
  6  7  2  0
  6  8  2  0
  6  9  1  0
  9 10  2  0
 10 11  1  0
 11 12  1  0
 12 13  1  0
 12 14  1  0
 14 15  2  0
 14 16  1  0
 16 17  1  0
 16 18  1  0
 16 19  1  0
 19 20  2  0
 20 21  1  0
 20 22  1  0
 22 23  1  0
 23 24  1  0
 24 25  1  0
 24 26  1  0
 24 27  1  0
 22 28  2  0
 28 29  1  0
 28 30  1  0
 30 31  1  0
 30 32  2  0
 32 33  1  0
 33 34  1  0
 34 35  1  0
 34 36  1  0
 34 37  1  0
 11 38  2  0
 38 39  1  0
 38 40  1  0
 40 41  1  0
 41 42  1  0
 41 43  1  0
 40 44  2  0
 44 45  1  0
 45 46  3  0
  5 47  2  0
 47 48  1  0
 47 49  1  0
 49 50  1  0
 49 51  2  0
 51 52  1  0
 51  2  1  0
 44  9  1  0
 32 19  1  0
M  END
>  <score>  (245) 
7.17095

$$$$

     RDKit          3D

 51 53  0  0  0  0  0  0  0  0999 V2000
   -0.0104  140.9491   52.3421 H   0  0  0  0  0  0  0  0  0  0  0  0
    0.7646  141.6820   52.1532 C   0  0  0  0  0  0  0  0  0  0  0  0
    1.3745  142.2634   53.2006 N   0  0  0  0  0  0  0  0  0  0  0  0
    2.3729  143.1520   53.0134 C   0  0  0  0  0  0  0  0  0  0  0  0
    2.9654  143.9019   54.1844 C   0  0  0  0  0  0  0  0  0  0  0  0
    3.2779  145.1846   53.9567 N   0  0  0  0  0  0  0  0  0  0  0  0
    3.7048  145.9405   54.9357 C   0  0  0  0  0  0  0  0  0  0  0  0
    3.8681  147.1783   54.4714 N   0  0  0  0  0  0  0  0  0  0  0  0
    3.6580  147.2477   53.4887 H   0  0  0  0  0  0  0  0  0  0  0  0
    3.7243  148.2878   55.2399 C   0  0  0  0  0  0  0  0  0  0  0  0
    3.7480  148.2174   56.4574 O   0  0  0  0  0  0  0  0  0  0  0  0
    3.6404  149.6263   54.5308 C   0  0  0  0  0  0  0  0  0  0  0  0
    4.4327  149.6921   53.7797 H   0  0  0  0  0  0  0  0  0  0  0  0
    3.7828  150.4185   55.2659 H   0  0  0  0  0  0  0  0  0  0  0  0
    2.2989  149.8448   53.8919 C   0  0  0  0  0  0  0  0  0  0  0  0
    1.4539  150.7398   54.5504 C   0  0  0  0  0  0  0  0  0  0  0  0
    1.7753  151.2007   55.4811 H   0  0  0  0  0  0  0  0  0  0  0  0
    0.2109  151.0725   54.0246 C   0  0  0  0  0  0  0  0  0  0  0  0
   -0.5467  152.0008   54.6818 O   0  0  0  0  0  0  0  0  0  0  0  0
   -1.5218  151.3925   55.5284 C   0  0  0  0  0  0  0  0  0  0  0  0
   -2.2906  150.8970   54.9285 H   0  0  0  0  0  0  0  0  0  0  0  0
   -1.0593  150.6535   56.1890 H   0  0  0  0  0  0  0  0  0  0  0  0
   -1.9970  152.1574   56.1465 H   0  0  0  0  0  0  0  0  0  0  0  0
   -0.2250  150.4573   52.8402 C   0  0  0  0  0  0  0  0  0  0  0  0
   -1.9576  150.8544   52.1298 Br  0  0  0  0  0  0  0  0  0  0  0  0
    0.6038  149.5293   52.1901 C   0  0  0  0  0  0  0  0  0  0  0  0
    0.2633  149.0528   51.2754 H   0  0  0  0  0  0  0  0  0  0  0  0
    1.8784  149.2140   52.6977 C   0  0  0  0  0  0  0  0  0  0  0  0
    2.7124  148.3218   52.0574 O   0  0  0  0  0  0  0  0  0  0  0  0
    2.0661  147.3145   51.2585 C   0  0  0  0  0  0  0  0  0  0  0  0
    1.3528  146.7529   51.8705 H   0  0  0  0  0  0  0  0  0  0  0  0
    2.8091  146.6116   50.8666 H   0  0  0  0  0  0  0  0  0  0  0  0
    1.5309  147.7553   50.4098 H   0  0  0  0  0  0  0  0  0  0  0  0
    3.8792  145.5182   56.2141 C   0  0  0  0  0  0  0  0  0  0  0  0
    4.2393  146.1792   56.9838 H   0  0  0  0  0  0  0  0  0  0  0  0
    3.6015  144.2109   56.4681 C   0  0  0  0  0  0  0  0  0  0  0  0
    3.7877  143.7822   57.7379 N   0  0  0  0  0  0  0  0  0  0  0  0
    4.3144  144.4151   58.3297 H   0  0  0  0  0  0  0  0  0  0  0  0
    3.9320  142.7845   57.8632 H   0  0  0  0  0  0  0  0  0  0  0  0
    3.1533  143.3642   55.4713 C   0  0  0  0  0  0  0  0  0  0  0  0
    2.9802  141.9747   55.7390 C   0  0  0  0  0  0  0  0  0  0  0  0
    2.9333  140.8368   55.9751 N   0  0  0  0  0  0  0  0  0  0  0  0
    2.8034  143.4090   51.6942 C   0  0  0  0  0  0  0  0  0  0  0  0
    3.6234  144.0886   51.5022 H   0  0  0  0  0  0  0  0  0  0  0  0
    2.1804  142.8168   50.6018 C   0  0  0  0  0  0  0  0  0  0  0  0
    2.6727  143.0707   49.2093 C   0  0  0  0  0  0  0  0  0  0  0  0
    3.6703  143.5152   49.2235 H   0  0  0  0  0  0  0  0  0  0  0  0
    1.9954  143.7556   48.6971 H   0  0  0  0  0  0  0  0  0  0  0  0
    2.7396  142.1338   48.6505 H   0  0  0  0  0  0  0  0  0  0  0  0
    1.1111  141.9713   50.8411 C   0  0  0  0  0  0  0  0  0  0  0  0
    0.5820  141.5228   50.0124 H   0  0  0  0  0  0  0  0  0  0  0  0
  1  2  1  0
  2  3  2  0
  3  4  1  0
  4  5  1  0
  5  6  2  0
  6  7  1  0
  7  8  1  0
  8  9  1  0
  8 10  1  0
 10 11  2  0
 10 12  1  0
 12 13  1  0
 12 14  1  0
 12 15  1  0
 15 16  2  0
 16 17  1  0
 16 18  1  0
 18 19  1  0
 19 20  1  0
 20 21  1  0
 20 22  1  0
 20 23  1  0
 18 24  2  0
 24 25  1  0
 24 26  1  0
 26 27  1  0
 26 28  2  0
 28 29  1  0
 29 30  1  0
 30 31  1  0
 30 32  1  0
 30 33  1  0
  7 34  2  0
 34 35  1  0
 34 36  1  0
 36 37  1  0
 37 38  1  0
 37 39  1  0
 36 40  2  0
 40 41  1  0
 41 42  3  0
  4 43  2  0
 43 44  1  0
 43 45  1  0
 45 46  1  0
 46 47  1  0
 46 48  1  0
 46 49  1  0
 45 50  2  0
 50 51  1  0
 50  2  1  0
 40  5  1  0
 28 15  1  0
M  END
>  <score>  (246) 
7.17432

$$$$

     RDKit          3D

 52 54  0  0  0  0  0  0  0  0999 V2000
    5.3864  139.5031   52.2384 H   0  0  0  0  0  0  0  0  0  0  0  0
    4.9238  140.4720   52.0530 C   0  0  0  0  0  0  0  0  0  0  0  0
    3.9615  140.9799   52.9358 C   0  0  0  0  0  0  0  0  0  0  0  0
    3.6369  140.4094   53.7954 H   0  0  0  0  0  0  0  0  0  0  0  0
    3.4219  142.2511   52.7369 C   0  0  0  0  0  0  0  0  0  0  0  0
    2.3495  142.8154   53.6353 C   0  0  0  0  0  0  0  0  0  0  0  0
    1.7986  142.0331   54.1443 H   0  0  0  0  0  0  0  0  0  0  0  0
    1.6278  143.3803   53.0460 H   0  0  0  0  0  0  0  0  0  0  0  0
    2.9305  143.7130   54.6647 C   0  0  0  0  0  0  0  0  0  0  0  0
    3.0833  144.9845   54.3235 N   0  0  0  0  0  0  0  0  0  0  0  0
    3.5759  145.8093   55.2089 C   0  0  0  0  0  0  0  0  0  0  0  0
    3.7190  146.9921   54.5969 N   0  0  0  0  0  0  0  0  0  0  0  0
    3.4483  146.9678   53.6254 H   0  0  0  0  0  0  0  0  0  0  0  0
    3.7438  148.1852   55.2325 C   0  0  0  0  0  0  0  0  0  0  0  0
    3.8159  148.2361   56.4460 O   0  0  0  0  0  0  0  0  0  0  0  0
    3.6981  149.4607   54.4170 C   0  0  0  0  0  0  0  0  0  0  0  0
    3.9683  150.2752   55.0668 H   0  0  0  0  0  0  0  0  0  0  0  0
    4.4194  149.4054   53.6047 H   0  0  0  0  0  0  0  0  0  0  0  0
    2.3458  149.7694   53.8698 C   0  0  0  0  0  0  0  0  0  0  0  0
    1.5667  150.6766   54.5799 C   0  0  0  0  0  0  0  0  0  0  0  0
    1.9507  151.1276   55.4936 H   0  0  0  0  0  0  0  0  0  0  0  0
    0.3120  151.0374   54.1061 C   0  0  0  0  0  0  0  0  0  0  0  0
   -0.3831  151.9734   54.8144 O   0  0  0  0  0  0  0  0  0  0  0  0
   -1.4207  151.4059   55.6131 C   0  0  0  0  0  0  0  0  0  0  0  0
   -1.0081  150.6913   56.3257 H   0  0  0  0  0  0  0  0  0  0  0  0
   -1.9360  152.1940   56.1695 H   0  0  0  0  0  0  0  0  0  0  0  0
   -2.1465  150.8855   54.9855 H   0  0  0  0  0  0  0  0  0  0  0  0
   -0.1766  150.4800   52.9095 C   0  0  0  0  0  0  0  0  0  0  0  0
   -1.9112  150.9796   52.2651 Br  0  0  0  0  0  0  0  0  0  0  0  0
    0.6246  149.5795   52.1847 C   0  0  0  0  0  0  0  0  0  0  0  0
    0.2874  149.1791   51.2338 H   0  0  0  0  0  0  0  0  0  0  0  0
    1.8981  149.2214   52.6593 C   0  0  0  0  0  0  0  0  0  0  0  0
    2.7585  148.4074   51.9619 O   0  0  0  0  0  0  0  0  0  0  0  0
    2.1502  147.3102   51.2772 C   0  0  0  0  0  0  0  0  0  0  0  0
    2.9186  146.6050   50.9486 H   0  0  0  0  0  0  0  0  0  0  0  0
    1.5985  147.6551   50.3996 H   0  0  0  0  0  0  0  0  0  0  0  0
    1.4651  146.7824   51.9455 H   0  0  0  0  0  0  0  0  0  0  0  0
    3.9071  145.4645   56.4930 C   0  0  0  0  0  0  0  0  0  0  0  0
    4.2981  146.1597   57.2185 H   0  0  0  0  0  0  0  0  0  0  0  0
    3.7578  144.1481   56.8131 C   0  0  0  0  0  0  0  0  0  0  0  0
    4.1338  143.7619   58.0462 N   0  0  0  0  0  0  0  0  0  0  0  0
    4.0795  142.7806   58.2971 H   0  0  0  0  0  0  0  0  0  0  0  0
    4.4967  144.4500   58.6965 H   0  0  0  0  0  0  0  0  0  0  0  0
    3.2718  143.2374   55.9120 C   0  0  0  0  0  0  0  0  0  0  0  0
    3.1565  141.8507   56.2151 C   0  0  0  0  0  0  0  0  0  0  0  0
    3.0674  140.7080   56.4264 N   0  0  0  0  0  0  0  0  0  0  0  0
    3.8908  143.0222   51.6740 C   0  0  0  0  0  0  0  0  0  0  0  0
    3.5122  144.0283   51.5837 H   0  0  0  0  0  0  0  0  0  0  0  0
    4.7850  142.5047   50.7328 C   0  0  0  0  0  0  0  0  0  0  0  0
    5.0846  143.1016   49.8698 H   0  0  0  0  0  0  0  0  0  0  0  0
    5.2842  141.2130   50.9205 C   0  0  0  0  0  0  0  0  0  0  0  0
    6.0908  140.6686   49.9950 F   0  0  0  0  0  0  0  0  0  0  0  0
  1  2  1  0
  2  3  2  0
  3  4  1  0
  3  5  1  0
  5  6  1  0
  6  7  1  0
  6  8  1  0
  6  9  1  0
  9 10  2  0
 10 11  1  0
 11 12  1  0
 12 13  1  0
 12 14  1  0
 14 15  2  0
 14 16  1  0
 16 17  1  0
 16 18  1  0
 16 19  1  0
 19 20  2  0
 20 21  1  0
 20 22  1  0
 22 23  1  0
 23 24  1  0
 24 25  1  0
 24 26  1  0
 24 27  1  0
 22 28  2  0
 28 29  1  0
 28 30  1  0
 30 31  1  0
 30 32  2  0
 32 33  1  0
 33 34  1  0
 34 35  1  0
 34 36  1  0
 34 37  1  0
 11 38  2  0
 38 39  1  0
 38 40  1  0
 40 41  1  0
 41 42  1  0
 41 43  1  0
 40 44  2  0
 44 45  1  0
 45 46  3  0
  5 47  2  0
 47 48  1  0
 47 49  1  0
 49 50  1  0
 49 51  2  0
 51 52  1  0
 51  2  1  0
 44  9  1  0
 32 19  1  0
M  END
>  <score>  (247) 
7.17496

$$$$

     RDKit          3D

 60 61  0  0  0  0  0  0  0  0999 V2000
    0.2627  149.0855   51.2601 H   0  0  0  0  0  0  0  0  0  0  0  0
    0.6149  149.5406   52.1777 C   0  0  0  0  0  0  0  0  0  0  0  0
   -0.2006  150.4635   52.8512 C   0  0  0  0  0  0  0  0  0  0  0  0
   -1.9324  150.8825   52.1515 Br  0  0  0  0  0  0  0  0  0  0  0  0
    0.2525  151.0606   54.0381 C   0  0  0  0  0  0  0  0  0  0  0  0
   -0.4926  151.9863   54.7174 O   0  0  0  0  0  0  0  0  0  0  0  0
   -1.4986  151.3931   55.5414 C   0  0  0  0  0  0  0  0  0  0  0  0
   -1.9829  152.1642   56.1482 H   0  0  0  0  0  0  0  0  0  0  0  0
   -1.0543  150.6542   56.2124 H   0  0  0  0  0  0  0  0  0  0  0  0
   -2.2590  150.9001   54.9283 H   0  0  0  0  0  0  0  0  0  0  0  0
    1.4989  150.7022   54.5453 C   0  0  0  0  0  0  0  0  0  0  0  0
    1.8322  151.1480   55.4780 H   0  0  0  0  0  0  0  0  0  0  0  0
    2.3155  149.7849   53.8740 C   0  0  0  0  0  0  0  0  0  0  0  0
    3.6433  149.4605   54.4998 C   0  0  0  0  0  0  0  0  0  0  0  0
    4.4334  149.4843   53.7476 H   0  0  0  0  0  0  0  0  0  0  0  0
    3.8543  150.2293   55.2414 H   0  0  0  0  0  0  0  0  0  0  0  0
    3.6505  148.1119   55.2051 C   0  0  0  0  0  0  0  0  0  0  0  0
    3.7709  148.0764   56.4159 O   0  0  0  0  0  0  0  0  0  0  0  0
    3.6018  146.9491   54.4860 N   0  0  0  0  0  0  0  0  0  0  0  0
    3.3618  146.9826   53.5097 H   0  0  0  0  0  0  0  0  0  0  0  0
    3.5521  145.7252   55.0471 C   0  0  0  0  0  0  0  0  0  0  0  0
    3.0970  144.8361   54.2028 N   0  0  0  0  0  0  0  0  0  0  0  0
    2.9573  143.5803   54.6337 C   0  0  0  0  0  0  0  0  0  0  0  0
    2.3647  142.6540   53.8194 O   0  0  0  0  0  0  0  0  0  0  0  0
    1.9540  143.1282   52.5271 C   0  0  0  0  0  0  0  0  0  0  0  0
    1.1878  142.4757   52.1028 H   0  0  0  0  0  0  0  0  0  0  0  0
    1.5401  144.1398   52.5864 H   0  0  0  0  0  0  0  0  0  0  0  0
    3.1345  143.1616   51.5905 C   0  0  0  0  0  0  0  0  0  0  0  0
    3.6802  142.2134   51.6165 H   0  0  0  0  0  0  0  0  0  0  0  0
    3.8286  143.9417   51.9272 H   0  0  0  0  0  0  0  0  0  0  0  0
    2.6713  143.4660   50.2230 N   0  0  0  0  0  0  0  0  0  0  0  0
    1.7003  142.5859   49.5279 C   0  0  0  0  0  0  0  0  0  0  0  0
    0.6806  142.8519   49.8007 H   0  0  0  0  0  0  0  0  0  0  0  0
    1.7779  142.7287   48.4470 H   0  0  0  0  0  0  0  0  0  0  0  0
    1.9565  141.1255   49.8271 C   0  0  0  0  0  0  0  0  0  0  0  0
    3.0294  140.9522   49.9084 H   0  0  0  0  0  0  0  0  0  0  0  0
    1.5713  140.5190   49.0107 H   0  0  0  0  0  0  0  0  0  0  0  0
    1.4645  140.8191   50.7532 H   0  0  0  0  0  0  0  0  0  0  0  0
    3.7957  143.9472   49.4210 C   0  0  0  0  0  0  0  0  0  0  0  0
    3.4399  144.4614   48.5254 H   0  0  0  0  0  0  0  0  0  0  0  0
    4.3837  144.6706   49.9970 H   0  0  0  0  0  0  0  0  0  0  0  0
    4.6782  142.7613   49.0841 C   0  0  0  0  0  0  0  0  0  0  0  0
    5.5760  143.1244   48.6217 H   0  0  0  0  0  0  0  0  0  0  0  0
    4.1573  142.0598   48.4203 H   0  0  0  0  0  0  0  0  0  0  0  0
    4.9791  142.2647   50.0107 H   0  0  0  0  0  0  0  0  0  0  0  0
    3.3150  143.1838   55.8964 C   0  0  0  0  0  0  0  0  0  0  0  0
    3.1963  141.8144   56.2759 C   0  0  0  0  0  0  0  0  0  0  0  0
    3.0960  140.6810   56.5065 N   0  0  0  0  0  0  0  0  0  0  0  0
    3.7418  144.1539   56.7478 C   0  0  0  0  0  0  0  0  0  0  0  0
    3.9924  143.8879   58.0386 N   0  0  0  0  0  0  0  0  0  0  0  0
    4.1399  142.9166   58.2928 H   0  0  0  0  0  0  0  0  0  0  0  0
    4.4572  144.6202   58.5683 H   0  0  0  0  0  0  0  0  0  0  0  0
    3.8839  145.4372   56.3373 C   0  0  0  0  0  0  0  0  0  0  0  0
    4.2362  146.1931   57.0171 H   0  0  0  0  0  0  0  0  0  0  0  0
    1.8839  149.1943   52.6704 C   0  0  0  0  0  0  0  0  0  0  0  0
    2.7119  148.3035   52.0224 O   0  0  0  0  0  0  0  0  0  0  0  0
    2.0676  147.2858   51.2423 C   0  0  0  0  0  0  0  0  0  0  0  0
    1.3489  146.7333   51.8563 H   0  0  0  0  0  0  0  0  0  0  0  0
    1.5440  147.7162   50.3832 H   0  0  0  0  0  0  0  0  0  0  0  0
    2.8162  146.5788   50.8708 H   0  0  0  0  0  0  0  0  0  0  0  0
  1  2  1  0
  2  3  2  0
  3  4  1  0
  3  5  1  0
  5  6  1  0
  6  7  1  0
  7  8  1  0
  7  9  1  0
  7 10  1  0
  5 11  2  0
 11 12  1  0
 11 13  1  0
 13 14  1  0
 14 15  1  0
 14 16  1  0
 14 17  1  0
 17 18  2  0
 17 19  1  0
 19 20  1  0
 19 21  1  0
 21 22  2  0
 22 23  1  0
 23 24  1  0
 24 25  1  0
 25 26  1  0
 25 27  1  0
 25 28  1  0
 28 29  1  0
 28 30  1  0
 28 31  1  0
 31 32  1  0
 32 33  1  0
 32 34  1  0
 32 35  1  0
 35 36  1  0
 35 37  1  0
 35 38  1  0
 31 39  1  0
 39 40  1  0
 39 41  1  0
 39 42  1  0
 42 43  1  0
 42 44  1  0
 42 45  1  0
 23 46  2  0
 46 47  1  0
 47 48  3  0
 46 49  1  0
 49 50  1  0
 50 51  1  0
 50 52  1  0
 49 53  2  0
 53 54  1  0
 13 55  2  0
 55 56  1  0
 56 57  1  0
 57 58  1  0
 57 59  1  0
 57 60  1  0
 55  2  1  0
 53 21  1  0
M  END
>  <score>  (248) 
7.17504

$$$$

     RDKit          3D

 49 51  0  0  0  0  0  0  0  0999 V2000
    0.4964  140.9008   52.0919 H   0  0  0  0  0  0  0  0  0  0  0  0
    1.3023  141.6157   51.9589 C   0  0  0  0  0  0  0  0  0  0  0  0
    1.7871  142.3317   53.0646 C   0  0  0  0  0  0  0  0  0  0  0  0
    1.3360  142.2367   54.0432 H   0  0  0  0  0  0  0  0  0  0  0  0
    2.8881  143.1877   52.9476 C   0  0  0  0  0  0  0  0  0  0  0  0
    3.4036  143.8969   54.1309 C   0  0  0  0  0  0  0  0  0  0  0  0
    3.6324  145.1897   53.9231 N   0  0  0  0  0  0  0  0  0  0  0  0
    3.8754  145.9542   54.9455 C   0  0  0  0  0  0  0  0  0  0  0  0
    3.9395  147.2101   54.4787 N   0  0  0  0  0  0  0  0  0  0  0  0
    3.8124  147.2883   53.4794 H   0  0  0  0  0  0  0  0  0  0  0  0
    3.7500  148.3120   55.2386 C   0  0  0  0  0  0  0  0  0  0  0  0
    3.7449  148.2353   56.4525 O   0  0  0  0  0  0  0  0  0  0  0  0
    3.6318  149.6550   54.5445 C   0  0  0  0  0  0  0  0  0  0  0  0
    4.4175  149.7423   53.7930 H   0  0  0  0  0  0  0  0  0  0  0  0
    3.7833  150.4247   55.2983 H   0  0  0  0  0  0  0  0  0  0  0  0
    2.2884  149.8708   53.8997 C   0  0  0  0  0  0  0  0  0  0  0  0
    1.4321  150.7935   54.5094 C   0  0  0  0  0  0  0  0  0  0  0  0
    1.7494  151.3119   55.4046 H   0  0  0  0  0  0  0  0  0  0  0  0
    0.1681  151.0752   53.9998 C   0  0  0  0  0  0  0  0  0  0  0  0
   -0.6190  151.9896   54.6518 O   0  0  0  0  0  0  0  0  0  0  0  0
   -1.5755  151.3848   55.5288 C   0  0  0  0  0  0  0  0  0  0  0  0
   -2.0402  152.1480   56.1627 H   0  0  0  0  0  0  0  0  0  0  0  0
   -1.0921  150.6479   56.1757 H   0  0  0  0  0  0  0  0  0  0  0  0
   -2.3608  150.8863   54.9527 H   0  0  0  0  0  0  0  0  0  0  0  0
   -0.2469  150.4345   52.8238 C   0  0  0  0  0  0  0  0  0  0  0  0
   -1.9603  150.8217   52.0570 Br  0  0  0  0  0  0  0  0  0  0  0  0
    0.6108  149.5157   52.1983 C   0  0  0  0  0  0  0  0  0  0  0  0
    0.3009  149.0388   51.2766 H   0  0  0  0  0  0  0  0  0  0  0  0
    1.8739  149.2020   52.7295 C   0  0  0  0  0  0  0  0  0  0  0  0
    2.7025  148.2727   52.1351 O   0  0  0  0  0  0  0  0  0  0  0  0
    2.0612  147.3175   51.2706 C   0  0  0  0  0  0  0  0  0  0  0  0
    1.3190  146.7329   51.8260 H   0  0  0  0  0  0  0  0  0  0  0  0
    1.5608  147.8210   50.4372 H   0  0  0  0  0  0  0  0  0  0  0  0
    2.8012  146.6244   50.8575 H   0  0  0  0  0  0  0  0  0  0  0  0
    3.9276  145.5301   56.2471 C   0  0  0  0  0  0  0  0  0  0  0  0
    4.0780  146.2094   57.0689 H   0  0  0  0  0  0  0  0  0  0  0  0
    3.7876  144.1916   56.4661 C   0  0  0  0  0  0  0  0  0  0  0  0
    3.8355  143.8223   57.7715 N   0  0  0  0  0  0  0  0  0  0  0  0
    4.0686  142.8537   57.9920 H   0  0  0  0  0  0  0  0  0  0  0  0
    4.1719  144.5457   58.4016 H   0  0  0  0  0  0  0  0  0  0  0  0
    3.5327  143.3358   55.4141 C   0  0  0  0  0  0  0  0  0  0  0  0
    3.3370  141.9477   55.6774 C   0  0  0  0  0  0  0  0  0  0  0  0
    3.1899  140.8186   55.9226 N   0  0  0  0  0  0  0  0  0  0  0  0
    3.3952  143.4371   51.6623 C   0  0  0  0  0  0  0  0  0  0  0  0
    4.6500  144.6076   51.3769 Cl  0  0  0  0  0  0  0  0  0  0  0  0
    2.8861  142.7575   50.5600 C   0  0  0  0  0  0  0  0  0  0  0  0
    3.3036  142.9927   49.5907 H   0  0  0  0  0  0  0  0  0  0  0  0
    1.8776  141.8080   50.6972 C   0  0  0  0  0  0  0  0  0  0  0  0
    1.3304  140.9404   49.2896 Cl  0  0  0  0  0  0  0  0  0  0  0  0
  1  2  1  0
  2  3  2  0
  3  4  1  0
  3  5  1  0
  5  6  1  0
  6  7  2  0
  7  8  1  0
  8  9  1  0
  9 10  1  0
  9 11  1  0
 11 12  2  0
 11 13  1  0
 13 14  1  0
 13 15  1  0
 13 16  1  0
 16 17  2  0
 17 18  1  0
 17 19  1  0
 19 20  1  0
 20 21  1  0
 21 22  1  0
 21 23  1  0
 21 24  1  0
 19 25  2  0
 25 26  1  0
 25 27  1  0
 27 28  1  0
 27 29  2  0
 29 30  1  0
 30 31  1  0
 31 32  1  0
 31 33  1  0
 31 34  1  0
  8 35  2  0
 35 36  1  0
 35 37  1  0
 37 38  1  0
 38 39  1  0
 38 40  1  0
 37 41  2  0
 41 42  1  0
 42 43  3  0
  5 44  2  0
 44 45  1  0
 44 46  1  0
 46 47  1  0
 46 48  2  0
 48 49  1  0
 48  2  1  0
 41  6  1  0
 29 16  1  0
M  END
>  <score>  (249) 
7.17523

$$$$

     RDKit          3D

 53 55  0  0  0  0  0  0  0  0999 V2000
    0.5723  141.5974   47.8168 H   0  0  0  0  0  0  0  0  0  0  0  0
    0.8652  142.0328   48.7675 C   0  0  0  0  0  0  0  0  0  0  0  0
    1.2966  141.1947   49.7867 C   0  0  0  0  0  0  0  0  0  0  0  0
    1.4361  140.1472   49.5833 H   0  0  0  0  0  0  0  0  0  0  0  0
    1.5200  141.6841   51.0808 C   0  0  0  0  0  0  0  0  0  0  0  0
    1.7691  141.0177   51.9020 H   0  0  0  0  0  0  0  0  0  0  0  0
    1.4202  143.0597   51.3218 C   0  0  0  0  0  0  0  0  0  0  0  0
    1.6241  143.6240   52.5546 O   0  0  0  0  0  0  0  0  0  0  0  0
    2.2619  142.8349   53.5844 C   0  0  0  0  0  0  0  0  0  0  0  0
    3.0173  142.1936   53.1314 H   0  0  0  0  0  0  0  0  0  0  0  0
    1.5144  142.2064   54.0651 H   0  0  0  0  0  0  0  0  0  0  0  0
    2.9130  143.7093   54.6435 C   0  0  0  0  0  0  0  0  0  0  0  0
    3.1252  144.9836   54.3196 N   0  0  0  0  0  0  0  0  0  0  0  0
    3.6134  145.8058   55.2063 C   0  0  0  0  0  0  0  0  0  0  0  0
    3.7352  147.0019   54.6098 N   0  0  0  0  0  0  0  0  0  0  0  0
    3.4652  146.9914   53.6379 H   0  0  0  0  0  0  0  0  0  0  0  0
    3.7353  148.1913   55.2615 C   0  0  0  0  0  0  0  0  0  0  0  0
    3.8295  148.2239   56.4769 O   0  0  0  0  0  0  0  0  0  0  0  0
    3.7005  149.4715   54.4382 C   0  0  0  0  0  0  0  0  0  0  0  0
    4.4401  149.4197   53.6325 H   0  0  0  0  0  0  0  0  0  0  0  0
    3.9380  150.2949   55.0991 H   0  0  0  0  0  0  0  0  0  0  0  0
    2.3519  149.7793   53.8632 C   0  0  0  0  0  0  0  0  0  0  0  0
    1.5500  150.6818   54.5652 C   0  0  0  0  0  0  0  0  0  0  0  0
    1.9102  151.1259   55.4858 H   0  0  0  0  0  0  0  0  0  0  0  0
    0.2967  151.0541   54.0950 C   0  0  0  0  0  0  0  0  0  0  0  0
   -0.4153  151.9872   54.7980 O   0  0  0  0  0  0  0  0  0  0  0  0
   -1.4415  151.4033   55.5985 C   0  0  0  0  0  0  0  0  0  0  0  0
   -1.9489  152.1867   56.1683 H   0  0  0  0  0  0  0  0  0  0  0  0
   -2.1754  150.8862   54.9722 H   0  0  0  0  0  0  0  0  0  0  0  0
   -1.0110  150.6872   56.3018 H   0  0  0  0  0  0  0  0  0  0  0  0
   -0.1825  150.4830   52.9064 C   0  0  0  0  0  0  0  0  0  0  0  0
   -1.9144  150.9523   52.2392 Br  0  0  0  0  0  0  0  0  0  0  0  0
    0.6253  149.5813   52.1914 C   0  0  0  0  0  0  0  0  0  0  0  0
    0.2716  149.1654   51.2562 H   0  0  0  0  0  0  0  0  0  0  0  0
    1.9046  149.2284   52.6537 C   0  0  0  0  0  0  0  0  0  0  0  0
    2.7489  148.3894   51.9656 O   0  0  0  0  0  0  0  0  0  0  0  0
    2.1300  147.3027   51.2734 C   0  0  0  0  0  0  0  0  0  0  0  0
    2.9052  146.6022   50.9460 H   0  0  0  0  0  0  0  0  0  0  0  0
    1.4369  146.7693   51.9338 H   0  0  0  0  0  0  0  0  0  0  0  0
    1.5873  147.6637   50.3943 H   0  0  0  0  0  0  0  0  0  0  0  0
    3.9231  145.4483   56.4898 C   0  0  0  0  0  0  0  0  0  0  0  0
    4.3013  146.1564   57.2062 H   0  0  0  0  0  0  0  0  0  0  0  0
    3.7658  144.1325   56.8200 C   0  0  0  0  0  0  0  0  0  0  0  0
    4.1185  143.7581   58.0719 N   0  0  0  0  0  0  0  0  0  0  0  0
    4.0956  142.7764   58.3413 H   0  0  0  0  0  0  0  0  0  0  0  0
    4.4902  144.4645   58.7019 H   0  0  0  0  0  0  0  0  0  0  0  0
    3.2702  143.2295   55.9041 C   0  0  0  0  0  0  0  0  0  0  0  0
    3.1449  141.8469   56.2273 C   0  0  0  0  0  0  0  0  0  0  0  0
    3.0643  140.7076   56.4460 N   0  0  0  0  0  0  0  0  0  0  0  0
    1.0699  143.9111   50.2620 C   0  0  0  0  0  0  0  0  0  0  0  0
    1.0586  144.9795   50.4285 H   0  0  0  0  0  0  0  0  0  0  0  0
    0.7437  143.4101   49.0002 C   0  0  0  0  0  0  0  0  0  0  0  0
    0.3440  144.0692   48.2251 H   0  0  0  0  0  0  0  0  0  0  0  0
  1  2  1  0
  2  3  2  0
  3  4  1  0
  3  5  1  0
  5  6  1  0
  5  7  2  0
  7  8  1  0
  8  9  1  0
  9 10  1  0
  9 11  1  0
  9 12  1  0
 12 13  2  0
 13 14  1  0
 14 15  1  0
 15 16  1  0
 15 17  1  0
 17 18  2  0
 17 19  1  0
 19 20  1  0
 19 21  1  0
 19 22  1  0
 22 23  2  0
 23 24  1  0
 23 25  1  0
 25 26  1  0
 26 27  1  0
 27 28  1  0
 27 29  1  0
 27 30  1  0
 25 31  2  0
 31 32  1  0
 31 33  1  0
 33 34  1  0
 33 35  2  0
 35 36  1  0
 36 37  1  0
 37 38  1  0
 37 39  1  0
 37 40  1  0
 14 41  2  0
 41 42  1  0
 41 43  1  0
 43 44  1  0
 44 45  1  0
 44 46  1  0
 43 47  2  0
 47 48  1  0
 48 49  3  0
  7 50  1  0
 50 51  1  0
 50 52  2  0
 52 53  1  0
 52  2  1  0
 47 12  1  0
 35 22  1  0
M  END
>  <score>  (250) 
7.17591

$$$$

     RDKit          3D

 49 51  0  0  0  0  0  0  0  0999 V2000
    3.4225  142.8209   49.7662 H   0  0  0  0  0  0  0  0  0  0  0  0
    2.9530  142.6739   50.7326 C   0  0  0  0  0  0  0  0  0  0  0  0
    3.5384  143.1935   51.8916 C   0  0  0  0  0  0  0  0  0  0  0  0
    4.4610  143.7590   51.8105 H   0  0  0  0  0  0  0  0  0  0  0  0
    2.9163  143.0266   53.1408 C   0  0  0  0  0  0  0  0  0  0  0  0
    3.3732  143.7677   54.3239 C   0  0  0  0  0  0  0  0  0  0  0  0
    3.5592  145.0555   54.0734 N   0  0  0  0  0  0  0  0  0  0  0  0
    3.8071  145.8742   55.0546 C   0  0  0  0  0  0  0  0  0  0  0  0
    3.8067  147.1076   54.5354 N   0  0  0  0  0  0  0  0  0  0  0  0
    3.5577  147.1419   53.5590 H   0  0  0  0  0  0  0  0  0  0  0  0
    3.7097  148.2497   55.2678 C   0  0  0  0  0  0  0  0  0  0  0  0
    3.7949  148.2183   56.4794 O   0  0  0  0  0  0  0  0  0  0  0  0
    3.6465  149.5622   54.5083 C   0  0  0  0  0  0  0  0  0  0  0  0
    4.4187  149.5496   53.7433 H   0  0  0  0  0  0  0  0  0  0  0  0
    3.8576  150.3875   55.1875 H   0  0  0  0  0  0  0  0  0  0  0  0
    2.3064  149.8110   53.8779 C   0  0  0  0  0  0  0  0  0  0  0  0
    1.4811  150.7044   54.5539 C   0  0  0  0  0  0  0  0  0  0  0  0
    1.8158  151.1384   55.4911 H   0  0  0  0  0  0  0  0  0  0  0  0
    0.2436  151.0643   54.0418 C   0  0  0  0  0  0  0  0  0  0  0  0
   -0.4862  151.9967   54.7224 O   0  0  0  0  0  0  0  0  0  0  0  0
   -1.4842  151.4026   55.5495 C   0  0  0  0  0  0  0  0  0  0  0  0
   -2.2361  150.8981   54.9370 H   0  0  0  0  0  0  0  0  0  0  0  0
   -1.9772  152.1733   56.1505 H   0  0  0  0  0  0  0  0  0  0  0  0
   -1.0294  150.6688   56.2191 H   0  0  0  0  0  0  0  0  0  0  0  0
   -0.2138  150.4701   52.8566 C   0  0  0  0  0  0  0  0  0  0  0  0
   -1.9503  150.8957   52.1774 Br  0  0  0  0  0  0  0  0  0  0  0  0
    0.6003  149.5491   52.1796 C   0  0  0  0  0  0  0  0  0  0  0  0
    0.2361  149.0985   51.2625 H   0  0  0  0  0  0  0  0  0  0  0  0
    1.8794  149.2191   52.6683 C   0  0  0  0  0  0  0  0  0  0  0  0
    2.7214  148.3575   52.0015 O   0  0  0  0  0  0  0  0  0  0  0  0
    2.0850  147.3097   51.2560 C   0  0  0  0  0  0  0  0  0  0  0  0
    1.5441  147.7108   50.3937 H   0  0  0  0  0  0  0  0  0  0  0  0
    2.8429  146.6069   50.8973 H   0  0  0  0  0  0  0  0  0  0  0  0
    1.3795  146.7592   51.8867 H   0  0  0  0  0  0  0  0  0  0  0  0
    3.9346  145.5018   56.3586 C   0  0  0  0  0  0  0  0  0  0  0  0
    4.1509  146.2255   57.1314 H   0  0  0  0  0  0  0  0  0  0  0  0
    3.7360  144.1798   56.6272 C   0  0  0  0  0  0  0  0  0  0  0  0
    3.8690  143.8031   57.9148 N   0  0  0  0  0  0  0  0  0  0  0  0
    4.3586  144.4661   58.5134 H   0  0  0  0  0  0  0  0  0  0  0  0
    4.0385  142.8127   58.0662 H   0  0  0  0  0  0  0  0  0  0  0  0
    3.4325  143.2749   55.6261 C   0  0  0  0  0  0  0  0  0  0  0  0
    3.1939  141.9008   55.9166 C   0  0  0  0  0  0  0  0  0  0  0  0
    3.0092  140.7753   56.1524 N   0  0  0  0  0  0  0  0  0  0  0  0
    1.7143  142.3250   53.1903 C   0  0  0  0  0  0  0  0  0  0  0  0
    1.2083  142.2571   54.1372 H   0  0  0  0  0  0  0  0  0  0  0  0
    1.1104  141.8344   52.0288 C   0  0  0  0  0  0  0  0  0  0  0  0
    0.1342  141.3647   52.0598 H   0  0  0  0  0  0  0  0  0  0  0  0
    1.7300  142.0071   50.7944 C   0  0  0  0  0  0  0  0  0  0  0  0
    1.1511  141.5317   49.6698 F   0  0  0  0  0  0  0  0  0  0  0  0
  1  2  1  0
  2  3  2  0
  3  4  1  0
  3  5  1  0
  5  6  1  0
  6  7  2  0
  7  8  1  0
  8  9  1  0
  9 10  1  0
  9 11  1  0
 11 12  2  0
 11 13  1  0
 13 14  1  0
 13 15  1  0
 13 16  1  0
 16 17  2  0
 17 18  1  0
 17 19  1  0
 19 20  1  0
 20 21  1  0
 21 22  1  0
 21 23  1  0
 21 24  1  0
 19 25  2  0
 25 26  1  0
 25 27  1  0
 27 28  1  0
 27 29  2  0
 29 30  1  0
 30 31  1  0
 31 32  1  0
 31 33  1  0
 31 34  1  0
  8 35  2  0
 35 36  1  0
 35 37  1  0
 37 38  1  0
 38 39  1  0
 38 40  1  0
 37 41  2  0
 41 42  1  0
 42 43  3  0
  5 44  2  0
 44 45  1  0
 44 46  1  0
 46 47  1  0
 46 48  2  0
 48 49  1  0
 48  2  1  0
 41  6  1  0
 29 16  1  0
M  END
>  <score>  (251) 
7.17742

$$$$

     RDKit          3D

 53 55  0  0  0  0  0  0  0  0999 V2000
    3.9792  140.6194   49.8748 H   0  0  0  0  0  0  0  0  0  0  0  0
    4.3290  141.2380   49.2085 O   0  0  0  0  0  0  0  0  0  0  0  0
    3.5532  142.4329   49.2016 C   0  0  0  0  0  0  0  0  0  0  0  0
    4.1889  143.3073   49.0241 H   0  0  0  0  0  0  0  0  0  0  0  0
    2.8052  142.3791   48.4033 H   0  0  0  0  0  0  0  0  0  0  0  0
    2.8972  142.4914   50.5465 C   0  0  0  0  0  0  0  0  0  0  0  0
    1.6515  141.8811   50.7245 C   0  0  0  0  0  0  0  0  0  0  0  0
    1.1269  141.4565   49.8708 H   0  0  0  0  0  0  0  0  0  0  0  0
    1.1068  141.7829   52.0049 C   0  0  0  0  0  0  0  0  0  0  0  0
    0.1582  141.2756   52.1459 H   0  0  0  0  0  0  0  0  0  0  0  0
    1.7835  142.3276   53.0964 C   0  0  0  0  0  0  0  0  0  0  0  0
    1.3530  142.2365   54.0877 H   0  0  0  0  0  0  0  0  0  0  0  0
    2.9684  143.0503   52.9202 C   0  0  0  0  0  0  0  0  0  0  0  0
    3.4816  143.8131   54.0628 C   0  0  0  0  0  0  0  0  0  0  0  0
    3.6691  145.1110   53.8333 N   0  0  0  0  0  0  0  0  0  0  0  0
    3.8553  145.9143   54.8515 C   0  0  0  0  0  0  0  0  0  0  0  0
    3.8555  147.1854   54.4273 N   0  0  0  0  0  0  0  0  0  0  0  0
    3.7519  147.2812   53.4274 H   0  0  0  0  0  0  0  0  0  0  0  0
    3.7122  148.2830   55.2192 C   0  0  0  0  0  0  0  0  0  0  0  0
    3.7472  148.1974   56.4395 O   0  0  0  0  0  0  0  0  0  0  0  0
    3.6069  149.6391   54.5478 C   0  0  0  0  0  0  0  0  0  0  0  0
    4.4149  149.7335   53.8181 H   0  0  0  0  0  0  0  0  0  0  0  0
    3.7435  150.4006   55.3134 H   0  0  0  0  0  0  0  0  0  0  0  0
    2.2703  149.8682   53.8906 C   0  0  0  0  0  0  0  0  0  0  0  0
    1.4187  150.7837   54.5251 C   0  0  0  0  0  0  0  0  0  0  0  0
    1.7279  151.2629   55.4522 H   0  0  0  0  0  0  0  0  0  0  0  0
    0.1682  151.0857   53.9947 C   0  0  0  0  0  0  0  0  0  0  0  0
   -0.6152  151.9992   54.6445 O   0  0  0  0  0  0  0  0  0  0  0  0
   -1.5729  151.3902   55.5138 C   0  0  0  0  0  0  0  0  0  0  0  0
   -2.3573  150.8970   54.9306 H   0  0  0  0  0  0  0  0  0  0  0  0
   -2.0323  152.1532   56.1510 H   0  0  0  0  0  0  0  0  0  0  0  0
   -1.0929  150.6482   56.1583 H   0  0  0  0  0  0  0  0  0  0  0  0
   -0.2453  150.4527   52.8137 C   0  0  0  0  0  0  0  0  0  0  0  0
   -1.9675  150.8187   52.0667 Br  0  0  0  0  0  0  0  0  0  0  0  0
    0.5996  149.5217   52.1906 C   0  0  0  0  0  0  0  0  0  0  0  0
    0.2793  149.0257   51.2855 H   0  0  0  0  0  0  0  0  0  0  0  0
    1.8642  149.2044   52.7103 C   0  0  0  0  0  0  0  0  0  0  0  0
    2.6920  148.2786   52.1021 O   0  0  0  0  0  0  0  0  0  0  0  0
    2.0427  147.3117   51.2545 C   0  0  0  0  0  0  0  0  0  0  0  0
    1.3122  146.7319   51.8302 H   0  0  0  0  0  0  0  0  0  0  0  0
    2.7798  146.6173   50.8406 H   0  0  0  0  0  0  0  0  0  0  0  0
    1.5287  147.7947   50.4161 H   0  0  0  0  0  0  0  0  0  0  0  0
    3.9188  145.5066   56.1492 C   0  0  0  0  0  0  0  0  0  0  0  0
    4.0342  146.2021   56.9646 H   0  0  0  0  0  0  0  0  0  0  0  0
    3.7703  144.1811   56.3853 C   0  0  0  0  0  0  0  0  0  0  0  0
    3.8230  143.8102   57.6845 N   0  0  0  0  0  0  0  0  0  0  0  0
    4.1603  144.5129   58.3381 H   0  0  0  0  0  0  0  0  0  0  0  0
    3.9693  142.8303   57.9006 H   0  0  0  0  0  0  0  0  0  0  0  0
    3.5225  143.3016   55.3584 C   0  0  0  0  0  0  0  0  0  0  0  0
    3.2633  141.9288   55.6465 C   0  0  0  0  0  0  0  0  0  0  0  0
    3.0638  140.8121   55.8885 N   0  0  0  0  0  0  0  0  0  0  0  0
    3.5405  143.1014   51.6335 C   0  0  0  0  0  0  0  0  0  0  0  0
    4.4725  143.6256   51.4396 H   0  0  0  0  0  0  0  0  0  0  0  0
  1  2  1  0
  2  3  1  0
  3  4  1  0
  3  5  1  0
  3  6  1  0
  6  7  2  0
  7  8  1  0
  7  9  1  0
  9 10  1  0
  9 11  2  0
 11 12  1  0
 11 13  1  0
 13 14  1  0
 14 15  2  0
 15 16  1  0
 16 17  1  0
 17 18  1  0
 17 19  1  0
 19 20  2  0
 19 21  1  0
 21 22  1  0
 21 23  1  0
 21 24  1  0
 24 25  2  0
 25 26  1  0
 25 27  1  0
 27 28  1  0
 28 29  1  0
 29 30  1  0
 29 31  1  0
 29 32  1  0
 27 33  2  0
 33 34  1  0
 33 35  1  0
 35 36  1  0
 35 37  2  0
 37 38  1  0
 38 39  1  0
 39 40  1  0
 39 41  1  0
 39 42  1  0
 16 43  2  0
 43 44  1  0
 43 45  1  0
 45 46  1  0
 46 47  1  0
 46 48  1  0
 45 49  2  0
 49 50  1  0
 50 51  3  0
 13 52  2  0
 52 53  1  0
 52  6  1  0
 49 14  1  0
 37 24  1  0
M  END
>  <score>  (252) 
7.17852

$$$$

     RDKit          3D

 49 51  0  0  0  0  0  0  0  0999 V2000
    0.9799  140.6178   50.6858 H   0  0  0  0  0  0  0  0  0  0  0  0
    1.3623  141.1935   51.5218 C   0  0  0  0  0  0  0  0  0  0  0  0
    2.5889  140.9022   52.1242 C   0  0  0  0  0  0  0  0  0  0  0  0
    3.2276  140.1157   51.7506 H   0  0  0  0  0  0  0  0  0  0  0  0
    3.0610  141.6608   53.1926 C   0  0  0  0  0  0  0  0  0  0  0  0
    4.0172  141.3787   53.6297 H   0  0  0  0  0  0  0  0  0  0  0  0
    2.3476  142.7981   53.6142 C   0  0  0  0  0  0  0  0  0  0  0  0
    2.8800  143.6832   54.6549 C   0  0  0  0  0  0  0  0  0  0  0  0
    3.0098  144.9740   54.3408 N   0  0  0  0  0  0  0  0  0  0  0  0
    3.5251  145.7961   55.2323 C   0  0  0  0  0  0  0  0  0  0  0  0
    3.7102  146.9952   54.6457 N   0  0  0  0  0  0  0  0  0  0  0  0
    3.5186  146.9568   53.6585 H   0  0  0  0  0  0  0  0  0  0  0  0
    3.7495  148.2102   55.2680 C   0  0  0  0  0  0  0  0  0  0  0  0
    3.8516  148.2664   56.4831 O   0  0  0  0  0  0  0  0  0  0  0  0
    3.7281  149.4756   54.3989 C   0  0  0  0  0  0  0  0  0  0  0  0
    3.9971  150.3556   54.9746 H   0  0  0  0  0  0  0  0  0  0  0  0
    4.4134  149.3582   53.5571 H   0  0  0  0  0  0  0  0  0  0  0  0
    2.3807  149.7838   53.8574 C   0  0  0  0  0  0  0  0  0  0  0  0
    1.5968  150.6904   54.5717 C   0  0  0  0  0  0  0  0  0  0  0  0
    1.9901  151.1458   55.4717 H   0  0  0  0  0  0  0  0  0  0  0  0
    0.3334  151.0594   54.1316 C   0  0  0  0  0  0  0  0  0  0  0  0
   -0.3790  151.9770   54.8609 O   0  0  0  0  0  0  0  0  0  0  0  0
   -1.4268  151.4041   55.6485 C   0  0  0  0  0  0  0  0  0  0  0  0
   -2.1538  150.8744   55.0225 H   0  0  0  0  0  0  0  0  0  0  0  0
   -1.0139  150.7025   56.3762 H   0  0  0  0  0  0  0  0  0  0  0  0
   -1.9427  152.2018   56.1926 H   0  0  0  0  0  0  0  0  0  0  0  0
   -0.1446  150.5001   52.9354 C   0  0  0  0  0  0  0  0  0  0  0  0
   -1.8685  150.9841   52.2768 Br  0  0  0  0  0  0  0  0  0  0  0  0
    0.6582  149.6074   52.1953 C   0  0  0  0  0  0  0  0  0  0  0  0
    0.3077  149.2015   51.2536 H   0  0  0  0  0  0  0  0  0  0  0  0
    1.9345  149.2400   52.6471 C   0  0  0  0  0  0  0  0  0  0  0  0
    2.7757  148.4023   51.9500 O   0  0  0  0  0  0  0  0  0  0  0  0
    2.1650  147.2960   51.2823 C   0  0  0  0  0  0  0  0  0  0  0  0
    2.9502  146.5969   50.9735 H   0  0  0  0  0  0  0  0  0  0  0  0
    1.4739  146.7687   51.9505 H   0  0  0  0  0  0  0  0  0  0  0  0
    1.6227  147.6360   50.3946 H   0  0  0  0  0  0  0  0  0  0  0  0
    3.8916  145.4292   56.5003 C   0  0  0  0  0  0  0  0  0  0  0  0
    4.3136  146.1216   57.2147 H   0  0  0  0  0  0  0  0  0  0  0  0
    3.7575  144.1073   56.8041 C   0  0  0  0  0  0  0  0  0  0  0  0
    4.1560  143.7188   58.0268 N   0  0  0  0  0  0  0  0  0  0  0  0
    4.0610  142.7419   58.2981 H   0  0  0  0  0  0  0  0  0  0  0  0
    4.4981  144.4294   58.6687 H   0  0  0  0  0  0  0  0  0  0  0  0
    3.2720  143.2001   55.8967 C   0  0  0  0  0  0  0  0  0  0  0  0
    3.1512  141.8186   56.2242 C   0  0  0  0  0  0  0  0  0  0  0  0
    3.0395  140.6832   56.4515 N   0  0  0  0  0  0  0  0  0  0  0  0
    1.1396  143.1202   52.9724 C   0  0  0  0  0  0  0  0  0  0  0  0
    0.4388  144.2233   53.3183 F   0  0  0  0  0  0  0  0  0  0  0  0
    0.6377  142.2948   51.9618 C   0  0  0  0  0  0  0  0  0  0  0  0
   -0.3046  142.5310   51.4847 H   0  0  0  0  0  0  0  0  0  0  0  0
  1  2  1  0
  2  3  2  0
  3  4  1  0
  3  5  1  0
  5  6  1  0
  5  7  2  0
  7  8  1  0
  8  9  2  0
  9 10  1  0
 10 11  1  0
 11 12  1  0
 11 13  1  0
 13 14  2  0
 13 15  1  0
 15 16  1  0
 15 17  1  0
 15 18  1  0
 18 19  2  0
 19 20  1  0
 19 21  1  0
 21 22  1  0
 22 23  1  0
 23 24  1  0
 23 25  1  0
 23 26  1  0
 21 27  2  0
 27 28  1  0
 27 29  1  0
 29 30  1  0
 29 31  2  0
 31 32  1  0
 32 33  1  0
 33 34  1  0
 33 35  1  0
 33 36  1  0
 10 37  2  0
 37 38  1  0
 37 39  1  0
 39 40  1  0
 40 41  1  0
 40 42  1  0
 39 43  2  0
 43 44  1  0
 44 45  3  0
  7 46  1  0
 46 47  1  0
 46 48  2  0
 48 49  1  0
 48  2  1  0
 43  8  1  0
 31 18  1  0
M  END
>  <score>  (253) 
7.1786

$$$$

     RDKit          3D

 46 48  0  0  0  0  0  0  0  0999 V2000
    0.5641  141.6516   50.7418 H   0  0  0  0  0  0  0  0  0  0  0  0
    1.1594  141.9032   51.6151 C   0  0  0  0  0  0  0  0  0  0  0  0
    1.0985  143.4077   52.5152 S   0  0  0  0  0  0  0  0  0  0  0  0
    2.3788  142.8434   53.5947 C   0  0  0  0  0  0  0  0  0  0  0  0
    2.9078  143.6937   54.6547 C   0  0  0  0  0  0  0  0  0  0  0  0
    3.0299  144.9830   54.3430 N   0  0  0  0  0  0  0  0  0  0  0  0
    3.5323  145.7993   55.2393 C   0  0  0  0  0  0  0  0  0  0  0  0
    3.7103  146.9896   54.6468 N   0  0  0  0  0  0  0  0  0  0  0  0
    3.5110  146.9421   53.6602 H   0  0  0  0  0  0  0  0  0  0  0  0
    3.7495  148.2058   55.2661 C   0  0  0  0  0  0  0  0  0  0  0  0
    3.8492  148.2603   56.4817 O   0  0  0  0  0  0  0  0  0  0  0  0
    3.7241  149.4733   54.4004 C   0  0  0  0  0  0  0  0  0  0  0  0
    4.4107  149.3598   53.5576 H   0  0  0  0  0  0  0  0  0  0  0  0
    3.9920  150.3513   54.9787 H   0  0  0  0  0  0  0  0  0  0  0  0
    2.3782  149.7823   53.8585 C   0  0  0  0  0  0  0  0  0  0  0  0
    1.5950  150.6886   54.5722 C   0  0  0  0  0  0  0  0  0  0  0  0
    1.9887  151.1456   55.4708 H   0  0  0  0  0  0  0  0  0  0  0  0
    0.3329  151.0582   54.1309 C   0  0  0  0  0  0  0  0  0  0  0  0
   -0.3787  151.9758   54.8592 O   0  0  0  0  0  0  0  0  0  0  0  0
   -1.4260  151.4035   55.6465 C   0  0  0  0  0  0  0  0  0  0  0  0
   -1.0134  150.7021   56.3733 H   0  0  0  0  0  0  0  0  0  0  0  0
   -2.1525  150.8750   55.0205 H   0  0  0  0  0  0  0  0  0  0  0  0
   -1.9406  152.2019   56.1900 H   0  0  0  0  0  0  0  0  0  0  0  0
   -0.1456  150.4988   52.9354 C   0  0  0  0  0  0  0  0  0  0  0  0
   -1.8703  150.9847   52.2778 Br  0  0  0  0  0  0  0  0  0  0  0  0
    0.6584  149.6052   52.1954 C   0  0  0  0  0  0  0  0  0  0  0  0
    0.3075  149.1997   51.2511 H   0  0  0  0  0  0  0  0  0  0  0  0
    1.9339  149.2383   52.6493 C   0  0  0  0  0  0  0  0  0  0  0  0
    2.7748  148.4024   51.9500 O   0  0  0  0  0  0  0  0  0  0  0  0
    2.1638  147.2968   51.2820 C   0  0  0  0  0  0  0  0  0  0  0  0
    1.4728  146.7709   51.9501 H   0  0  0  0  0  0  0  0  0  0  0  0
    2.9492  146.5982   50.9740 H   0  0  0  0  0  0  0  0  0  0  0  0
    1.6227  147.6382   50.3951 H   0  0  0  0  0  0  0  0  0  0  0  0
    3.8930  145.4304   56.5055 C   0  0  0  0  0  0  0  0  0  0  0  0
    4.3134  146.1241   57.2222 H   0  0  0  0  0  0  0  0  0  0  0  0
    3.7596  144.1072   56.8004 C   0  0  0  0  0  0  0  0  0  0  0  0
    4.1497  143.7222   58.0227 N   0  0  0  0  0  0  0  0  0  0  0  0
    4.4963  144.4311   58.6643 H   0  0  0  0  0  0  0  0  0  0  0  0
    4.0611  142.7452   58.2912 H   0  0  0  0  0  0  0  0  0  0  0  0
    3.2855  143.1988   55.8927 C   0  0  0  0  0  0  0  0  0  0  0  0
    3.1571  141.8180   56.2184 C   0  0  0  0  0  0  0  0  0  0  0  0
    3.0390  140.6832   56.4479 N   0  0  0  0  0  0  0  0  0  0  0  0
    2.8067  141.5796   53.2696 C   0  0  0  0  0  0  0  0  0  0  0  0
    3.5849  141.0199   53.7777 H   0  0  0  0  0  0  0  0  0  0  0  0
    2.1181  141.0784   52.1133 C   0  0  0  0  0  0  0  0  0  0  0  0
    2.3595  140.1498   51.6562 H   0  0  0  0  0  0  0  0  0  0  0  0
  1  2  1  0
  2  3  1  0
  3  4  1  0
  4  5  1  0
  5  6  2  0
  6  7  1  0
  7  8  1  0
  8  9  1  0
  8 10  1  0
 10 11  2  0
 10 12  1  0
 12 13  1  0
 12 14  1  0
 12 15  1  0
 15 16  2  0
 16 17  1  0
 16 18  1  0
 18 19  1  0
 19 20  1  0
 20 21  1  0
 20 22  1  0
 20 23  1  0
 18 24  2  0
 24 25  1  0
 24 26  1  0
 26 27  1  0
 26 28  2  0
 28 29  1  0
 29 30  1  0
 30 31  1  0
 30 32  1  0
 30 33  1  0
  7 34  2  0
 34 35  1  0
 34 36  1  0
 36 37  1  0
 37 38  1  0
 37 39  1  0
 36 40  2  0
 40 41  1  0
 41 42  3  0
  4 43  2  0
 43 44  1  0
 43 45  1  0
 45 46  1  0
 45  2  2  0
 40  5  1  0
 28 15  1  0
M  END
>  <score>  (254) 
7.18055

$$$$

     RDKit          3D

 57 58  0  0  0  0  0  0  0  0999 V2000
    0.2533  149.1252   51.2474 H   0  0  0  0  0  0  0  0  0  0  0  0
    0.6093  149.5504   52.1810 C   0  0  0  0  0  0  0  0  0  0  0  0
   -0.1988  150.4614   52.8817 C   0  0  0  0  0  0  0  0  0  0  0  0
   -1.9349  150.9224   52.2094 Br  0  0  0  0  0  0  0  0  0  0  0  0
    0.2823  151.0422   54.0648 C   0  0  0  0  0  0  0  0  0  0  0  0
   -0.4335  151.9867   54.7458 O   0  0  0  0  0  0  0  0  0  0  0  0
   -1.4500  151.3999   55.5534 C   0  0  0  0  0  0  0  0  0  0  0  0
   -2.1931  150.8996   54.9260 H   0  0  0  0  0  0  0  0  0  0  0  0
   -1.0146  150.6677   56.2376 H   0  0  0  0  0  0  0  0  0  0  0  0
   -1.9460  152.1776   56.1405 H   0  0  0  0  0  0  0  0  0  0  0  0
    1.5171  150.6523   54.5736 C   0  0  0  0  0  0  0  0  0  0  0  0
    1.8579  151.0905   55.5048 H   0  0  0  0  0  0  0  0  0  0  0  0
    2.3206  149.7375   53.8930 C   0  0  0  0  0  0  0  0  0  0  0  0
    3.6509  149.3941   54.5102 C   0  0  0  0  0  0  0  0  0  0  0  0
    3.8926  150.1654   55.2358 H   0  0  0  0  0  0  0  0  0  0  0  0
    4.4194  149.3886   53.7366 H   0  0  0  0  0  0  0  0  0  0  0  0
    3.6474  148.0604   55.2429 C   0  0  0  0  0  0  0  0  0  0  0  0
    3.7589  148.0252   56.4552 O   0  0  0  0  0  0  0  0  0  0  0  0
    3.5699  146.9039   54.5292 N   0  0  0  0  0  0  0  0  0  0  0  0
    3.3321  146.9500   53.5490 H   0  0  0  0  0  0  0  0  0  0  0  0
    3.4888  145.6777   55.0868 C   0  0  0  0  0  0  0  0  0  0  0  0
    3.0243  144.8300   54.2030 N   0  0  0  0  0  0  0  0  0  0  0  0
    2.9567  143.5449   54.5462 C   0  0  0  0  0  0  0  0  0  0  0  0
    2.3729  142.6520   53.6810 O   0  0  0  0  0  0  0  0  0  0  0  0
    2.0236  143.1392   52.3758 C   0  0  0  0  0  0  0  0  0  0  0  0
    1.4703  144.0822   52.4614 H   0  0  0  0  0  0  0  0  0  0  0  0
    1.3534  142.4178   51.8965 H   0  0  0  0  0  0  0  0  0  0  0  0
    3.2697  143.3648   51.5111 C   0  0  0  0  0  0  0  0  0  0  0  0
    3.7695  144.2789   51.8569 H   0  0  0  0  0  0  0  0  0  0  0  0
    2.9655  143.5217   50.4741 H   0  0  0  0  0  0  0  0  0  0  0  0
    4.2652  142.2061   51.5765 C   0  0  0  0  0  0  0  0  0  0  0  0
    4.5048  142.0162   52.6282 H   0  0  0  0  0  0  0  0  0  0  0  0
    5.1772  142.5050   51.0566 H   0  0  0  0  0  0  0  0  0  0  0  0
    3.7889  140.9708   50.9339 N   0  0  0  0  0  0  0  0  0  0  0  0
    4.5391  139.8044   51.4309 C   0  0  0  0  0  0  0  0  0  0  0  0
    5.6154  139.9576   51.3313 H   0  0  0  0  0  0  0  0  0  0  0  0
    4.2981  139.6340   52.4873 H   0  0  0  0  0  0  0  0  0  0  0  0
    4.2919  138.9120   50.8635 H   0  0  0  0  0  0  0  0  0  0  0  0
    3.6021  141.0663   49.4723 C   0  0  0  0  0  0  0  0  0  0  0  0
    3.0748  140.1844   49.0954 H   0  0  0  0  0  0  0  0  0  0  0  0
    4.5745  141.1308   48.9718 H   0  0  0  0  0  0  0  0  0  0  0  0
    3.0094  141.9544   49.2162 H   0  0  0  0  0  0  0  0  0  0  0  0
    3.3858  143.0873   55.7799 C   0  0  0  0  0  0  0  0  0  0  0  0
    3.2489  141.7046   56.0889 C   0  0  0  0  0  0  0  0  0  0  0  0
    3.0477  140.5763   56.2820 N   0  0  0  0  0  0  0  0  0  0  0  0
    3.8363  144.0133   56.6879 C   0  0  0  0  0  0  0  0  0  0  0  0
    4.2467  143.6957   57.9388 N   0  0  0  0  0  0  0  0  0  0  0  0
    3.9260  144.3257   58.6727 H   0  0  0  0  0  0  0  0  0  0  0  0
    4.3904  142.7099   58.1525 H   0  0  0  0  0  0  0  0  0  0  0  0
    3.8793  145.3345   56.3619 C   0  0  0  0  0  0  0  0  0  0  0  0
    4.2713  146.0435   57.0783 H   0  0  0  0  0  0  0  0  0  0  0  0
    1.8835  149.1973   52.6692 C   0  0  0  0  0  0  0  0  0  0  0  0
    2.7290  148.3582   51.9840 O   0  0  0  0  0  0  0  0  0  0  0  0
    2.0957  147.3044   51.2570 C   0  0  0  0  0  0  0  0  0  0  0  0
    2.8567  146.6037   50.9018 H   0  0  0  0  0  0  0  0  0  0  0  0
    1.4009  146.7644   51.9068 H   0  0  0  0  0  0  0  0  0  0  0  0
    1.5483  147.6976   50.3958 H   0  0  0  0  0  0  0  0  0  0  0  0
  1  2  1  0
  2  3  2  0
  3  4  1  0
  3  5  1  0
  5  6  1  0
  6  7  1  0
  7  8  1  0
  7  9  1  0
  7 10  1  0
  5 11  2  0
 11 12  1  0
 11 13  1  0
 13 14  1  0
 14 15  1  0
 14 16  1  0
 14 17  1  0
 17 18  2  0
 17 19  1  0
 19 20  1  0
 19 21  1  0
 21 22  2  0
 22 23  1  0
 23 24  1  0
 24 25  1  0
 25 26  1  0
 25 27  1  0
 25 28  1  0
 28 29  1  0
 28 30  1  0
 28 31  1  0
 31 32  1  0
 31 33  1  0
 31 34  1  0
 34 35  1  0
 35 36  1  0
 35 37  1  0
 35 38  1  0
 34 39  1  0
 39 40  1  0
 39 41  1  0
 39 42  1  0
 23 43  2  0
 43 44  1  0
 44 45  3  0
 43 46  1  0
 46 47  1  0
 47 48  1  0
 47 49  1  0
 46 50  2  0
 50 51  1  0
 13 52  2  0
 52 53  1  0
 53 54  1  0
 54 55  1  0
 54 56  1  0
 54 57  1  0
 52  2  1  0
 50 21  1  0
M  END
>  <score>  (255) 
7.18385

$$$$

     RDKit          3D

 53 54  0  0  0  0  0  0  0  0999 V2000
    0.3059  149.2003   51.2469 H   0  0  0  0  0  0  0  0  0  0  0  0
    0.6562  149.6038   52.1933 C   0  0  0  0  0  0  0  0  0  0  0  0
   -0.1481  150.4981   52.9345 C   0  0  0  0  0  0  0  0  0  0  0  0
   -1.8744  150.9867   52.2789 Br  0  0  0  0  0  0  0  0  0  0  0  0
    0.3329  151.0570   54.1304 C   0  0  0  0  0  0  0  0  0  0  0  0
   -0.3787  151.9759   54.8587 O   0  0  0  0  0  0  0  0  0  0  0  0
   -1.4252  151.4035   55.6447 C   0  0  0  0  0  0  0  0  0  0  0  0
   -2.1510  150.8758   55.0181 H   0  0  0  0  0  0  0  0  0  0  0  0
   -1.9390  152.2019   56.1877 H   0  0  0  0  0  0  0  0  0  0  0  0
   -1.0127  150.7013   56.3706 H   0  0  0  0  0  0  0  0  0  0  0  0
    1.5931  150.6836   54.5739 C   0  0  0  0  0  0  0  0  0  0  0  0
    1.9876  151.1425   55.4703 H   0  0  0  0  0  0  0  0  0  0  0  0
    2.3750  149.7741   53.8629 C   0  0  0  0  0  0  0  0  0  0  0  0
    3.7179  149.4535   54.4040 C   0  0  0  0  0  0  0  0  0  0  0  0
    4.4045  149.3538   53.5622 H   0  0  0  0  0  0  0  0  0  0  0  0
    3.9924  150.3210   54.9932 H   0  0  0  0  0  0  0  0  0  0  0  0
    3.7399  148.1723   55.2491 C   0  0  0  0  0  0  0  0  0  0  0  0
    3.8419  148.2156   56.4670 O   0  0  0  0  0  0  0  0  0  0  0  0
    3.6890  146.9620   54.6134 N   0  0  0  0  0  0  0  0  0  0  0  0
    3.4964  146.9107   53.6271 H   0  0  0  0  0  0  0  0  0  0  0  0
    3.5091  145.7654   55.1832 C   0  0  0  0  0  0  0  0  0  0  0  0
    3.0011  144.9577   54.2817 N   0  0  0  0  0  0  0  0  0  0  0  0
    2.8669  143.6930   54.6316 C   0  0  0  0  0  0  0  0  0  0  0  0
    2.3612  142.8072   53.7141 N   0  0  0  0  0  0  0  0  0  0  0  0
    2.5049  141.8454   53.9745 H   0  0  0  0  0  0  0  0  0  0  0  0
    1.6565  143.1148   52.4575 C   0  0  0  0  0  0  0  0  0  0  0  0
    2.5991  143.7589   51.4474 C   0  0  0  0  0  0  0  0  0  0  0  0
    2.0389  144.0786   50.5601 H   0  0  0  0  0  0  0  0  0  0  0  0
    3.3533  143.0307   51.1312 H   0  0  0  0  0  0  0  0  0  0  0  0
    3.0986  144.6291   51.8844 H   0  0  0  0  0  0  0  0  0  0  0  0
    1.0954  141.8445   51.8026 C   0  0  0  0  0  0  0  0  0  0  0  0
    0.3927  141.3337   52.4631 H   0  0  0  0  0  0  0  0  0  0  0  0
    1.9026  141.1534   51.5419 H   0  0  0  0  0  0  0  0  0  0  0  0
    0.5569  142.1081   50.8846 H   0  0  0  0  0  0  0  0  0  0  0  0
    0.4770  144.0283   52.7408 C   0  0  0  0  0  0  0  0  0  0  0  0
   -0.0366  144.2724   51.8039 H   0  0  0  0  0  0  0  0  0  0  0  0
   -0.2392  143.5263   53.3975 H   0  0  0  0  0  0  0  0  0  0  0  0
    0.8212  144.9508   53.2200 H   0  0  0  0  0  0  0  0  0  0  0  0
    3.2457  143.1913   55.8576 C   0  0  0  0  0  0  0  0  0  0  0  0
    3.1317  141.8108   56.1882 C   0  0  0  0  0  0  0  0  0  0  0  0
    3.0309  140.6774   56.4291 N   0  0  0  0  0  0  0  0  0  0  0  0
    3.7328  144.0902   56.7539 C   0  0  0  0  0  0  0  0  0  0  0  0
    4.1335  143.7180   57.9742 N   0  0  0  0  0  0  0  0  0  0  0  0
    4.4768  144.4358   58.6078 H   0  0  0  0  0  0  0  0  0  0  0  0
    4.0477  142.7447   58.2549 H   0  0  0  0  0  0  0  0  0  0  0  0
    3.8672  145.4022   56.4496 C   0  0  0  0  0  0  0  0  0  0  0  0
    4.2831  146.0934   57.1648 H   0  0  0  0  0  0  0  0  0  0  0  0
    1.9312  149.2352   52.6502 C   0  0  0  0  0  0  0  0  0  0  0  0
    2.7743  148.4071   51.9428 O   0  0  0  0  0  0  0  0  0  0  0  0
    2.1653  147.3007   51.2757 C   0  0  0  0  0  0  0  0  0  0  0  0
    1.5469  147.6532   50.4451 H   0  0  0  0  0  0  0  0  0  0  0  0
    2.9547  146.6490   50.8858 H   0  0  0  0  0  0  0  0  0  0  0  0
    1.5486  146.7191   51.9700 H   0  0  0  0  0  0  0  0  0  0  0  0
  1  2  1  0
  2  3  2  0
  3  4  1  0
  3  5  1  0
  5  6  1  0
  6  7  1  0
  7  8  1  0
  7  9  1  0
  7 10  1  0
  5 11  2  0
 11 12  1  0
 11 13  1  0
 13 14  1  0
 14 15  1  0
 14 16  1  0
 14 17  1  0
 17 18  2  0
 17 19  1  0
 19 20  1  0
 19 21  1  0
 21 22  2  0
 22 23  1  0
 23 24  1  0
 24 25  1  0
 24 26  1  0
 26 27  1  0
 27 28  1  0
 27 29  1  0
 27 30  1  0
 26 31  1  0
 31 32  1  0
 31 33  1  0
 31 34  1  0
 26 35  1  0
 35 36  1  0
 35 37  1  0
 35 38  1  0
 23 39  2  0
 39 40  1  0
 40 41  3  0
 39 42  1  0
 42 43  1  0
 43 44  1  0
 43 45  1  0
 42 46  2  0
 46 47  1  0
 13 48  2  0
 48 49  1  0
 49 50  1  0
 50 51  1  0
 50 52  1  0
 50 53  1  0
 48  2  1  0
 46 21  1  0
M  END
>  <score>  (256) 
7.18464

$$$$

     RDKit          3D

 58 60  0  0  0  0  0  0  0  0999 V2000
    0.2863  149.1726   51.2323 H   0  0  0  0  0  0  0  0  0  0  0  0
    0.6167  149.5733   52.1823 C   0  0  0  0  0  0  0  0  0  0  0  0
   -0.1849  150.4734   52.9041 C   0  0  0  0  0  0  0  0  0  0  0  0
   -1.9180  150.9780   52.2638 Br  0  0  0  0  0  0  0  0  0  0  0  0
    0.3070  151.0346   54.1003 C   0  0  0  0  0  0  0  0  0  0  0  0
   -0.3848  151.9750   54.8064 O   0  0  0  0  0  0  0  0  0  0  0  0
   -1.4204  151.4054   55.6065 C   0  0  0  0  0  0  0  0  0  0  0  0
   -1.9339  152.1960   56.1641 H   0  0  0  0  0  0  0  0  0  0  0  0
   -1.0058  150.6871   56.3186 H   0  0  0  0  0  0  0  0  0  0  0  0
   -2.1470  150.8859   54.9754 H   0  0  0  0  0  0  0  0  0  0  0  0
    1.5610  150.6783   54.5784 C   0  0  0  0  0  0  0  0  0  0  0  0
    1.9425  151.1345   55.4963 H   0  0  0  0  0  0  0  0  0  0  0  0
    2.3339  149.7597   53.8722 C   0  0  0  0  0  0  0  0  0  0  0  0
    3.6910  149.4475   54.4193 C   0  0  0  0  0  0  0  0  0  0  0  0
    4.4179  149.4153   53.6065 H   0  0  0  0  0  0  0  0  0  0  0  0
    3.9564  150.2546   55.0891 H   0  0  0  0  0  0  0  0  0  0  0  0
    3.7432  148.1562   55.2161 C   0  0  0  0  0  0  0  0  0  0  0  0
    3.8164  148.1992   56.4319 O   0  0  0  0  0  0  0  0  0  0  0  0
    3.7153  146.9689   54.5658 N   0  0  0  0  0  0  0  0  0  0  0  0
    3.4231  146.9528   53.6034 H   0  0  0  0  0  0  0  0  0  0  0  0
    3.5859  145.7820   55.1697 C   0  0  0  0  0  0  0  0  0  0  0  0
    3.1212  144.9575   54.2693 N   0  0  0  0  0  0  0  0  0  0  0  0
    2.9492  143.6889   54.6115 C   0  0  0  0  0  0  0  0  0  0  0  0
    2.3940  142.7896   53.5653 C   0  0  0  0  0  0  0  0  0  0  0  0
    1.7578  143.3616   52.8872 H   0  0  0  0  0  0  0  0  0  0  0  0
    1.7853  142.0299   54.0460 H   0  0  0  0  0  0  0  0  0  0  0  0
    3.5446  142.1534   52.8026 C   0  0  0  0  0  0  0  0  0  0  0  0
    4.1820  141.5996   53.4988 H   0  0  0  0  0  0  0  0  0  0  0  0
    4.1512  142.9326   52.3334 H   0  0  0  0  0  0  0  0  0  0  0  0
    3.0990  141.2290   51.7509 N   0  0  0  0  0  0  0  0  0  0  0  0
    2.2182  141.8347   50.7220 C   0  0  0  0  0  0  0  0  0  0  0  0
    2.5357  142.8614   50.5197 H   0  0  0  0  0  0  0  0  0  0  0  0
    1.1912  141.8657   51.0988 H   0  0  0  0  0  0  0  0  0  0  0  0
    2.2326  141.0895   49.3777 C   0  0  0  0  0  0  0  0  0  0  0  0
    1.6535  140.1790   49.4702 H   0  0  0  0  0  0  0  0  0  0  0  0
    1.7091  141.6994   48.6455 H   0  0  0  0  0  0  0  0  0  0  0  0
    3.5379  140.7749   48.8520 O   0  0  0  0  0  0  0  0  0  0  0  0
    4.6211  140.8677   49.7931 C   0  0  0  0  0  0  0  0  0  0  0  0
    4.9826  141.8970   49.8384 H   0  0  0  0  0  0  0  0  0  0  0  0
    5.4400  140.2347   49.4438 H   0  0  0  0  0  0  0  0  0  0  0  0
    4.2342  140.4336   51.2076 C   0  0  0  0  0  0  0  0  0  0  0  0
    5.1095  140.5399   51.8473 H   0  0  0  0  0  0  0  0  0  0  0  0
    4.0139  139.3692   51.2106 H   0  0  0  0  0  0  0  0  0  0  0  0
    3.2750  143.2198   55.8718 C   0  0  0  0  0  0  0  0  0  0  0  0
    3.1502  141.8345   56.1887 C   0  0  0  0  0  0  0  0  0  0  0  0
    3.0681  140.7004   56.4370 N   0  0  0  0  0  0  0  0  0  0  0  0
    3.7492  144.1344   56.7805 C   0  0  0  0  0  0  0  0  0  0  0  0
    4.1201  143.7604   58.0197 N   0  0  0  0  0  0  0  0  0  0  0  0
    4.0693  142.7788   58.2775 H   0  0  0  0  0  0  0  0  0  0  0  0
    4.4787  144.4592   58.6643 H   0  0  0  0  0  0  0  0  0  0  0  0
    3.8946  145.4496   56.4649 C   0  0  0  0  0  0  0  0  0  0  0  0
    4.2730  146.1449   57.1969 H   0  0  0  0  0  0  0  0  0  0  0  0
    1.8884  149.2185   52.6559 C   0  0  0  0  0  0  0  0  0  0  0  0
    2.7575  148.4072   51.9699 O   0  0  0  0  0  0  0  0  0  0  0  0
    2.1464  147.3154   51.2786 C   0  0  0  0  0  0  0  0  0  0  0  0
    1.4538  146.7901   51.9436 H   0  0  0  0  0  0  0  0  0  0  0  0
    2.9127  146.6057   50.9531 H   0  0  0  0  0  0  0  0  0  0  0  0
    1.5994  147.6636   50.3971 H   0  0  0  0  0  0  0  0  0  0  0  0
  1  2  1  0
  2  3  2  0
  3  4  1  0
  3  5  1  0
  5  6  1  0
  6  7  1  0
  7  8  1  0
  7  9  1  0
  7 10  1  0
  5 11  2  0
 11 12  1  0
 11 13  1  0
 13 14  1  0
 14 15  1  0
 14 16  1  0
 14 17  1  0
 17 18  2  0
 17 19  1  0
 19 20  1  0
 19 21  1  0
 21 22  2  0
 22 23  1  0
 23 24  1  0
 24 25  1  0
 24 26  1  0
 24 27  1  0
 27 28  1  0
 27 29  1  0
 27 30  1  0
 30 31  1  0
 31 32  1  0
 31 33  1  0
 31 34  1  0
 34 35  1  0
 34 36  1  0
 34 37  1  0
 37 38  1  0
 38 39  1  0
 38 40  1  0
 38 41  1  0
 41 42  1  0
 41 43  1  0
 23 44  2  0
 44 45  1  0
 45 46  3  0
 44 47  1  0
 47 48  1  0
 48 49  1  0
 48 50  1  0
 47 51  2  0
 51 52  1  0
 13 53  2  0
 53 54  1  0
 54 55  1  0
 55 56  1  0
 55 57  1  0
 55 58  1  0
 53  2  1  0
 51 21  1  0
 41 30  1  0
M  END
>  <score>  (257) 
7.18556

$$$$

     RDKit          3D

 49 51  0  0  0  0  0  0  0  0999 V2000
    3.5917  142.6862   49.6713 H   0  0  0  0  0  0  0  0  0  0  0  0
    3.0575  142.5440   50.6081 C   0  0  0  0  0  0  0  0  0  0  0  0
    1.8607  141.8151   50.6303 C   0  0  0  0  0  0  0  0  0  0  0  0
    1.4558  141.3646   49.7294 H   0  0  0  0  0  0  0  0  0  0  0  0
    1.1510  141.6715   51.8253 C   0  0  0  0  0  0  0  0  0  0  0  0
   -0.0189  140.9926   51.8362 F   0  0  0  0  0  0  0  0  0  0  0  0
    1.6326  142.2793   52.9866 C   0  0  0  0  0  0  0  0  0  0  0  0
    1.0108  142.2692   53.8668 H   0  0  0  0  0  0  0  0  0  0  0  0
    2.8290  143.0130   53.0001 C   0  0  0  0  0  0  0  0  0  0  0  0
    3.2533  143.7660   54.2084 C   0  0  0  0  0  0  0  0  0  0  0  0
    3.4616  145.0556   53.9725 N   0  0  0  0  0  0  0  0  0  0  0  0
    3.7519  145.8560   54.9600 C   0  0  0  0  0  0  0  0  0  0  0  0
    3.7865  147.1023   54.4724 N   0  0  0  0  0  0  0  0  0  0  0  0
    3.5248  147.1847   53.4985 H   0  0  0  0  0  0  0  0  0  0  0  0
    3.7053  148.2165   55.2401 C   0  0  0  0  0  0  0  0  0  0  0  0
    3.7826  148.1563   56.4552 O   0  0  0  0  0  0  0  0  0  0  0  0
    3.6417  149.5409   54.5100 C   0  0  0  0  0  0  0  0  0  0  0  0
    3.8427  150.3434   55.2176 H   0  0  0  0  0  0  0  0  0  0  0  0
    4.4245  149.5499   53.7509 H   0  0  0  0  0  0  0  0  0  0  0  0
    2.2999  149.8017   53.8779 C   0  0  0  0  0  0  0  0  0  0  0  0
    1.4736  150.6966   54.5537 C   0  0  0  0  0  0  0  0  0  0  0  0
    1.7981  151.1243   55.4976 H   0  0  0  0  0  0  0  0  0  0  0  0
    0.2390  151.0617   54.0356 C   0  0  0  0  0  0  0  0  0  0  0  0
   -0.4887  151.9985   54.7092 O   0  0  0  0  0  0  0  0  0  0  0  0
   -1.4843  151.4047   55.5388 C   0  0  0  0  0  0  0  0  0  0  0  0
   -1.9762  152.1726   56.1448 H   0  0  0  0  0  0  0  0  0  0  0  0
   -1.0262  150.6696   56.2050 H   0  0  0  0  0  0  0  0  0  0  0  0
   -2.2367  150.9020   54.9250 H   0  0  0  0  0  0  0  0  0  0  0  0
   -0.2234  150.4657   52.8555 C   0  0  0  0  0  0  0  0  0  0  0  0
   -1.9588  150.8915   52.1700 Br  0  0  0  0  0  0  0  0  0  0  0  0
    0.5915  149.5464   52.1816 C   0  0  0  0  0  0  0  0  0  0  0  0
    0.2264  149.0968   51.2666 H   0  0  0  0  0  0  0  0  0  0  0  0
    1.8717  149.2157   52.6676 C   0  0  0  0  0  0  0  0  0  0  0  0
    2.7151  148.3531   52.0045 O   0  0  0  0  0  0  0  0  0  0  0  0
    2.0784  147.3103   51.2539 C   0  0  0  0  0  0  0  0  0  0  0  0
    1.5383  147.7132   50.3925 H   0  0  0  0  0  0  0  0  0  0  0  0
    1.3729  146.7571   51.8816 H   0  0  0  0  0  0  0  0  0  0  0  0
    2.8358  146.6095   50.8929 H   0  0  0  0  0  0  0  0  0  0  0  0
    3.8945  145.4614   56.2577 C   0  0  0  0  0  0  0  0  0  0  0  0
    4.1481  146.1680   57.0328 H   0  0  0  0  0  0  0  0  0  0  0  0
    3.6697  144.1492   56.5256 C   0  0  0  0  0  0  0  0  0  0  0  0
    3.8098  143.7793   57.8179 N   0  0  0  0  0  0  0  0  0  0  0  0
    4.0018  142.7943   57.9615 H   0  0  0  0  0  0  0  0  0  0  0  0
    4.3160  144.4488   58.4020 H   0  0  0  0  0  0  0  0  0  0  0  0
    3.3395  143.2604   55.5153 C   0  0  0  0  0  0  0  0  0  0  0  0
    3.1236  141.8898   55.8275 C   0  0  0  0  0  0  0  0  0  0  0  0
    2.9794  140.7668   56.1007 N   0  0  0  0  0  0  0  0  0  0  0  0
    3.5267  143.1420   51.7809 C   0  0  0  0  0  0  0  0  0  0  0  0
    4.4220  143.7516   51.7243 H   0  0  0  0  0  0  0  0  0  0  0  0
  1  2  1  0
  2  3  2  0
  3  4  1  0
  3  5  1  0
  5  6  1  0
  5  7  2  0
  7  8  1  0
  7  9  1  0
  9 10  1  0
 10 11  2  0
 11 12  1  0
 12 13  1  0
 13 14  1  0
 13 15  1  0
 15 16  2  0
 15 17  1  0
 17 18  1  0
 17 19  1  0
 17 20  1  0
 20 21  2  0
 21 22  1  0
 21 23  1  0
 23 24  1  0
 24 25  1  0
 25 26  1  0
 25 27  1  0
 25 28  1  0
 23 29  2  0
 29 30  1  0
 29 31  1  0
 31 32  1  0
 31 33  2  0
 33 34  1  0
 34 35  1  0
 35 36  1  0
 35 37  1  0
 35 38  1  0
 12 39  2  0
 39 40  1  0
 39 41  1  0
 41 42  1  0
 42 43  1  0
 42 44  1  0
 41 45  2  0
 45 46  1  0
 46 47  3  0
  9 48  2  0
 48 49  1  0
 48  2  1  0
 45 10  1  0
 33 20  1  0
M  END
>  <score>  (258) 
7.18632

$$$$

     RDKit          3D

 53 55  0  0  0  0  0  0  0  0999 V2000
    0.2765  149.1629   51.2318 H   0  0  0  0  0  0  0  0  0  0  0  0
    0.6081  149.5696   52.1825 C   0  0  0  0  0  0  0  0  0  0  0  0
   -0.1959  150.4701   52.9022 C   0  0  0  0  0  0  0  0  0  0  0  0
   -1.9277  150.9693   52.2552 Br  0  0  0  0  0  0  0  0  0  0  0  0
    0.2996  151.0355   54.0900 C   0  0  0  0  0  0  0  0  0  0  0  0
   -0.3923  151.9787   54.7896 O   0  0  0  0  0  0  0  0  0  0  0  0
   -1.4228  151.4055   55.5925 C   0  0  0  0  0  0  0  0  0  0  0  0
   -2.1519  150.8893   54.9627 H   0  0  0  0  0  0  0  0  0  0  0  0
   -1.0054  150.6850   56.2994 H   0  0  0  0  0  0  0  0  0  0  0  0
   -1.9340  152.1906   56.1580 H   0  0  0  0  0  0  0  0  0  0  0  0
    1.5479  150.6695   54.5748 C   0  0  0  0  0  0  0  0  0  0  0  0
    1.9189  151.1249   55.4915 H   0  0  0  0  0  0  0  0  0  0  0  0
    2.3321  149.7591   53.8743 C   0  0  0  0  0  0  0  0  0  0  0  0
    3.6837  149.4458   54.4253 C   0  0  0  0  0  0  0  0  0  0  0  0
    3.9314  150.2341   55.1171 H   0  0  0  0  0  0  0  0  0  0  0  0
    4.4191  149.4287   53.6216 H   0  0  0  0  0  0  0  0  0  0  0  0
    3.7294  148.1545   55.2094 C   0  0  0  0  0  0  0  0  0  0  0  0
    3.8076  148.1790   56.4209 O   0  0  0  0  0  0  0  0  0  0  0  0
    3.7232  146.9718   54.5545 N   0  0  0  0  0  0  0  0  0  0  0  0
    3.4074  146.9584   53.6007 H   0  0  0  0  0  0  0  0  0  0  0  0
    3.6097  145.7829   55.1583 C   0  0  0  0  0  0  0  0  0  0  0  0
    3.1441  144.9592   54.2571 N   0  0  0  0  0  0  0  0  0  0  0  0
    2.9708  143.6945   54.6034 C   0  0  0  0  0  0  0  0  0  0  0  0
    2.3657  142.8249   53.5546 C   0  0  0  0  0  0  0  0  0  0  0  0
    1.8266  142.0238   54.0498 H   0  0  0  0  0  0  0  0  0  0  0  0
    1.6460  143.4056   52.9755 H   0  0  0  0  0  0  0  0  0  0  0  0
    3.4716  142.2559   52.6718 C   0  0  1  0  0  0  0  0  0  0  0  0
    4.0933  143.0650   52.2625 H   0  0  0  0  0  0  0  0  0  0  0  0
    4.2383  141.3806   53.5023 O   0  0  0  0  0  0  0  0  0  0  0  0
    4.7840  140.3157   52.7079 C   0  0  0  0  0  0  0  0  0  0  0  0
    4.4407  139.3483   53.1016 H   0  0  0  0  0  0  0  0  0  0  0  0
    5.8808  140.3315   52.7226 H   0  0  0  0  0  0  0  0  0  0  0  0
    4.2664  140.5393   51.2894 C   0  0  0  0  0  0  0  0  0  0  0  0
    4.0835  139.6052   50.7657 H   0  0  0  0  0  0  0  0  0  0  0  0
    5.0084  141.0959   50.7064 H   0  0  0  0  0  0  0  0  0  0  0  0
    3.0128  141.3707   51.5184 C   0  0  0  0  0  0  0  0  0  0  0  0
    2.1679  140.7482   51.8305 H   0  0  0  0  0  0  0  0  0  0  0  0
    2.7308  141.9407   50.6275 H   0  0  0  0  0  0  0  0  0  0  0  0
    3.2985  143.2284   55.8634 C   0  0  0  0  0  0  0  0  0  0  0  0
    3.1630  141.8458   56.1805 C   0  0  0  0  0  0  0  0  0  0  0  0
    3.0702  140.7149   56.4224 N   0  0  0  0  0  0  0  0  0  0  0  0
    3.7602  144.1364   56.7828 C   0  0  0  0  0  0  0  0  0  0  0  0
    4.0880  143.7699   58.0371 N   0  0  0  0  0  0  0  0  0  0  0  0
    4.4840  144.4691   58.6633 H   0  0  0  0  0  0  0  0  0  0  0  0
    4.0892  142.7807   58.2740 H   0  0  0  0  0  0  0  0  0  0  0  0
    3.9068  145.4486   56.4564 C   0  0  0  0  0  0  0  0  0  0  0  0
    4.2625  146.1550   57.1896 H   0  0  0  0  0  0  0  0  0  0  0  0
    1.8827  149.2186   52.6620 C   0  0  0  0  0  0  0  0  0  0  0  0
    2.7466  148.4047   51.9725 O   0  0  0  0  0  0  0  0  0  0  0  0
    2.1373  147.3174   51.2760 C   0  0  0  0  0  0  0  0  0  0  0  0
    1.4456  146.7924   51.9391 H   0  0  0  0  0  0  0  0  0  0  0  0
    2.9022  146.6082   50.9464 H   0  0  0  0  0  0  0  0  0  0  0  0
    1.5914  147.6727   50.3987 H   0  0  0  0  0  0  0  0  0  0  0  0
  1  2  1  0
  2  3  2  0
  3  4  1  0
  3  5  1  0
  5  6  1  0
  6  7  1  0
  7  8  1  0
  7  9  1  0
  7 10  1  0
  5 11  2  0
 11 12  1  0
 11 13  1  0
 13 14  1  0
 14 15  1  0
 14 16  1  0
 14 17  1  0
 17 18  2  0
 17 19  1  0
 19 20  1  0
 19 21  1  0
 21 22  2  0
 22 23  1  0
 23 24  1  0
 24 25  1  0
 24 26  1  0
 24 27  1  0
 27 28  1  6
 27 29  1  0
 29 30  1  0
 30 31  1  0
 30 32  1  0
 30 33  1  0
 33 34  1  0
 33 35  1  0
 33 36  1  0
 36 37  1  0
 36 38  1  0
 23 39  2  0
 39 40  1  0
 40 41  3  0
 39 42  1  0
 42 43  1  0
 43 44  1  0
 43 45  1  0
 42 46  2  0
 46 47  1  0
 13 48  2  0
 48 49  1  0
 49 50  1  0
 50 51  1  0
 50 52  1  0
 50 53  1  0
 48  2  1  0
 46 21  1  0
 36 27  1  0
M  END
>  <score>  (259) 
7.18727

$$$$

     RDKit          3D

 52 54  0  0  0  0  0  0  0  0999 V2000
    0.1308  141.1998   52.2275 H   0  0  0  0  0  0  0  0  0  0  0  0
    1.0738  141.7177   52.0821 C   0  0  0  0  0  0  0  0  0  0  0  0
    1.7458  142.2863   53.1703 C   0  0  0  0  0  0  0  0  0  0  0  0
    1.3280  142.1900   54.1674 H   0  0  0  0  0  0  0  0  0  0  0  0
    2.9248  143.0176   52.9876 C   0  0  0  0  0  0  0  0  0  0  0  0
    3.4350  143.7970   54.1332 C   0  0  0  0  0  0  0  0  0  0  0  0
    3.6437  145.0936   53.8894 N   0  0  0  0  0  0  0  0  0  0  0  0
    3.8371  145.9083   54.9012 C   0  0  0  0  0  0  0  0  0  0  0  0
    3.8370  147.1761   54.4753 N   0  0  0  0  0  0  0  0  0  0  0  0
    3.7398  147.2564   53.4807 H   0  0  0  0  0  0  0  0  0  0  0  0
    3.7043  148.2917   55.2487 C   0  0  0  0  0  0  0  0  0  0  0  0
    3.7712  148.2194   56.4637 O   0  0  0  0  0  0  0  0  0  0  0  0
    3.6315  149.6344   54.5400 C   0  0  0  0  0  0  0  0  0  0  0  0
    3.7716  150.4303   55.2756 H   0  0  0  0  0  0  0  0  0  0  0  0
    4.4330  149.6797   53.7941 H   0  0  0  0  0  0  0  0  0  0  0  0
    2.2946  149.8648   53.8883 C   0  0  0  0  0  0  0  0  0  0  0  0
    1.4417  150.7690   54.5375 C   0  0  0  0  0  0  0  0  0  0  0  0
    1.7548  151.2351   55.4684 H   0  0  0  0  0  0  0  0  0  0  0  0
    0.1919  151.0940   54.0120 C   0  0  0  0  0  0  0  0  0  0  0  0
   -0.5918  152.0082   54.6679 O   0  0  0  0  0  0  0  0  0  0  0  0
   -1.5554  151.3924   55.5290 C   0  0  0  0  0  0  0  0  0  0  0  0
   -2.0243  152.1523   56.1585 H   0  0  0  0  0  0  0  0  0  0  0  0
   -1.0849  150.6552   56.1866 H   0  0  0  0  0  0  0  0  0  0  0  0
   -2.3358  150.8984   54.9412 H   0  0  0  0  0  0  0  0  0  0  0  0
   -0.2277  150.4675   52.8261 C   0  0  0  0  0  0  0  0  0  0  0  0
   -1.9565  150.8312   52.0892 Br  0  0  0  0  0  0  0  0  0  0  0  0
    0.6090  149.5366   52.1871 C   0  0  0  0  0  0  0  0  0  0  0  0
    0.2696  149.0407   51.2833 H   0  0  0  0  0  0  0  0  0  0  0  0
    1.8791  149.2186   52.6988 C   0  0  0  0  0  0  0  0  0  0  0  0
    2.6987  148.2940   52.0790 O   0  0  0  0  0  0  0  0  0  0  0  0
    2.0538  147.3049   51.2496 C   0  0  0  0  0  0  0  0  0  0  0  0
    2.7947  146.6037   50.8477 H   0  0  0  0  0  0  0  0  0  0  0  0
    1.5303  147.7625   50.4015 H   0  0  0  0  0  0  0  0  0  0  0  0
    1.3324  146.7328   51.8430 H   0  0  0  0  0  0  0  0  0  0  0  0
    3.9175  145.5117   56.1972 C   0  0  0  0  0  0  0  0  0  0  0  0
    4.0747  146.2216   56.9934 H   0  0  0  0  0  0  0  0  0  0  0  0
    3.7601  144.1841   56.4486 C   0  0  0  0  0  0  0  0  0  0  0  0
    3.8454  143.8029   57.7445 N   0  0  0  0  0  0  0  0  0  0  0  0
    3.9870  142.8166   57.9550 H   0  0  0  0  0  0  0  0  0  0  0  0
    4.2176  144.4978   58.3860 H   0  0  0  0  0  0  0  0  0  0  0  0
    3.4859  143.2930   55.4363 C   0  0  0  0  0  0  0  0  0  0  0  0
    3.2382  141.9182   55.7336 C   0  0  0  0  0  0  0  0  0  0  0  0
    3.0412  140.7958   55.9614 N   0  0  0  0  0  0  0  0  0  0  0  0
    3.4736  143.0915   51.6889 C   0  0  0  0  0  0  0  0  0  0  0  0
    4.3758  143.6702   51.5066 H   0  0  0  0  0  0  0  0  0  0  0  0
    2.8380  142.4667   50.6041 C   0  0  0  0  0  0  0  0  0  0  0  0
    3.5026  142.4306   49.2603 C   0  0  0  0  0  0  0  0  0  0  0  0
    3.0610  143.1718   48.5909 H   0  0  0  0  0  0  0  0  0  0  0  0
    4.5742  142.6405   49.3789 H   0  0  0  0  0  0  0  0  0  0  0  0
    3.3689  141.4364   48.8130 H   0  0  0  0  0  0  0  0  0  0  0  0
    1.6130  141.8223   50.7994 C   0  0  0  0  0  0  0  0  0  0  0  0
    1.0936  141.3893   49.9519 H   0  0  0  0  0  0  0  0  0  0  0  0
  1  2  1  0
  2  3  2  0
  3  4  1  0
  3  5  1  0
  5  6  1  0
  6  7  2  0
  7  8  1  0
  8  9  1  0
  9 10  1  0
  9 11  1  0
 11 12  2  0
 11 13  1  0
 13 14  1  0
 13 15  1  0
 13 16  1  0
 16 17  2  0
 17 18  1  0
 17 19  1  0
 19 20  1  0
 20 21  1  0
 21 22  1  0
 21 23  1  0
 21 24  1  0
 19 25  2  0
 25 26  1  0
 25 27  1  0
 27 28  1  0
 27 29  2  0
 29 30  1  0
 30 31  1  0
 31 32  1  0
 31 33  1  0
 31 34  1  0
  8 35  2  0
 35 36  1  0
 35 37  1  0
 37 38  1  0
 38 39  1  0
 38 40  1  0
 37 41  2  0
 41 42  1  0
 42 43  3  0
  5 44  2  0
 44 45  1  0
 44 46  1  0
 46 47  1  0
 47 48  1  0
 47 49  1  0
 47 50  1  0
 46 51  2  0
 51 52  1  0
 51  2  1  0
 41  6  1  0
 29 16  1  0
M  END
>  <score>  (260) 
7.18797

$$$$

     RDKit          3D

 51 53  0  0  0  0  0  0  0  0999 V2000
   -0.3186  144.8516   49.5402 H   0  0  0  0  0  0  0  0  0  0  0  0
    0.2796  144.4334   50.3488 C   0  0  0  0  0  0  0  0  0  0  0  0
   -0.3405  144.1170   51.4932 N   0  0  0  0  0  0  0  0  0  0  0  0
    0.3585  143.5648   52.4961 C   0  0  0  0  0  0  0  0  0  0  0  0
   -0.1720  143.2837   53.3982 H   0  0  0  0  0  0  0  0  0  0  0  0
    1.7374  143.3052   52.4100 C   0  0  0  0  0  0  0  0  0  0  0  0
    2.5380  142.6986   53.5596 C   0  0  0  0  0  0  0  0  0  0  0  0
    1.9235  141.9465   54.0511 H   0  0  0  0  0  0  0  0  0  0  0  0
    3.4207  142.1973   53.1481 H   0  0  0  0  0  0  0  0  0  0  0  0
    3.0170  143.6835   54.6076 C   0  0  0  0  0  0  0  0  0  0  0  0
    3.1822  144.9502   54.2350 N   0  0  0  0  0  0  0  0  0  0  0  0
    3.6235  145.8053   55.1193 C   0  0  0  0  0  0  0  0  0  0  0  0
    3.7185  147.0133   54.5402 N   0  0  0  0  0  0  0  0  0  0  0  0
    3.4225  147.0384   53.5759 H   0  0  0  0  0  0  0  0  0  0  0  0
    3.7095  148.1723   55.2372 C   0  0  0  0  0  0  0  0  0  0  0  0
    3.7958  148.1675   56.4544 O   0  0  0  0  0  0  0  0  0  0  0  0
    3.6753  149.4764   54.4648 C   0  0  0  0  0  0  0  0  0  0  0  0
    4.4423  149.4663   53.6832 H   0  0  0  0  0  0  0  0  0  0  0  0
    3.8889  150.2660   55.1761 H   0  0  0  0  0  0  0  0  0  0  0  0
    2.3294  149.7746   53.8661 C   0  0  0  0  0  0  0  0  0  0  0  0
    1.5136  150.6691   54.5593 C   0  0  0  0  0  0  0  0  0  0  0  0
    1.8511  151.0988   55.4953 H   0  0  0  0  0  0  0  0  0  0  0  0
    0.2708  151.0504   54.0667 C   0  0  0  0  0  0  0  0  0  0  0  0
   -0.4407  151.9933   54.7526 O   0  0  0  0  0  0  0  0  0  0  0  0
   -1.4530  151.4035   55.5624 C   0  0  0  0  0  0  0  0  0  0  0  0
   -1.9512  152.1785   56.1505 H   0  0  0  0  0  0  0  0  0  0  0  0
   -1.0102  150.6771   56.2481 H   0  0  0  0  0  0  0  0  0  0  0  0
   -2.1939  150.8972   54.9359 H   0  0  0  0  0  0  0  0  0  0  0  0
   -0.2079  150.4701   52.8839 C   0  0  0  0  0  0  0  0  0  0  0  0
   -1.9429  150.9273   52.2085 Br  0  0  0  0  0  0  0  0  0  0  0  0
    0.6025  149.5590   52.1881 C   0  0  0  0  0  0  0  0  0  0  0  0
    0.2403  149.1335   51.2606 H   0  0  0  0  0  0  0  0  0  0  0  0
    1.8855  149.2135   52.6563 C   0  0  0  0  0  0  0  0  0  0  0  0
    2.7271  148.3647   51.9775 O   0  0  0  0  0  0  0  0  0  0  0  0
    2.0970  147.2973   51.2639 C   0  0  0  0  0  0  0  0  0  0  0  0
    1.4036  146.7539   51.9162 H   0  0  0  0  0  0  0  0  0  0  0  0
    1.5516  147.6800   50.3956 H   0  0  0  0  0  0  0  0  0  0  0  0
    2.8658  146.6000   50.9176 H   0  0  0  0  0  0  0  0  0  0  0  0
    3.9161  145.4947   56.4257 C   0  0  0  0  0  0  0  0  0  0  0  0
    4.2637  146.2328   57.1287 H   0  0  0  0  0  0  0  0  0  0  0  0
    3.7531  144.1931   56.8075 C   0  0  0  0  0  0  0  0  0  0  0  0
    4.0269  143.8392   58.0918 N   0  0  0  0  0  0  0  0  0  0  0  0
    4.1267  142.8500   58.3109 H   0  0  0  0  0  0  0  0  0  0  0  0
    4.4859  144.5226   58.6876 H   0  0  0  0  0  0  0  0  0  0  0  0
    3.3133  143.2619   55.9002 C   0  0  0  0  0  0  0  0  0  0  0  0
    3.1919  141.8823   56.2485 C   0  0  0  0  0  0  0  0  0  0  0  0
    3.1042  140.7413   56.4384 N   0  0  0  0  0  0  0  0  0  0  0  0
    2.3696  143.5606   51.1900 C   0  0  0  0  0  0  0  0  0  0  0  0
    3.4224  143.3215   51.0467 H   0  0  0  0  0  0  0  0  0  0  0  0
    1.6294  144.1451   50.1588 C   0  0  0  0  0  0  0  0  0  0  0  0
    2.0838  144.3132   49.1862 H   0  0  0  0  0  0  0  0  0  0  0  0
  1  2  1  0
  2  3  2  0
  3  4  1  0
  4  5  1  0
  4  6  2  0
  6  7  1  0
  7  8  1  0
  7  9  1  0
  7 10  1  0
 10 11  2  0
 11 12  1  0
 12 13  1  0
 13 14  1  0
 13 15  1  0
 15 16  2  0
 15 17  1  0
 17 18  1  0
 17 19  1  0
 17 20  1  0
 20 21  2  0
 21 22  1  0
 21 23  1  0
 23 24  1  0
 24 25  1  0
 25 26  1  0
 25 27  1  0
 25 28  1  0
 23 29  2  0
 29 30  1  0
 29 31  1  0
 31 32  1  0
 31 33  2  0
 33 34  1  0
 34 35  1  0
 35 36  1  0
 35 37  1  0
 35 38  1  0
 12 39  2  0
 39 40  1  0
 39 41  1  0
 41 42  1  0
 42 43  1  0
 42 44  1  0
 41 45  2  0
 45 46  1  0
 46 47  3  0
  6 48  1  0
 48 49  1  0
 48 50  2  0
 50 51  1  0
 50  2  1  0
 45 10  1  0
 33 20  1  0
M  END
>  <score>  (261) 
7.18908

$$$$

     RDKit          3D

 54 56  0  0  0  0  0  0  0  0999 V2000
    0.2811  149.1667   51.2273 H   0  0  0  0  0  0  0  0  0  0  0  0
    0.6094  149.5680   52.1791 C   0  0  0  0  0  0  0  0  0  0  0  0
   -0.1919  150.4690   52.9019 C   0  0  0  0  0  0  0  0  0  0  0  0
   -1.9257  150.9761   52.2617 Br  0  0  0  0  0  0  0  0  0  0  0  0
    0.3051  151.0314   54.0941 C   0  0  0  0  0  0  0  0  0  0  0  0
   -0.3860  151.9750   54.7960 O   0  0  0  0  0  0  0  0  0  0  0  0
   -1.4191  151.4047   55.5969 C   0  0  0  0  0  0  0  0  0  0  0  0
   -2.1462  150.8883   54.9648 H   0  0  0  0  0  0  0  0  0  0  0  0
   -1.0037  150.6843   56.3057 H   0  0  0  0  0  0  0  0  0  0  0  0
   -1.9302  152.1944   56.1569 H   0  0  0  0  0  0  0  0  0  0  0  0
    1.5553  150.6686   54.5793 C   0  0  0  0  0  0  0  0  0  0  0  0
    1.9323  151.1254   55.4965 H   0  0  0  0  0  0  0  0  0  0  0  0
    2.3281  149.7473   53.8772 C   0  0  0  0  0  0  0  0  0  0  0  0
    3.6823  149.4168   54.4255 C   0  0  0  0  0  0  0  0  0  0  0  0
    3.9502  150.1956   55.1285 H   0  0  0  0  0  0  0  0  0  0  0  0
    4.4131  149.4087   53.6160 H   0  0  0  0  0  0  0  0  0  0  0  0
    3.7200  148.1042   55.1878 C   0  0  0  0  0  0  0  0  0  0  0  0
    3.8010  148.1268   56.3999 O   0  0  0  0  0  0  0  0  0  0  0  0
    3.6597  146.9202   54.5237 N   0  0  0  0  0  0  0  0  0  0  0  0
    3.3650  146.9115   53.5593 H   0  0  0  0  0  0  0  0  0  0  0  0
    3.5051  145.7419   55.1288 C   0  0  0  0  0  0  0  0  0  0  0  0
    2.9768  144.9268   54.2576 N   0  0  0  0  0  0  0  0  0  0  0  0
    2.8496  143.6591   54.6137 C   0  0  0  0  0  0  0  0  0  0  0  0
    2.3050  142.7999   53.6660 N   0  0  0  0  0  0  0  0  0  0  0  0
    3.0977  141.6461   53.2028 C   0  0  0  0  0  0  0  0  0  0  0  0
    2.6725  140.7158   53.5876 H   0  0  0  0  0  0  0  0  0  0  0  0
    4.1149  141.7133   53.5872 H   0  0  0  0  0  0  0  0  0  0  0  0
    3.1578  141.6173   51.6645 C   0  0  0  0  0  0  0  0  0  0  0  0
    3.7035  140.7277   51.3409 H   0  0  0  0  0  0  0  0  0  0  0  0
    3.7207  142.4923   51.3307 H   0  0  0  0  0  0  0  0  0  0  0  0
    1.7801  141.6492   50.9766 C   0  0  0  0  0  0  0  0  0  0  0  0
    1.5246  140.6554   50.6057 H   0  0  0  0  0  0  0  0  0  0  0  0
    1.8161  142.3163   50.1086 H   0  0  0  0  0  0  0  0  0  0  0  0
    0.6881  142.1140   51.9356 C   0  0  0  0  0  0  0  0  0  0  0  0
   -0.2051  142.4097   51.3798 H   0  0  0  0  0  0  0  0  0  0  0  0
    0.4190  141.2692   52.5646 H   0  0  0  0  0  0  0  0  0  0  0  0
    1.1903  143.2627   52.8196 C   0  0  0  0  0  0  0  0  0  0  0  0
    0.3731  143.6374   53.4385 H   0  0  0  0  0  0  0  0  0  0  0  0
    1.5233  144.0848   52.1865 H   0  0  0  0  0  0  0  0  0  0  0  0
    3.2520  143.1873   55.8409 C   0  0  0  0  0  0  0  0  0  0  0  0
    3.1478  141.7982   56.1478 C   0  0  0  0  0  0  0  0  0  0  0  0
    3.0819  140.6668   56.4018 N   0  0  0  0  0  0  0  0  0  0  0  0
    3.7408  144.1029   56.7346 C   0  0  0  0  0  0  0  0  0  0  0  0
    4.1439  143.7485   57.9647 N   0  0  0  0  0  0  0  0  0  0  0  0
    4.4526  144.4703   58.6123 H   0  0  0  0  0  0  0  0  0  0  0  0
    4.0621  142.7787   58.2516 H   0  0  0  0  0  0  0  0  0  0  0  0
    3.8652  145.4132   56.4076 C   0  0  0  0  0  0  0  0  0  0  0  0
    4.2619  146.1189   57.1236 H   0  0  0  0  0  0  0  0  0  0  0  0
    1.8809  149.2136   52.6590 C   0  0  0  0  0  0  0  0  0  0  0  0
    2.7506  148.4052   51.9692 O   0  0  0  0  0  0  0  0  0  0  0  0
    2.1405  147.3159   51.2775 C   0  0  0  0  0  0  0  0  0  0  0  0
    1.4460  146.7951   51.9424 H   0  0  0  0  0  0  0  0  0  0  0  0
    1.5969  147.6668   50.3961 H   0  0  0  0  0  0  0  0  0  0  0  0
    2.9059  146.6048   50.9544 H   0  0  0  0  0  0  0  0  0  0  0  0
  1  2  1  0
  2  3  2  0
  3  4  1  0
  3  5  1  0
  5  6  1  0
  6  7  1  0
  7  8  1  0
  7  9  1  0
  7 10  1  0
  5 11  2  0
 11 12  1  0
 11 13  1  0
 13 14  1  0
 14 15  1  0
 14 16  1  0
 14 17  1  0
 17 18  2  0
 17 19  1  0
 19 20  1  0
 19 21  1  0
 21 22  2  0
 22 23  1  0
 23 24  1  0
 24 25  1  0
 25 26  1  0
 25 27  1  0
 25 28  1  0
 28 29  1  0
 28 30  1  0
 28 31  1  0
 31 32  1  0
 31 33  1  0
 31 34  1  0
 34 35  1  0
 34 36  1  0
 34 37  1  0
 37 38  1  0
 37 39  1  0
 23 40  2  0
 40 41  1  0
 41 42  3  0
 40 43  1  0
 43 44  1  0
 44 45  1  0
 44 46  1  0
 43 47  2  0
 47 48  1  0
 13 49  2  0
 49 50  1  0
 50 51  1  0
 51 52  1  0
 51 53  1  0
 51 54  1  0
 49  2  1  0
 47 21  1  0
 37 24  1  0
M  END
>  <score>  (262) 
7.18943

$$$$

     RDKit          3D

 47 49  0  0  0  0  0  0  0  0999 V2000
    0.3049  149.1930   51.2452 H   0  0  0  0  0  0  0  0  0  0  0  0
    0.6502  149.5965   52.1912 C   0  0  0  0  0  0  0  0  0  0  0  0
   -0.1523  150.4925   52.9287 C   0  0  0  0  0  0  0  0  0  0  0  0
   -1.8804  150.9859   52.2780 Br  0  0  0  0  0  0  0  0  0  0  0  0
    0.3253  151.0534   54.1265 C   0  0  0  0  0  0  0  0  0  0  0  0
   -0.3804  151.9761   54.8517 O   0  0  0  0  0  0  0  0  0  0  0  0
   -1.4243  151.4031   55.6391 C   0  0  0  0  0  0  0  0  0  0  0  0
   -1.9364  152.2021   56.1826 H   0  0  0  0  0  0  0  0  0  0  0  0
   -2.1498  150.8768   55.0111 H   0  0  0  0  0  0  0  0  0  0  0  0
   -1.0108  150.6985   56.3627 H   0  0  0  0  0  0  0  0  0  0  0  0
    1.5848  150.6883   54.5738 C   0  0  0  0  0  0  0  0  0  0  0  0
    1.9811  151.1452   55.4726 H   0  0  0  0  0  0  0  0  0  0  0  0
    2.3668  149.7831   53.8594 C   0  0  0  0  0  0  0  0  0  0  0  0
    3.7159  149.4891   54.4048 C   0  0  0  0  0  0  0  0  0  0  0  0
    4.4046  149.3813   53.5637 H   0  0  0  0  0  0  0  0  0  0  0  0
    3.9790  150.3650   54.9852 H   0  0  0  0  0  0  0  0  0  0  0  0
    3.7587  148.2331   55.2769 C   0  0  0  0  0  0  0  0  0  0  0  0
    3.8480  148.3001   56.4925 O   0  0  0  0  0  0  0  0  0  0  0  0
    3.7656  147.0189   54.6698 N   0  0  0  0  0  0  0  0  0  0  0  0
    3.5004  146.9466   53.7003 H   0  0  0  0  0  0  0  0  0  0  0  0
    3.5840  145.8552   55.2901 C   0  0  0  0  0  0  0  0  0  0  0  0
    3.1078  145.0626   54.3640 N   0  0  0  0  0  0  0  0  0  0  0  0
    2.9513  143.7535   54.6112 C   0  0  0  0  0  0  0  0  0  0  0  0
    2.4698  142.8601   53.4902 C   0  0  0  0  0  0  0  0  0  0  0  0
    2.6372  141.5617   53.5456 N   0  0  0  0  0  0  0  0  0  0  0  0
    2.1209  141.0605   52.3334 O   0  0  0  0  0  0  0  0  0  0  0  0
    1.7109  142.1477   51.6410 C   0  0  0  0  0  0  0  0  0  0  0  0
    1.0762  142.0631   50.3131 C   0  0  0  0  0  0  0  0  0  0  0  0
    0.0192  142.2189   50.4644 H   0  0  0  0  0  0  0  0  0  0  0  0
    1.4794  142.8255   49.6480 H   0  0  0  0  0  0  0  0  0  0  0  0
    1.2412  141.0837   49.8713 H   0  0  0  0  0  0  0  0  0  0  0  0
    1.8639  143.2587   52.2912 N   0  0  0  0  0  0  0  0  0  0  0  0
    3.2797  143.2560   55.8802 C   0  0  0  0  0  0  0  0  0  0  0  0
    3.1468  141.8708   56.1997 C   0  0  0  0  0  0  0  0  0  0  0  0
    3.0520  140.7385   56.4603 N   0  0  0  0  0  0  0  0  0  0  0  0
    3.7529  144.1489   56.8235 C   0  0  0  0  0  0  0  0  0  0  0  0
    4.1491  143.7344   58.0411 N   0  0  0  0  0  0  0  0  0  0  0  0
    4.5028  144.4276   58.6906 H   0  0  0  0  0  0  0  0  0  0  0  0
    4.0682  142.7557   58.3026 H   0  0  0  0  0  0  0  0  0  0  0  0
    3.9179  145.4774   56.5601 C   0  0  0  0  0  0  0  0  0  0  0  0
    4.3436  146.1463   57.3004 H   0  0  0  0  0  0  0  0  0  0  0  0
    1.9245  149.2337   52.6496 C   0  0  0  0  0  0  0  0  0  0  0  0
    2.7725  148.4045   51.9517 O   0  0  0  0  0  0  0  0  0  0  0  0
    2.1608  147.3003   51.2824 C   0  0  0  0  0  0  0  0  0  0  0  0
    1.6178  147.6442   50.3969 H   0  0  0  0  0  0  0  0  0  0  0  0
    2.9442  146.6008   50.9718 H   0  0  0  0  0  0  0  0  0  0  0  0
    1.4698  146.7749   51.9519 H   0  0  0  0  0  0  0  0  0  0  0  0
  1  2  1  0
  2  3  2  0
  3  4  1  0
  3  5  1  0
  5  6  1  0
  6  7  1  0
  7  8  1  0
  7  9  1  0
  7 10  1  0
  5 11  2  0
 11 12  1  0
 11 13  1  0
 13 14  1  0
 14 15  1  0
 14 16  1  0
 14 17  1  0
 17 18  2  0
 17 19  1  0
 19 20  1  0
 19 21  1  0
 21 22  2  0
 22 23  1  0
 23 24  1  0
 24 25  2  0
 25 26  1  0
 26 27  1  0
 27 28  1  0
 28 29  1  0
 28 30  1  0
 28 31  1  0
 27 32  2  0
 23 33  2  0
 33 34  1  0
 34 35  3  0
 33 36  1  0
 36 37  1  0
 37 38  1  0
 37 39  1  0
 36 40  2  0
 40 41  1  0
 13 42  2  0
 42 43  1  0
 43 44  1  0
 44 45  1  0
 44 46  1  0
 44 47  1  0
 42  2  1  0
 40 21  1  0
 32 24  1  0
M  END
>  <score>  (263) 
7.18969

$$$$

     RDKit          3D

 51 53  0  0  0  0  0  0  0  0999 V2000
    1.3492  142.2359   54.1085 H   0  0  0  0  0  0  0  0  0  0  0  0
    1.7725  142.2856   53.1168 C   0  0  0  0  0  0  0  0  0  0  0  0
    2.9464  143.0286   52.9158 C   0  0  0  0  0  0  0  0  0  0  0  0
    3.4363  143.8438   54.1006 C   0  0  0  0  0  0  0  0  0  0  0  0
    3.6388  145.1652   53.9200 N   0  0  0  0  0  0  0  0  0  0  0  0
    3.8296  145.9625   54.9468 C   0  0  0  0  0  0  0  0  0  0  0  0
    3.8548  147.2265   54.5177 N   0  0  0  0  0  0  0  0  0  0  0  0
    3.7724  147.2911   53.5144 H   0  0  0  0  0  0  0  0  0  0  0  0
    3.7170  148.3420   55.2797 C   0  0  0  0  0  0  0  0  0  0  0  0
    3.7596  148.2787   56.4995 O   0  0  0  0  0  0  0  0  0  0  0  0
    3.6247  149.6669   54.5490 C   0  0  0  0  0  0  0  0  0  0  0  0
    4.4261  149.7127   53.8068 H   0  0  0  0  0  0  0  0  0  0  0  0
    3.7609  150.4696   55.2696 H   0  0  0  0  0  0  0  0  0  0  0  0
    2.2867  149.8749   53.8955 C   0  0  0  0  0  0  0  0  0  0  0  0
    1.4293  150.7753   54.5422 C   0  0  0  0  0  0  0  0  0  0  0  0
    1.7400  151.2440   55.4732 H   0  0  0  0  0  0  0  0  0  0  0  0
    0.1809  151.0933   54.0115 C   0  0  0  0  0  0  0  0  0  0  0  0
   -0.6054  152.0071   54.6619 O   0  0  0  0  0  0  0  0  0  0  0  0
   -1.5610  151.3899   55.5280 C   0  0  0  0  0  0  0  0  0  0  0  0
   -2.0246  152.1521   56.1589 H   0  0  0  0  0  0  0  0  0  0  0  0
   -1.0831  150.6524   56.1797 H   0  0  0  0  0  0  0  0  0  0  0  0
   -2.3427  150.8947   54.9432 H   0  0  0  0  0  0  0  0  0  0  0  0
   -0.2327  150.4655   52.8240 C   0  0  0  0  0  0  0  0  0  0  0  0
   -1.9629  150.8249   52.0841 Br  0  0  0  0  0  0  0  0  0  0  0  0
    0.6093  149.5347   52.1895 C   0  0  0  0  0  0  0  0  0  0  0  0
    0.2775  149.0359   51.2833 H   0  0  0  0  0  0  0  0  0  0  0  0
    1.8797  149.2214   52.7058 C   0  0  0  0  0  0  0  0  0  0  0  0
    2.7073  148.3064   52.0807 O   0  0  0  0  0  0  0  0  0  0  0  0
    2.0635  147.3121   51.2577 C   0  0  0  0  0  0  0  0  0  0  0  0
    1.5392  147.7689   50.4089 H   0  0  0  0  0  0  0  0  0  0  0  0
    2.8081  146.6135   50.8585 H   0  0  0  0  0  0  0  0  0  0  0  0
    1.3431  146.7412   51.8554 H   0  0  0  0  0  0  0  0  0  0  0  0
    3.9047  145.5402   56.2336 C   0  0  0  0  0  0  0  0  0  0  0  0
    4.0852  146.2329   57.0392 H   0  0  0  0  0  0  0  0  0  0  0  0
    3.7502  144.2038   56.4534 C   0  0  0  0  0  0  0  0  0  0  0  0
    3.8591  143.8053   57.7501 N   0  0  0  0  0  0  0  0  0  0  0  0
    4.2138  144.4898   58.4107 H   0  0  0  0  0  0  0  0  0  0  0  0
    4.0119  142.8202   57.9482 H   0  0  0  0  0  0  0  0  0  0  0  0
    3.4787  143.3293   55.4138 C   0  0  0  0  0  0  0  0  0  0  0  0
    3.2411  141.9512   55.7126 C   0  0  0  0  0  0  0  0  0  0  0  0
    3.0452  140.8294   55.9482 N   0  0  0  0  0  0  0  0  0  0  0  0
    3.4569  143.1150   51.6586 N   0  0  0  0  0  0  0  0  0  0  0  0
    2.8276  142.5352   50.6210 C   0  0  0  0  0  0  0  0  0  0  0  0
    3.4713  142.5694   49.2853 C   0  0  0  0  0  0  0  0  0  0  0  0
    3.7009  141.5440   48.9825 H   0  0  0  0  0  0  0  0  0  0  0  0
    4.3964  143.1536   49.3462 H   0  0  0  0  0  0  0  0  0  0  0  0
    2.8002  143.0202   48.5498 H   0  0  0  0  0  0  0  0  0  0  0  0
    1.6204  141.8597   50.7855 C   0  0  0  0  0  0  0  0  0  0  0  0
    1.0833  141.4904   49.9193 H   0  0  0  0  0  0  0  0  0  0  0  0
    1.0917  141.7004   52.0550 C   0  0  0  0  0  0  0  0  0  0  0  0
    0.1553  141.1701   52.2178 H   0  0  0  0  0  0  0  0  0  0  0  0
  1  2  1  0
  2  3  2  0
  3  4  1  0
  4  5  2  0
  5  6  1  0
  6  7  1  0
  7  8  1  0
  7  9  1  0
  9 10  2  0
  9 11  1  0
 11 12  1  0
 11 13  1  0
 11 14  1  0
 14 15  2  0
 15 16  1  0
 15 17  1  0
 17 18  1  0
 18 19  1  0
 19 20  1  0
 19 21  1  0
 19 22  1  0
 17 23  2  0
 23 24  1  0
 23 25  1  0
 25 26  1  0
 25 27  2  0
 27 28  1  0
 28 29  1  0
 29 30  1  0
 29 31  1  0
 29 32  1  0
  6 33  2  0
 33 34  1  0
 33 35  1  0
 35 36  1  0
 36 37  1  0
 36 38  1  0
 35 39  2  0
 39 40  1  0
 40 41  3  0
  3 42  1  0
 42 43  2  0
 43 44  1  0
 44 45  1  0
 44 46  1  0
 44 47  1  0
 43 48  1  0
 48 49  1  0
 48 50  2  0
 50 51  1  0
 50  2  1  0
 39  4  1  0
 27 14  1  0
M  END
>  <score>  (264) 
7.18973

$$$$

     RDKit          3D

 53 55  0  0  0  0  0  0  0  0999 V2000
    0.1050  141.2175   52.2444 H   0  0  0  0  0  0  0  0  0  0  0  0
    1.0415  141.7457   52.1002 C   0  0  0  0  0  0  0  0  0  0  0  0
    1.5640  141.9010   50.8167 C   0  0  0  0  0  0  0  0  0  0  0  0
    1.0320  141.4684   49.9754 H   0  0  0  0  0  0  0  0  0  0  0  0
    2.7970  142.5547   50.6166 C   0  0  0  0  0  0  0  0  0  0  0  0
    3.4463  142.5068   49.2965 C   0  0  0  0  0  0  0  0  0  0  0  0
    2.9033  142.0266   48.3167 O   0  0  0  0  0  0  0  0  0  0  0  0
    4.7763  142.7670   49.0974 N   0  0  0  0  0  0  0  0  0  0  0  0
    5.1781  142.2729   48.3083 H   0  0  0  0  0  0  0  0  0  0  0  0
    5.3593  142.9905   49.8954 H   0  0  0  0  0  0  0  0  0  0  0  0
    3.4241  143.1556   51.7258 C   0  0  0  0  0  0  0  0  0  0  0  0
    4.3266  143.7518   51.5920 H   0  0  0  0  0  0  0  0  0  0  0  0
    2.8787  143.0263   53.0202 C   0  0  0  0  0  0  0  0  0  0  0  0
    3.3939  143.7867   54.1647 C   0  0  0  0  0  0  0  0  0  0  0  0
    3.6073  145.0749   53.9081 N   0  0  0  0  0  0  0  0  0  0  0  0
    3.8227  145.8916   54.9091 C   0  0  0  0  0  0  0  0  0  0  0  0
    3.8250  147.1510   54.4628 N   0  0  0  0  0  0  0  0  0  0  0  0
    3.6648  147.2264   53.4736 H   0  0  0  0  0  0  0  0  0  0  0  0
    3.7009  148.2633   55.2374 C   0  0  0  0  0  0  0  0  0  0  0  0
    3.7741  148.1961   56.4510 O   0  0  0  0  0  0  0  0  0  0  0  0
    3.6335  149.6019   54.5311 C   0  0  0  0  0  0  0  0  0  0  0  0
    3.7905  150.3897   55.2701 H   0  0  0  0  0  0  0  0  0  0  0  0
    4.4283  149.6427   53.7809 H   0  0  0  0  0  0  0  0  0  0  0  0
    2.2960  149.8406   53.8882 C   0  0  0  0  0  0  0  0  0  0  0  0
    1.4519  150.7397   54.5471 C   0  0  0  0  0  0  0  0  0  0  0  0
    1.7710  151.1926   55.4815 H   0  0  0  0  0  0  0  0  0  0  0  0
    0.2084  151.0821   54.0218 C   0  0  0  0  0  0  0  0  0  0  0  0
   -0.5569  152.0049   54.6824 O   0  0  0  0  0  0  0  0  0  0  0  0
   -1.5305  151.3953   55.5323 C   0  0  0  0  0  0  0  0  0  0  0  0
   -1.0664  150.6580   56.1937 H   0  0  0  0  0  0  0  0  0  0  0  0
   -2.3020  150.9011   54.9343 H   0  0  0  0  0  0  0  0  0  0  0  0
   -2.0046  152.1590   56.1531 H   0  0  0  0  0  0  0  0  0  0  0  0
   -0.2254  150.4663   52.8356 C   0  0  0  0  0  0  0  0  0  0  0  0
   -1.9572  150.8536   52.1149 Br  0  0  0  0  0  0  0  0  0  0  0  0
    0.6043  149.5383   52.1838 C   0  0  0  0  0  0  0  0  0  0  0  0
    0.2606  149.0574   51.2723 H   0  0  0  0  0  0  0  0  0  0  0  0
    1.8769  149.2142   52.6906 C   0  0  0  0  0  0  0  0  0  0  0  0
    2.7047  148.3097   52.0556 O   0  0  0  0  0  0  0  0  0  0  0  0
    2.0625  147.3060   51.2478 C   0  0  0  0  0  0  0  0  0  0  0  0
    1.3463  146.7420   51.8542 H   0  0  0  0  0  0  0  0  0  0  0  0
    1.5345  147.7505   50.3966 H   0  0  0  0  0  0  0  0  0  0  0  0
    2.8075  146.6041   50.8567 H   0  0  0  0  0  0  0  0  0  0  0  0
    3.9174  145.5041   56.2101 C   0  0  0  0  0  0  0  0  0  0  0  0
    4.0946  146.2134   57.0025 H   0  0  0  0  0  0  0  0  0  0  0  0
    3.7519  144.1801   56.4700 C   0  0  0  0  0  0  0  0  0  0  0  0
    3.8564  143.8050   57.7632 N   0  0  0  0  0  0  0  0  0  0  0  0
    4.2381  144.5002   58.3972 H   0  0  0  0  0  0  0  0  0  0  0  0
    3.9907  142.8185   57.9732 H   0  0  0  0  0  0  0  0  0  0  0  0
    3.4568  143.2849   55.4669 C   0  0  0  0  0  0  0  0  0  0  0  0
    3.2159  141.9146   55.7651 C   0  0  0  0  0  0  0  0  0  0  0  0
    3.0327  140.7877   56.0034 N   0  0  0  0  0  0  0  0  0  0  0  0
    1.7073  142.2863   53.1966 C   0  0  0  0  0  0  0  0  0  0  0  0
    1.2891  142.1666   54.1933 H   0  0  0  0  0  0  0  0  0  0  0  0
  1  2  1  0
  2  3  2  0
  3  4  1  0
  3  5  1  0
  5  6  1  0
  6  7  2  0
  6  8  1  0
  8  9  1  0
  8 10  1  0
  5 11  2  0
 11 12  1  0
 11 13  1  0
 13 14  1  0
 14 15  2  0
 15 16  1  0
 16 17  1  0
 17 18  1  0
 17 19  1  0
 19 20  2  0
 19 21  1  0
 21 22  1  0
 21 23  1  0
 21 24  1  0
 24 25  2  0
 25 26  1  0
 25 27  1  0
 27 28  1  0
 28 29  1  0
 29 30  1  0
 29 31  1  0
 29 32  1  0
 27 33  2  0
 33 34  1  0
 33 35  1  0
 35 36  1  0
 35 37  2  0
 37 38  1  0
 38 39  1  0
 39 40  1  0
 39 41  1  0
 39 42  1  0
 16 43  2  0
 43 44  1  0
 43 45  1  0
 45 46  1  0
 46 47  1  0
 46 48  1  0
 45 49  2  0
 49 50  1  0
 50 51  3  0
 13 52  2  0
 52 53  1  0
 52  2  1  0
 49 14  1  0
 37 24  1  0
M  END
>  <score>  (265) 
7.19047

$$$$

     RDKit          3D

 52 54  0  0  0  0  0  0  0  0999 V2000
    0.1673  149.0607   51.2910 H   0  0  0  0  0  0  0  0  0  0  0  0
    0.5362  149.5358   52.1938 C   0  0  0  0  0  0  0  0  0  0  0  0
   -0.2796  150.4585   52.8737 C   0  0  0  0  0  0  0  0  0  0  0  0
   -2.0346  150.8432   52.2163 Br  0  0  0  0  0  0  0  0  0  0  0  0
    0.1771  151.0577   54.0598 C   0  0  0  0  0  0  0  0  0  0  0  0
   -0.5598  151.9797   54.7540 O   0  0  0  0  0  0  0  0  0  0  0  0
   -1.6657  151.4158   55.4627 C   0  0  0  0  0  0  0  0  0  0  0  0
   -1.3248  150.9934   56.4103 H   0  0  0  0  0  0  0  0  0  0  0  0
   -2.3988  152.1969   55.6815 H   0  0  0  0  0  0  0  0  0  0  0  0
   -2.1551  150.6278   54.8816 H   0  0  0  0  0  0  0  0  0  0  0  0
    1.4349  150.7171   54.5492 C   0  0  0  0  0  0  0  0  0  0  0  0
    1.7722  151.1515   55.4895 H   0  0  0  0  0  0  0  0  0  0  0  0
    2.2675  149.8213   53.8645 C   0  0  0  0  0  0  0  0  0  0  0  0
    3.6078  149.5816   54.5259 C   0  0  0  0  0  0  0  0  0  0  0  0
    3.8118  150.4542   55.1465 H   0  0  0  0  0  0  0  0  0  0  0  0
    4.4037  149.4821   53.7790 H   0  0  0  0  0  0  0  0  0  0  0  0
    3.6000  148.3406   55.4134 C   0  0  0  0  0  0  0  0  0  0  0  0
    3.8173  148.3757   56.6110 O   0  0  0  0  0  0  0  0  0  0  0  0
    3.4769  147.1504   54.7830 N   0  0  0  0  0  0  0  0  0  0  0  0
    3.4456  147.1343   53.7774 H   0  0  0  0  0  0  0  0  0  0  0  0
    3.5265  145.9254   55.3066 C   0  0  0  0  0  0  0  0  0  0  0  0
    3.4619  145.1420   54.2730 N   0  0  0  0  0  0  0  0  0  0  0  0
    3.4808  143.8218   54.4209 C   0  0  0  0  0  0  0  0  0  0  0  0
    3.5502  143.0757   53.1334 C   0  0  0  0  0  0  0  0  0  0  0  0
    3.6777  143.8135   51.9375 C   0  0  0  0  0  0  0  0  0  0  0  0
    3.5644  144.8943   51.9657 H   0  0  0  0  0  0  0  0  0  0  0  0
    4.0303  143.2146   50.7320 C   0  0  0  0  0  0  0  0  0  0  0  0
    4.1707  143.8419   49.8528 H   0  0  0  0  0  0  0  0  0  0  0  0
    4.2520  141.8309   50.6745 C   0  0  0  0  0  0  0  0  0  0  0  0
    4.8502  141.2121   49.4246 C   0  0  0  0  0  0  0  0  0  0  0  0
    4.8988  139.8538   49.5223 F   0  0  0  0  0  0  0  0  0  0  0  0
    4.1115  141.5402   48.3288 F   0  0  0  0  0  0  0  0  0  0  0  0
    6.1132  141.6996   49.2665 F   0  0  0  0  0  0  0  0  0  0  0  0
    4.0170  141.0676   51.8358 C   0  0  0  0  0  0  0  0  0  0  0  0
    4.1486  139.9886   51.8258 H   0  0  0  0  0  0  0  0  0  0  0  0
    3.6619  141.6770   53.0435 C   0  0  0  0  0  0  0  0  0  0  0  0
    3.5297  141.0408   53.9087 H   0  0  0  0  0  0  0  0  0  0  0  0
    3.5492  143.2691   55.7005 C   0  0  0  0  0  0  0  0  0  0  0  0
    3.5593  141.8528   55.8912 C   0  0  0  0  0  0  0  0  0  0  0  0
    3.5655  140.6947   55.9816 N   0  0  0  0  0  0  0  0  0  0  0  0
    3.6636  144.1477   56.7679 C   0  0  0  0  0  0  0  0  0  0  0  0
    3.8301  143.7235   58.0397 N   0  0  0  0  0  0  0  0  0  0  0  0
    4.1066  142.7616   58.1810 H   0  0  0  0  0  0  0  0  0  0  0  0
    4.1450  144.4162   58.7136 H   0  0  0  0  0  0  0  0  0  0  0  0
    3.6454  145.5041   56.5950 C   0  0  0  0  0  0  0  0  0  0  0  0
    3.7137  146.2012   57.4165 H   0  0  0  0  0  0  0  0  0  0  0  0
    1.8257  149.2055   52.6612 C   0  0  0  0  0  0  0  0  0  0  0  0
    2.6393  148.3144   51.9811 O   0  0  0  0  0  0  0  0  0  0  0  0
    1.9854  147.3192   51.1669 C   0  0  0  0  0  0  0  0  0  0  0  0
    1.7002  147.7125   50.1840 H   0  0  0  0  0  0  0  0  0  0  0  0
    2.6620  146.4744   51.0029 H   0  0  0  0  0  0  0  0  0  0  0  0
    1.0890  146.9415   51.6694 H   0  0  0  0  0  0  0  0  0  0  0  0
  1  2  1  0
  2  3  2  0
  3  4  1  0
  3  5  1  0
  5  6  1  0
  6  7  1  0
  7  8  1  0
  7  9  1  0
  7 10  1  0
  5 11  2  0
 11 12  1  0
 11 13  1  0
 13 14  1  0
 14 15  1  0
 14 16  1  0
 14 17  1  0
 17 18  2  0
 17 19  1  0
 19 20  1  0
 19 21  1  0
 21 22  2  0
 22 23  1  0
 23 24  1  0
 24 25  2  0
 25 26  1  0
 25 27  1  0
 27 28  1  0
 27 29  2  0
 29 30  1  0
 30 31  1  0
 30 32  1  0
 30 33  1  0
 29 34  1  0
 34 35  1  0
 34 36  2  0
 36 37  1  0
 23 38  2  0
 38 39  1  0
 39 40  3  0
 38 41  1  0
 41 42  1  0
 42 43  1  0
 42 44  1  0
 41 45  2  0
 45 46  1  0
 13 47  2  0
 47 48  1  0
 48 49  1  0
 49 50  1  0
 49 51  1  0
 49 52  1  0
 47  2  1  0
 45 21  1  0
 36 24  1  0
M  END
>  <score>  (266) 
7.19058

$$$$

     RDKit          3D

 50 52  0  0  0  0  0  0  0  0999 V2000
    0.3035  149.2032   51.2516 H   0  0  0  0  0  0  0  0  0  0  0  0
    0.6598  149.6079   52.1952 C   0  0  0  0  0  0  0  0  0  0  0  0
   -0.1426  150.5023   52.9349 C   0  0  0  0  0  0  0  0  0  0  0  0
   -1.8694  150.9833   52.2741 Br  0  0  0  0  0  0  0  0  0  0  0  0
    0.3332  151.0608   54.1329 C   0  0  0  0  0  0  0  0  0  0  0  0
   -0.3803  151.9758   54.8623 O   0  0  0  0  0  0  0  0  0  0  0  0
   -1.4279  151.4049   55.6510 C   0  0  0  0  0  0  0  0  0  0  0  0
   -2.1537  150.8755   55.0263 H   0  0  0  0  0  0  0  0  0  0  0  0
   -1.0152  150.7045   56.3774 H   0  0  0  0  0  0  0  0  0  0  0  0
   -1.9456  152.2005   56.1956 H   0  0  0  0  0  0  0  0  0  0  0  0
    1.5988  150.6942   54.5736 C   0  0  0  0  0  0  0  0  0  0  0  0
    1.9923  151.1456   55.4753 H   0  0  0  0  0  0  0  0  0  0  0  0
    2.3863  149.7939   53.8550 C   0  0  0  0  0  0  0  0  0  0  0  0
    3.7331  149.4855   54.3981 C   0  0  0  0  0  0  0  0  0  0  0  0
    4.0038  150.3649   54.9650 H   0  0  0  0  0  0  0  0  0  0  0  0
    4.4222  149.3594   53.5615 H   0  0  0  0  0  0  0  0  0  0  0  0
    3.7581  148.2361   55.2818 C   0  0  0  0  0  0  0  0  0  0  0  0
    3.8572  148.3021   56.4961 O   0  0  0  0  0  0  0  0  0  0  0  0
    3.7278  147.0200   54.6714 N   0  0  0  0  0  0  0  0  0  0  0  0
    3.5363  146.9771   53.6817 H   0  0  0  0  0  0  0  0  0  0  0  0
    3.5598  145.8255   55.2678 C   0  0  0  0  0  0  0  0  0  0  0  0
    3.0595  145.0020   54.3678 N   0  0  0  0  0  0  0  0  0  0  0  0
    2.9014  143.6839   54.6289 C   0  0  0  0  0  0  0  0  0  0  0  0
    2.3270  142.7792   53.5336 C   0  0  0  0  0  0  0  0  0  0  0  0
    2.6250  141.5837   53.4870 O   0  0  0  0  0  0  0  0  0  0  0  0
    1.4524  143.2621   52.5527 N   0  0  0  0  0  0  0  0  0  0  0  0
    1.2486  144.2596   52.5608 H   0  0  0  0  0  0  0  0  0  0  0  0
    1.0714  142.5063   51.3674 C   0  0  0  0  0  0  0  0  0  0  0  0
    0.3300  141.7082   51.5310 H   0  0  0  0  0  0  0  0  0  0  0  0
    1.0643  143.2724   50.0439 C   0  0  0  0  0  0  0  0  0  0  0  0
    1.2839  144.3454   50.0772 H   0  0  0  0  0  0  0  0  0  0  0  0
    0.4135  142.9781   49.2158 H   0  0  0  0  0  0  0  0  0  0  0  0
    2.1791  142.2778   50.3436 C   0  0  0  0  0  0  0  0  0  0  0  0
    2.1661  141.3365   49.7829 H   0  0  0  0  0  0  0  0  0  0  0  0
    3.1774  142.6911   50.5294 H   0  0  0  0  0  0  0  0  0  0  0  0
    3.2784  143.2094   55.8996 C   0  0  0  0  0  0  0  0  0  0  0  0
    3.1528  141.8282   56.2366 C   0  0  0  0  0  0  0  0  0  0  0  0
    3.0409  140.6947   56.4822 N   0  0  0  0  0  0  0  0  0  0  0  0
    3.7660  144.1183   56.8232 C   0  0  0  0  0  0  0  0  0  0  0  0
    4.1549  143.7211   58.0515 N   0  0  0  0  0  0  0  0  0  0  0  0
    4.0719  142.7426   58.3181 H   0  0  0  0  0  0  0  0  0  0  0  0
    4.5091  144.4221   58.6936 H   0  0  0  0  0  0  0  0  0  0  0  0
    3.9122  145.4456   56.5322 C   0  0  0  0  0  0  0  0  0  0  0  0
    4.3294  146.1329   57.2547 H   0  0  0  0  0  0  0  0  0  0  0  0
    1.9376  149.2421   52.6490 C   0  0  0  0  0  0  0  0  0  0  0  0
    2.7751  148.4011   51.9508 O   0  0  0  0  0  0  0  0  0  0  0  0
    2.1653  147.2949   51.2806 C   0  0  0  0  0  0  0  0  0  0  0  0
    2.9477  146.5877   50.9846 H   0  0  0  0  0  0  0  0  0  0  0  0
    1.6372  147.6329   50.3848 H   0  0  0  0  0  0  0  0  0  0  0  0
    1.4632  146.7768   51.9426 H   0  0  0  0  0  0  0  0  0  0  0  0
  1  2  1  0
  2  3  2  0
  3  4  1  0
  3  5  1  0
  5  6  1  0
  6  7  1  0
  7  8  1  0
  7  9  1  0
  7 10  1  0
  5 11  2  0
 11 12  1  0
 11 13  1  0
 13 14  1  0
 14 15  1  0
 14 16  1  0
 14 17  1  0
 17 18  2  0
 17 19  1  0
 19 20  1  0
 19 21  1  0
 21 22  2  0
 22 23  1  0
 23 24  1  0
 24 25  2  0
 24 26  1  0
 26 27  1  0
 26 28  1  0
 28 29  1  0
 28 30  1  0
 30 31  1  0
 30 32  1  0
 30 33  1  0
 33 34  1  0
 33 35  1  0
 23 36  2  0
 36 37  1  0
 37 38  3  0
 36 39  1  0
 39 40  1  0
 40 41  1  0
 40 42  1  0
 39 43  2  0
 43 44  1  0
 13 45  2  0
 45 46  1  0
 46 47  1  0
 47 48  1  0
 47 49  1  0
 47 50  1  0
 45  2  1  0
 43 21  1  0
 33 28  1  0
M  END
>  <score>  (267) 
7.19069

$$$$

     RDKit          3D

 53 56  0  0  0  0  0  0  0  0999 V2000
    0.2839  149.0114   51.2829 H   0  0  0  0  0  0  0  0  0  0  0  0
    0.5911  149.5126   52.1923 C   0  0  0  0  0  0  0  0  0  0  0  0
   -0.2634  150.4398   52.8095 C   0  0  0  0  0  0  0  0  0  0  0  0
   -1.9832  150.8053   52.0505 Br  0  0  0  0  0  0  0  0  0  0  0  0
    0.1490  151.0877   53.9828 C   0  0  0  0  0  0  0  0  0  0  0  0
   -0.6414  152.0009   54.6256 O   0  0  0  0  0  0  0  0  0  0  0  0
   -1.5841  151.3841   55.5036 C   0  0  0  0  0  0  0  0  0  0  0  0
   -1.0954  150.6401   56.1400 H   0  0  0  0  0  0  0  0  0  0  0  0
   -2.3716  150.8936   54.9229 H   0  0  0  0  0  0  0  0  0  0  0  0
   -2.0361  152.1455   56.1463 H   0  0  0  0  0  0  0  0  0  0  0  0
    1.3996  150.7917   54.5179 C   0  0  0  0  0  0  0  0  0  0  0  0
    1.7019  151.2934   55.4333 H   0  0  0  0  0  0  0  0  0  0  0  0
    2.2600  149.8728   53.9014 C   0  0  0  0  0  0  0  0  0  0  0  0
    3.6007  149.6737   54.5586 C   0  0  0  0  0  0  0  0  0  0  0  0
    4.4003  149.7846   53.8206 H   0  0  0  0  0  0  0  0  0  0  0  0
    3.7135  150.4487   55.3165 H   0  0  0  0  0  0  0  0  0  0  0  0
    3.7398  148.3360   55.2592 C   0  0  0  0  0  0  0  0  0  0  0  0
    3.7462  148.2714   56.4748 O   0  0  0  0  0  0  0  0  0  0  0  0
    3.9593  147.2388   54.4873 N   0  0  0  0  0  0  0  0  0  0  0  0
    3.8243  147.3165   53.4913 H   0  0  0  0  0  0  0  0  0  0  0  0
    3.9524  145.9823   54.9381 C   0  0  0  0  0  0  0  0  0  0  0  0
    3.7663  145.1971   53.9084 N   0  0  0  0  0  0  0  0  0  0  0  0
    3.5700  143.9009   54.1421 C   0  0  0  0  0  0  0  0  0  0  0  0
    3.0553  143.1123   53.0146 C   0  0  0  0  0  0  0  0  0  0  0  0
    1.8915  142.3569   53.2271 C   0  0  0  0  0  0  0  0  0  0  0  0
    1.4724  142.3103   54.2252 H   0  0  0  0  0  0  0  0  0  0  0  0
    1.2273  141.7376   52.1644 C   0  0  0  0  0  0  0  0  0  0  0  0
    0.2843  141.2329   52.3318 H   0  0  0  0  0  0  0  0  0  0  0  0
    1.7931  141.7803   50.8936 C   0  0  0  0  0  0  0  0  0  0  0  0
    2.9929  142.4443   50.6834 C   0  0  0  0  0  0  0  0  0  0  0  0
    3.6092  143.1543   51.7180 C   0  0  0  0  0  0  0  0  0  0  0  0
    4.4997  143.7330   51.4892 H   0  0  0  0  0  0  0  0  0  0  0  0
    3.3238  142.3093   49.2735 C   0  0  0  0  0  0  0  0  0  0  0  0
    4.2003  142.7139   48.7816 H   0  0  0  0  0  0  0  0  0  0  0  0
    2.3207  141.5874   48.6770 C   0  0  0  0  0  0  0  0  0  0  0  0
    2.2757  141.3011   47.6293 H   0  0  0  0  0  0  0  0  0  0  0  0
    1.3926  141.2683   49.6645 N   0  0  0  0  0  0  0  0  0  0  0  0
    0.5300  140.7647   49.5028 H   0  0  0  0  0  0  0  0  0  0  0  0
    3.6176  143.3777   55.4349 C   0  0  0  0  0  0  0  0  0  0  0  0
    3.3432  142.0018   55.6997 C   0  0  0  0  0  0  0  0  0  0  0  0
    3.1080  140.8833   55.9029 N   0  0  0  0  0  0  0  0  0  0  0  0
    3.8391  144.2470   56.4717 C   0  0  0  0  0  0  0  0  0  0  0  0
    3.8490  143.8655   57.7689 N   0  0  0  0  0  0  0  0  0  0  0  0
    4.1754  144.5630   58.4345 H   0  0  0  0  0  0  0  0  0  0  0  0
    4.0005  142.8804   57.9704 H   0  0  0  0  0  0  0  0  0  0  0  0
    3.9864  145.5739   56.2420 C   0  0  0  0  0  0  0  0  0  0  0  0
    4.0614  146.2654   57.0637 H   0  0  0  0  0  0  0  0  0  0  0  0
    1.8570  149.2059   52.7215 C   0  0  0  0  0  0  0  0  0  0  0  0
    2.6857  148.2802   52.1188 O   0  0  0  0  0  0  0  0  0  0  0  0
    2.0386  147.3224   51.2612 C   0  0  0  0  0  0  0  0  0  0  0  0
    1.3055  146.7441   51.8337 H   0  0  0  0  0  0  0  0  0  0  0  0
    2.7736  146.6290   50.8414 H   0  0  0  0  0  0  0  0  0  0  0  0
    1.5273  147.8180   50.4296 H   0  0  0  0  0  0  0  0  0  0  0  0
  1  2  1  0
  2  3  2  0
  3  4  1  0
  3  5  1  0
  5  6  1  0
  6  7  1  0
  7  8  1  0
  7  9  1  0
  7 10  1  0
  5 11  2  0
 11 12  1  0
 11 13  1  0
 13 14  1  0
 14 15  1  0
 14 16  1  0
 14 17  1  0
 17 18  2  0
 17 19  1  0
 19 20  1  0
 19 21  1  0
 21 22  2  0
 22 23  1  0
 23 24  1  0
 24 25  2  0
 25 26  1  0
 25 27  1  0
 27 28  1  0
 27 29  2  0
 29 30  1  0
 30 31  2  0
 31 32  1  0
 30 33  1  0
 33 34  1  0
 33 35  2  0
 35 36  1  0
 35 37  1  0
 37 38  1  0
 23 39  2  0
 39 40  1  0
 40 41  3  0
 39 42  1  0
 42 43  1  0
 43 44  1  0
 43 45  1  0
 42 46  2  0
 46 47  1  0
 13 48  2  0
 48 49  1  0
 49 50  1  0
 50 51  1  0
 50 52  1  0
 50 53  1  0
 48  2  1  0
 46 21  1  0
 31 24  1  0
 37 29  1  0
M  END
>  <score>  (268) 
7.19116

$$$$

     RDKit          3D

 54 56  0  0  0  0  0  0  0  0999 V2000
    0.2101  141.1588   52.3041 H   0  0  0  0  0  0  0  0  0  0  0  0
    1.1368  141.6953   52.1308 C   0  0  0  0  0  0  0  0  0  0  0  0
    1.8119  142.2776   53.2035 C   0  0  0  0  0  0  0  0  0  0  0  0
    1.4050  142.1725   54.2046 H   0  0  0  0  0  0  0  0  0  0  0  0
    2.9838  143.0148   52.9975 C   0  0  0  0  0  0  0  0  0  0  0  0
    3.4834  143.8024   54.1333 C   0  0  0  0  0  0  0  0  0  0  0  0
    3.6780  145.1006   53.8796 N   0  0  0  0  0  0  0  0  0  0  0  0
    3.8539  145.9174   54.8860 C   0  0  0  0  0  0  0  0  0  0  0  0
    3.8494  147.1857   54.4555 N   0  0  0  0  0  0  0  0  0  0  0  0
    3.7204  147.2630   53.4618 H   0  0  0  0  0  0  0  0  0  0  0  0
    3.7033  148.2874   55.2391 C   0  0  0  0  0  0  0  0  0  0  0  0
    3.7585  148.2102   56.4556 O   0  0  0  0  0  0  0  0  0  0  0  0
    3.6170  149.6364   54.5506 C   0  0  0  0  0  0  0  0  0  0  0  0
    3.7494  150.4137   55.3073 H   0  0  0  0  0  0  0  0  0  0  0  0
    4.4230  149.7071   53.8125 H   0  0  0  0  0  0  0  0  0  0  0  0
    2.2794  149.8585   53.8930 C   0  0  0  0  0  0  0  0  0  0  0  0
    1.4246  150.7626   54.5361 C   0  0  0  0  0  0  0  0  0  0  0  0
    1.7320  151.2284   55.4691 H   0  0  0  0  0  0  0  0  0  0  0  0
    0.1809  151.0916   54.0011 C   0  0  0  0  0  0  0  0  0  0  0  0
   -0.5984  152.0107   54.6508 O   0  0  0  0  0  0  0  0  0  0  0  0
   -1.5564  151.3920   55.5118 C   0  0  0  0  0  0  0  0  0  0  0  0
   -2.3369  150.9015   54.9208 H   0  0  0  0  0  0  0  0  0  0  0  0
   -2.0198  152.1516   56.1454 H   0  0  0  0  0  0  0  0  0  0  0  0
   -1.0811  150.6502   56.1618 H   0  0  0  0  0  0  0  0  0  0  0  0
   -0.2407  150.4598   52.8189 C   0  0  0  0  0  0  0  0  0  0  0  0
   -1.9711  150.8246   52.0835 Br  0  0  0  0  0  0  0  0  0  0  0  0
    0.5960  149.5261   52.1850 C   0  0  0  0  0  0  0  0  0  0  0  0
    0.2596  149.0282   51.2804 H   0  0  0  0  0  0  0  0  0  0  0  0
    1.8669  149.2113   52.7014 C   0  0  0  0  0  0  0  0  0  0  0  0
    2.6905  148.2916   52.0818 O   0  0  0  0  0  0  0  0  0  0  0  0
    2.0440  147.3104   51.2477 C   0  0  0  0  0  0  0  0  0  0  0  0
    1.5220  147.7787   50.4043 H   0  0  0  0  0  0  0  0  0  0  0  0
    1.3210  146.7388   51.8404 H   0  0  0  0  0  0  0  0  0  0  0  0
    2.7845  146.6117   50.8415 H   0  0  0  0  0  0  0  0  0  0  0  0
    3.9228  145.5338   56.1906 C   0  0  0  0  0  0  0  0  0  0  0  0
    4.0735  146.2425   56.9859 H   0  0  0  0  0  0  0  0  0  0  0  0
    3.7593  144.2078   56.4449 C   0  0  0  0  0  0  0  0  0  0  0  0
    3.8282  143.8268   57.7423 N   0  0  0  0  0  0  0  0  0  0  0  0
    3.9713  142.8367   57.9347 H   0  0  0  0  0  0  0  0  0  0  0  0
    4.2077  144.5087   58.3885 H   0  0  0  0  0  0  0  0  0  0  0  0
    3.5072  143.3091   55.4407 C   0  0  0  0  0  0  0  0  0  0  0  0
    3.2464  141.9379   55.7319 C   0  0  0  0  0  0  0  0  0  0  0  0
    3.0390  140.8092   55.9348 N   0  0  0  0  0  0  0  0  0  0  0  0
    3.5082  143.1116   51.6886 C   0  0  0  0  0  0  0  0  0  0  0  0
    4.4090  143.6999   51.5108 H   0  0  0  0  0  0  0  0  0  0  0  0
    2.8341  142.5122   50.6017 C   0  0  0  0  0  0  0  0  0  0  0  0
    3.3651  142.6065   49.1935 C   0  0  0  0  0  0  0  0  0  0  0  0
    4.4116  142.9400   49.2107 H   0  0  0  0  0  0  0  0  0  0  0  0
    3.3248  141.6121   48.7291 H   0  0  0  0  0  0  0  0  0  0  0  0
    2.5438  143.5409   48.4069 N   0  0  0  0  0  0  0  0  0  0  0  0
    2.6313  144.4925   48.7619 H   0  0  0  0  0  0  0  0  0  0  0  0
    1.5651  143.2487   48.4126 H   0  0  0  0  0  0  0  0  0  0  0  0
    1.6454  141.8018   50.8386 C   0  0  0  0  0  0  0  0  0  0  0  0
    1.1198  141.3283   50.0133 H   0  0  0  0  0  0  0  0  0  0  0  0
  1  2  1  0
  2  3  2  0
  3  4  1  0
  3  5  1  0
  5  6  1  0
  6  7  2  0
  7  8  1  0
  8  9  1  0
  9 10  1  0
  9 11  1  0
 11 12  2  0
 11 13  1  0
 13 14  1  0
 13 15  1  0
 13 16  1  0
 16 17  2  0
 17 18  1  0
 17 19  1  0
 19 20  1  0
 20 21  1  0
 21 22  1  0
 21 23  1  0
 21 24  1  0
 19 25  2  0
 25 26  1  0
 25 27  1  0
 27 28  1  0
 27 29  2  0
 29 30  1  0
 30 31  1  0
 31 32  1  0
 31 33  1  0
 31 34  1  0
  8 35  2  0
 35 36  1  0
 35 37  1  0
 37 38  1  0
 38 39  1  0
 38 40  1  0
 37 41  2  0
 41 42  1  0
 42 43  3  0
  5 44  2  0
 44 45  1  0
 44 46  1  0
 46 47  1  0
 47 48  1  0
 47 49  1  0
 47 50  1  0
 50 51  1  0
 50 52  1  0
 46 53  2  0
 53 54  1  0
 53  2  1  0
 41  6  1  0
 29 16  1  0
M  END
>  <score>  (269) 
7.19185

$$$$

     RDKit          3D

 52 53  0  0  0  0  0  0  0  0999 V2000
    0.2868  149.1763   51.2290 H   0  0  0  0  0  0  0  0  0  0  0  0
    0.6236  149.5781   52.1813 C   0  0  0  0  0  0  0  0  0  0  0  0
   -0.1769  150.4804   52.9105 C   0  0  0  0  0  0  0  0  0  0  0  0
   -1.9094  150.9788   52.2664 Br  0  0  0  0  0  0  0  0  0  0  0  0
    0.3123  151.0410   54.1062 C   0  0  0  0  0  0  0  0  0  0  0  0
   -0.3841  151.9765   54.8189 O   0  0  0  0  0  0  0  0  0  0  0  0
   -1.4216  151.4050   55.6140 C   0  0  0  0  0  0  0  0  0  0  0  0
   -1.9350  152.1963   56.1684 H   0  0  0  0  0  0  0  0  0  0  0  0
   -2.1472  150.8849   54.9835 H   0  0  0  0  0  0  0  0  0  0  0  0
   -1.0071  150.6904   56.3276 H   0  0  0  0  0  0  0  0  0  0  0  0
    1.5663  150.6741   54.5783 C   0  0  0  0  0  0  0  0  0  0  0  0
    1.9520  151.1299   55.4871 H   0  0  0  0  0  0  0  0  0  0  0  0
    2.3447  149.7610   53.8709 C   0  0  0  0  0  0  0  0  0  0  0  0
    3.6955  149.4377   54.4183 C   0  0  0  0  0  0  0  0  0  0  0  0
    3.9741  150.2407   55.0856 H   0  0  0  0  0  0  0  0  0  0  0  0
    4.4101  149.3927   53.5972 H   0  0  0  0  0  0  0  0  0  0  0  0
    3.7281  148.1388   55.2008 C   0  0  0  0  0  0  0  0  0  0  0  0
    3.8147  148.1619   56.4170 O   0  0  0  0  0  0  0  0  0  0  0  0
    3.7002  146.9506   54.5403 N   0  0  0  0  0  0  0  0  0  0  0  0
    3.4331  146.9291   53.5675 H   0  0  0  0  0  0  0  0  0  0  0  0
    3.5697  145.7632   55.1400 C   0  0  0  0  0  0  0  0  0  0  0  0
    3.0879  144.9332   54.2580 N   0  0  0  0  0  0  0  0  0  0  0  0
    2.9167  143.6804   54.6220 C   0  0  0  0  0  0  0  0  0  0  0  0
    2.3468  142.8735   53.6920 N   0  0  0  0  0  0  0  0  0  0  0  0
    1.9724  141.9881   53.9916 H   0  0  0  0  0  0  0  0  0  0  0  0
    2.3230  143.2295   52.3652 C   0  0  0  0  0  0  0  0  0  0  0  0
    2.9283  144.2144   51.9823 O   0  0  0  0  0  0  0  0  0  0  0  0
    1.6145  142.3441   51.3492 C   0  0  0  0  0  0  0  0  0  0  0  0
    1.1315  142.9704   50.5980 H   0  0  0  0  0  0  0  0  0  0  0  0
    0.8503  141.7607   51.8619 H   0  0  0  0  0  0  0  0  0  0  0  0
    2.5899  141.3729   50.6950 C   0  0  0  0  0  0  0  0  0  0  0  0
    2.0594  140.6848   50.0281 H   0  0  0  0  0  0  0  0  0  0  0  0
    3.3486  141.9171   50.1202 H   0  0  0  0  0  0  0  0  0  0  0  0
    3.2433  140.6194   51.8476 C   0  0  0  0  0  0  0  0  0  0  0  0
    3.9728  139.8676   51.5301 H   0  0  0  0  0  0  0  0  0  0  0  0
    2.4757  140.1444   52.4594 H   0  0  0  0  0  0  0  0  0  0  0  0
    3.7453  141.3368   52.4864 H   0  0  0  0  0  0  0  0  0  0  0  0
    3.2411  143.1974   55.8612 C   0  0  0  0  0  0  0  0  0  0  0  0
    3.1169  141.8094   56.1776 C   0  0  0  0  0  0  0  0  0  0  0  0
    3.0362  140.6768   56.4204 N   0  0  0  0  0  0  0  0  0  0  0  0
    3.7278  144.1127   56.7549 C   0  0  0  0  0  0  0  0  0  0  0  0
    4.0971  143.7492   57.9912 N   0  0  0  0  0  0  0  0  0  0  0  0
    4.4733  144.4564   58.6159 H   0  0  0  0  0  0  0  0  0  0  0  0
    4.0650  142.7713   58.2605 H   0  0  0  0  0  0  0  0  0  0  0  0
    3.8824  145.4267   56.4307 C   0  0  0  0  0  0  0  0  0  0  0  0
    4.2623  146.1319   57.1567 H   0  0  0  0  0  0  0  0  0  0  0  0
    1.8966  149.2184   52.6575 C   0  0  0  0  0  0  0  0  0  0  0  0
    2.7579  148.4053   51.9585 O   0  0  0  0  0  0  0  0  0  0  0  0
    2.1521  147.3058   51.2794 C   0  0  0  0  0  0  0  0  0  0  0  0
    2.9275  146.6139   50.9363 H   0  0  0  0  0  0  0  0  0  0  0  0
    1.5852  147.6553   50.4127 H   0  0  0  0  0  0  0  0  0  0  0  0
    1.4830  146.7682   51.9577 H   0  0  0  0  0  0  0  0  0  0  0  0
  1  2  1  0
  2  3  2  0
  3  4  1  0
  3  5  1  0
  5  6  1  0
  6  7  1  0
  7  8  1  0
  7  9  1  0
  7 10  1  0
  5 11  2  0
 11 12  1  0
 11 13  1  0
 13 14  1  0
 14 15  1  0
 14 16  1  0
 14 17  1  0
 17 18  2  0
 17 19  1  0
 19 20  1  0
 19 21  1  0
 21 22  2  0
 22 23  1  0
 23 24  1  0
 24 25  1  0
 24 26  1  0
 26 27  2  0
 26 28  1  0
 28 29  1  0
 28 30  1  0
 28 31  1  0
 31 32  1  0
 31 33  1  0
 31 34  1  0
 34 35  1  0
 34 36  1  0
 34 37  1  0
 23 38  2  0
 38 39  1  0
 39 40  3  0
 38 41  1  0
 41 42  1  0
 42 43  1  0
 42 44  1  0
 41 45  2  0
 45 46  1  0
 13 47  2  0
 47 48  1  0
 48 49  1  0
 49 50  1  0
 49 51  1  0
 49 52  1  0
 47  2  1  0
 45 21  1  0
M  END
>  <score>  (270) 
7.19196

$$$$

     RDKit          3D

 54 56  0  0  0  0  0  0  0  0999 V2000
    0.2725  148.8712   51.4043 H   0  0  0  0  0  0  0  0  0  0  0  0
    0.5522  149.4485   52.2745 C   0  0  0  0  0  0  0  0  0  0  0  0
   -0.3477  150.3871   52.7788 C   0  0  0  0  0  0  0  0  0  0  0  0
   -2.0437  150.6192   51.9225 Br  0  0  0  0  0  0  0  0  0  0  0  0
   -0.0052  151.1173   53.9221 C   0  0  0  0  0  0  0  0  0  0  0  0
   -0.8806  151.9984   54.4900 O   0  0  0  0  0  0  0  0  0  0  0  0
   -1.7091  151.3710   55.4764 C   0  0  0  0  0  0  0  0  0  0  0  0
   -2.5358  150.8352   55.0004 H   0  0  0  0  0  0  0  0  0  0  0  0
   -2.1253  152.1301   56.1430 H   0  0  0  0  0  0  0  0  0  0  0  0
   -1.1412  150.6584   56.0821 H   0  0  0  0  0  0  0  0  0  0  0  0
    1.2440  150.9247   54.5138 C   0  0  0  0  0  0  0  0  0  0  0  0
    1.5079  151.5088   55.3906 H   0  0  0  0  0  0  0  0  0  0  0  0
    2.1561  149.9979   53.9970 C   0  0  0  0  0  0  0  0  0  0  0  0
    3.4923  149.8919   54.6912 C   0  0  0  0  0  0  0  0  0  0  0  0
    3.5982  150.7204   55.3908 H   0  0  0  0  0  0  0  0  0  0  0  0
    4.3075  149.9693   53.9636 H   0  0  0  0  0  0  0  0  0  0  0  0
    3.6313  148.6030   55.4873 C   0  0  0  0  0  0  0  0  0  0  0  0
    3.0828  148.4544   56.5655 O   0  0  0  0  0  0  0  0  0  0  0  0
    4.3868  147.6068   54.9554 N   0  0  0  0  0  0  0  0  0  0  0  0
    4.5118  147.6294   53.9537 H   0  0  0  0  0  0  0  0  0  0  0  0
    4.2807  146.3597   55.3990 C   0  0  0  0  0  0  0  0  0  0  0  0
    4.1135  145.5569   54.3907 N   0  0  0  0  0  0  0  0  0  0  0  0
    3.8874  144.2711   54.6385 C   0  0  0  0  0  0  0  0  0  0  0  0
    3.4382  143.4911   53.4634 C   0  0  0  0  0  0  0  0  0  0  0  0
    3.9256  143.7334   52.1506 C   0  0  0  0  0  0  0  0  0  0  0  0
    4.6951  144.4679   51.9381 H   0  0  0  0  0  0  0  0  0  0  0  0
    3.4276  143.0498   51.0474 C   0  0  0  0  0  0  0  0  0  0  0  0
    3.8600  143.2326   50.0675 H   0  0  0  0  0  0  0  0  0  0  0  0
    2.3469  142.1867   51.2138 C   0  0  0  0  0  0  0  0  0  0  0  0
    1.6893  141.5444   50.0919 C   0  0  0  0  0  0  0  0  0  0  0  0
    0.6421  140.9700   50.3081 O   0  0  0  0  0  0  0  0  0  0  0  0
    2.1411  141.6286   48.6491 C   0  0  0  0  0  0  0  0  0  0  0  0
    2.2554  142.6645   48.3432 H   0  0  0  0  0  0  0  0  0  0  0  0
    1.3905  141.1640   48.0089 H   0  0  0  0  0  0  0  0  0  0  0  0
    3.0860  141.1090   48.5082 H   0  0  0  0  0  0  0  0  0  0  0  0
    1.8172  141.9843   52.4920 C   0  0  0  0  0  0  0  0  0  0  0  0
    0.9243  141.3707   52.5750 H   0  0  0  0  0  0  0  0  0  0  0  0
    2.3719  142.5871   53.6122 C   0  0  0  0  0  0  0  0  0  0  0  0
    1.9113  142.3890   54.5770 H   0  0  0  0  0  0  0  0  0  0  0  0
    3.8961  143.7746   55.9425 C   0  0  0  0  0  0  0  0  0  0  0  0
    3.8586  142.3709   56.1772 C   0  0  0  0  0  0  0  0  0  0  0  0
    3.8925  141.2211   56.3517 N   0  0  0  0  0  0  0  0  0  0  0  0
    4.0690  144.6783   56.9653 C   0  0  0  0  0  0  0  0  0  0  0  0
    3.9980  144.3393   58.2660 N   0  0  0  0  0  0  0  0  0  0  0  0
    4.3615  143.4240   58.5074 H   0  0  0  0  0  0  0  0  0  0  0  0
    4.1908  145.1051   58.9054 H   0  0  0  0  0  0  0  0  0  0  0  0
    4.2989  145.9874   56.6972 C   0  0  0  0  0  0  0  0  0  0  0  0
    4.4779  146.7251   57.4534 H   0  0  0  0  0  0  0  0  0  0  0  0
    1.8034  149.2190   52.8730 C   0  0  0  0  0  0  0  0  0  0  0  0
    2.6675  148.2628   52.3817 O   0  0  0  0  0  0  0  0  0  0  0  0
    2.1208  147.4133   51.3572 C   0  0  0  0  0  0  0  0  0  0  0  0
    1.7071  148.0157   50.5420 H   0  0  0  0  0  0  0  0  0  0  0  0
    2.8923  146.7612   50.9410 H   0  0  0  0  0  0  0  0  0  0  0  0
    1.3201  146.7882   51.7673 H   0  0  0  0  0  0  0  0  0  0  0  0
  1  2  1  0
  2  3  2  0
  3  4  1  0
  3  5  1  0
  5  6  1  0
  6  7  1  0
  7  8  1  0
  7  9  1  0
  7 10  1  0
  5 11  2  0
 11 12  1  0
 11 13  1  0
 13 14  1  0
 14 15  1  0
 14 16  1  0
 14 17  1  0
 17 18  2  0
 17 19  1  0
 19 20  1  0
 19 21  1  0
 21 22  2  0
 22 23  1  0
 23 24  1  0
 24 25  2  0
 25 26  1  0
 25 27  1  0
 27 28  1  0
 27 29  2  0
 29 30  1  0
 30 31  2  0
 30 32  1  0
 32 33  1  0
 32 34  1  0
 32 35  1  0
 29 36  1  0
 36 37  1  0
 36 38  2  0
 38 39  1  0
 23 40  2  0
 40 41  1  0
 41 42  3  0
 40 43  1  0
 43 44  1  0
 44 45  1  0
 44 46  1  0
 43 47  2  0
 47 48  1  0
 13 49  2  0
 49 50  1  0
 50 51  1  0
 51 52  1  0
 51 53  1  0
 51 54  1  0
 49  2  1  0
 47 21  1  0
 38 24  1  0
M  END
>  <score>  (271) 
7.19415

$$$$

     RDKit          3D

 45 46  0  0  0  0  0  0  0  0999 V2000
    0.3089  149.1991   51.2517 H   0  0  0  0  0  0  0  0  0  0  0  0
    0.6577  149.6050   52.1952 C   0  0  0  0  0  0  0  0  0  0  0  0
   -0.1462  150.4979   52.9353 C   0  0  0  0  0  0  0  0  0  0  0  0
   -1.8703  150.9848   52.2786 Br  0  0  0  0  0  0  0  0  0  0  0  0
    0.3327  151.0579   54.1302 C   0  0  0  0  0  0  0  0  0  0  0  0
   -0.3777  151.9764   54.8596 O   0  0  0  0  0  0  0  0  0  0  0  0
   -1.4256  151.4034   55.6460 C   0  0  0  0  0  0  0  0  0  0  0  0
   -2.1528  150.8748   55.0190 H   0  0  0  0  0  0  0  0  0  0  0  0
   -1.9399  152.2027   56.1893 H   0  0  0  0  0  0  0  0  0  0  0  0
   -1.0133  150.7012   56.3737 H   0  0  0  0  0  0  0  0  0  0  0  0
    1.5944  150.6880   54.5721 C   0  0  0  0  0  0  0  0  0  0  0  0
    1.9874  151.1469   55.4698 H   0  0  0  0  0  0  0  0  0  0  0  0
    2.3781  149.7784   53.8606 C   0  0  0  0  0  0  0  0  0  0  0  0
    3.7238  149.4693   54.4024 C   0  0  0  0  0  0  0  0  0  0  0  0
    3.9919  150.3483   54.9804 H   0  0  0  0  0  0  0  0  0  0  0  0
    4.4066  149.3585   53.5580 H   0  0  0  0  0  0  0  0  0  0  0  0
    3.7470  148.1977   55.2594 C   0  0  0  0  0  0  0  0  0  0  0  0
    3.8472  148.2477   56.4779 O   0  0  0  0  0  0  0  0  0  0  0  0
    3.7030  146.9876   54.6219 N   0  0  0  0  0  0  0  0  0  0  0  0
    3.5152  146.9596   53.6311 H   0  0  0  0  0  0  0  0  0  0  0  0
    3.5305  145.7800   55.1926 C   0  0  0  0  0  0  0  0  0  0  0  0
    3.0414  144.9444   54.2899 N   0  0  0  0  0  0  0  0  0  0  0  0
    2.9041  143.6678   54.6295 C   0  0  0  0  0  0  0  0  0  0  0  0
    2.3631  142.7205   53.6191 C   0  0  0  0  0  0  0  0  0  0  0  0
    3.1382  141.9913   53.3642 H   0  0  0  0  0  0  0  0  0  0  0  0
    1.5106  142.2149   54.0701 H   0  0  0  0  0  0  0  0  0  0  0  0
    1.8942  143.4078   52.3581 C   0  0  0  0  0  0  0  0  0  0  0  0
    2.9299  144.0298   51.7343 F   0  0  0  0  0  0  0  0  0  0  0  0
    1.4023  142.4332   51.5496 F   0  0  0  0  0  0  0  0  0  0  0  0
    0.8921  144.2833   52.6389 F   0  0  0  0  0  0  0  0  0  0  0  0
    3.2559  143.2001   55.8877 C   0  0  0  0  0  0  0  0  0  0  0  0
    3.1380  141.8199   56.2278 C   0  0  0  0  0  0  0  0  0  0  0  0
    3.0388  140.6839   56.4578 N   0  0  0  0  0  0  0  0  0  0  0  0
    3.7403  144.1093   56.7922 C   0  0  0  0  0  0  0  0  0  0  0  0
    4.1438  143.7245   58.0152 N   0  0  0  0  0  0  0  0  0  0  0  0
    4.4948  144.4352   58.6527 H   0  0  0  0  0  0  0  0  0  0  0  0
    4.0590  142.7466   58.2864 H   0  0  0  0  0  0  0  0  0  0  0  0
    3.8789  145.4245   56.4724 C   0  0  0  0  0  0  0  0  0  0  0  0
    4.2978  146.1193   57.1868 H   0  0  0  0  0  0  0  0  0  0  0  0
    1.9331  149.2376   52.6492 C   0  0  0  0  0  0  0  0  0  0  0  0
    2.7755  148.4026   51.9498 O   0  0  0  0  0  0  0  0  0  0  0  0
    2.1639  147.2975   51.2820 C   0  0  0  0  0  0  0  0  0  0  0  0
    1.4761  146.7680   51.9518 H   0  0  0  0  0  0  0  0  0  0  0  0
    1.6180  147.6410   50.3977 H   0  0  0  0  0  0  0  0  0  0  0  0
    2.9495  146.6005   50.9693 H   0  0  0  0  0  0  0  0  0  0  0  0
  1  2  1  0
  2  3  2  0
  3  4  1  0
  3  5  1  0
  5  6  1  0
  6  7  1  0
  7  8  1  0
  7  9  1  0
  7 10  1  0
  5 11  2  0
 11 12  1  0
 11 13  1  0
 13 14  1  0
 14 15  1  0
 14 16  1  0
 14 17  1  0
 17 18  2  0
 17 19  1  0
 19 20  1  0
 19 21  1  0
 21 22  2  0
 22 23  1  0
 23 24  1  0
 24 25  1  0
 24 26  1  0
 24 27  1  0
 27 28  1  0
 27 29  1  0
 27 30  1  0
 23 31  2  0
 31 32  1  0
 32 33  3  0
 31 34  1  0
 34 35  1  0
 35 36  1  0
 35 37  1  0
 34 38  2  0
 38 39  1  0
 13 40  2  0
 40 41  1  0
 41 42  1  0
 42 43  1  0
 42 44  1  0
 42 45  1  0
 40  2  1  0
 38 21  1  0
M  END
>  <score>  (272) 
7.1943

$$$$

     RDKit          3D

 52 53  0  0  0  0  0  0  0  0999 V2000
    0.2362  149.1018   51.2754 H   0  0  0  0  0  0  0  0  0  0  0  0
    0.6027  149.5524   52.1893 C   0  0  0  0  0  0  0  0  0  0  0  0
   -0.2183  150.4674   52.8643 C   0  0  0  0  0  0  0  0  0  0  0  0
   -1.9545  150.8944   52.1783 Br  0  0  0  0  0  0  0  0  0  0  0  0
    0.2410  151.0654   54.0450 C   0  0  0  0  0  0  0  0  0  0  0  0
   -0.4896  151.9985   54.7237 O   0  0  0  0  0  0  0  0  0  0  0  0
   -1.4845  151.4033   55.5544 C   0  0  0  0  0  0  0  0  0  0  0  0
   -1.0241  150.6732   56.2249 H   0  0  0  0  0  0  0  0  0  0  0  0
   -2.2351  150.8946   54.9423 H   0  0  0  0  0  0  0  0  0  0  0  0
   -1.9795  152.1725   56.1568 H   0  0  0  0  0  0  0  0  0  0  0  0
    1.4845  150.7158   54.5497 C   0  0  0  0  0  0  0  0  0  0  0  0
    1.8115  151.1539   55.4874 H   0  0  0  0  0  0  0  0  0  0  0  0
    2.3154  149.8271   53.8723 C   0  0  0  0  0  0  0  0  0  0  0  0
    3.6658  149.6073   54.4899 C   0  0  0  0  0  0  0  0  0  0  0  0
    3.8630  150.4572   55.1302 H   0  0  0  0  0  0  0  0  0  0  0  0
    4.4380  149.5760   53.7250 H   0  0  0  0  0  0  0  0  0  0  0  0
    3.7593  148.3369   55.3138 C   0  0  0  0  0  0  0  0  0  0  0  0
    3.8101  148.3324   56.5284 O   0  0  0  0  0  0  0  0  0  0  0  0
    3.8247  147.1627   54.6421 N   0  0  0  0  0  0  0  0  0  0  0  0
    3.5966  147.1666   53.6597 H   0  0  0  0  0  0  0  0  0  0  0  0
    3.7490  145.9441   55.2134 C   0  0  0  0  0  0  0  0  0  0  0  0
    3.3827  145.0958   54.2828 N   0  0  0  0  0  0  0  0  0  0  0  0
    3.2198  143.7820   54.5542 C   0  0  0  0  0  0  0  0  0  0  0  0
    2.8226  142.8481   53.4168 C   0  0  0  0  0  0  0  0  0  0  0  0
    2.6825  141.6373   53.6180 O   0  0  0  0  0  0  0  0  0  0  0  0
    2.5653  143.3012   52.1192 N   0  0  0  0  0  0  0  0  0  0  0  0
    2.5789  144.3097   51.9510 H   0  0  0  0  0  0  0  0  0  0  0  0
    1.8606  142.4938   51.1424 C   0  0  0  0  0  0  0  0  0  0  0  0
    2.1441  141.4419   51.2456 H   0  0  0  0  0  0  0  0  0  0  0  0
    0.3797  142.6500   51.4378 C   0  0  0  0  0  0  0  0  0  0  0  0
   -0.1821  141.8627   50.9398 H   0  0  0  0  0  0  0  0  0  0  0  0
    0.0201  143.6275   51.1104 H   0  0  0  0  0  0  0  0  0  0  0  0
    0.1905  142.5706   52.5060 H   0  0  0  0  0  0  0  0  0  0  0  0
    2.1962  142.9460   49.7216 C   0  0  0  0  0  0  0  0  0  0  0  0
    1.9681  144.0067   49.5803 H   0  0  0  0  0  0  0  0  0  0  0  0
    1.6175  142.3684   48.9921 H   0  0  0  0  0  0  0  0  0  0  0  0
    3.2604  142.7923   49.5165 H   0  0  0  0  0  0  0  0  0  0  0  0
    3.4185  143.3399   55.8744 C   0  0  0  0  0  0  0  0  0  0  0  0
    3.2440  141.9644   56.2115 C   0  0  0  0  0  0  0  0  0  0  0  0
    3.0907  140.8283   56.4271 N   0  0  0  0  0  0  0  0  0  0  0  0
    3.7854  144.2665   56.8398 C   0  0  0  0  0  0  0  0  0  0  0  0
    3.9794  143.8913   58.1322 N   0  0  0  0  0  0  0  0  0  0  0  0
    4.1292  142.8957   58.2928 H   0  0  0  0  0  0  0  0  0  0  0  0
    4.4866  144.5477   58.7233 H   0  0  0  0  0  0  0  0  0  0  0  0
    3.9797  145.5866   56.5139 C   0  0  0  0  0  0  0  0  0  0  0  0
    4.2918  146.3213   57.2394 H   0  0  0  0  0  0  0  0  0  0  0  0
    1.8868  149.2291   52.6702 C   0  0  0  0  0  0  0  0  0  0  0  0
    2.7292  148.3670   52.0054 O   0  0  0  0  0  0  0  0  0  0  0  0
    2.0903  147.3187   51.2614 C   0  0  0  0  0  0  0  0  0  0  0  0
    1.3889  146.7624   51.8935 H   0  0  0  0  0  0  0  0  0  0  0  0
    2.8504  146.6208   50.8984 H   0  0  0  0  0  0  0  0  0  0  0  0
    1.5449  147.7181   50.4002 H   0  0  0  0  0  0  0  0  0  0  0  0
  1  2  1  0
  2  3  2  0
  3  4  1  0
  3  5  1  0
  5  6  1  0
  6  7  1  0
  7  8  1  0
  7  9  1  0
  7 10  1  0
  5 11  2  0
 11 12  1  0
 11 13  1  0
 13 14  1  0
 14 15  1  0
 14 16  1  0
 14 17  1  0
 17 18  2  0
 17 19  1  0
 19 20  1  0
 19 21  1  0
 21 22  2  0
 22 23  1  0
 23 24  1  0
 24 25  2  0
 24 26  1  0
 26 27  1  0
 26 28  1  0
 28 29  1  0
 28 30  1  0
 30 31  1  0
 30 32  1  0
 30 33  1  0
 28 34  1  0
 34 35  1  0
 34 36  1  0
 34 37  1  0
 23 38  2  0
 38 39  1  0
 39 40  3  0
 38 41  1  0
 41 42  1  0
 42 43  1  0
 42 44  1  0
 41 45  2  0
 45 46  1  0
 13 47  2  0
 47 48  1  0
 48 49  1  0
 49 50  1  0
 49 51  1  0
 49 52  1  0
 47  2  1  0
 45 21  1  0
M  END
>  <score>  (273) 
7.19498

$$$$

     RDKit          3D

 55 57  0  0  0  0  0  0  0  0999 V2000
    0.2886  149.1759   51.2390 H   0  0  0  0  0  0  0  0  0  0  0  0
    0.6276  149.5806   52.1857 C   0  0  0  0  0  0  0  0  0  0  0  0
   -0.1767  150.4809   52.9105 C   0  0  0  0  0  0  0  0  0  0  0  0
   -1.9105  150.9777   52.2629 Br  0  0  0  0  0  0  0  0  0  0  0  0
    0.3093  151.0424   54.1056 C   0  0  0  0  0  0  0  0  0  0  0  0
   -0.3885  151.9759   54.8175 O   0  0  0  0  0  0  0  0  0  0  0  0
   -1.4243  151.4057   55.6172 C   0  0  0  0  0  0  0  0  0  0  0  0
   -1.9399  152.1949   56.1732 H   0  0  0  0  0  0  0  0  0  0  0  0
   -1.0094  150.6921   56.3306 H   0  0  0  0  0  0  0  0  0  0  0  0
   -2.1497  150.8839   54.9888 H   0  0  0  0  0  0  0  0  0  0  0  0
    1.5669  150.6906   54.5764 C   0  0  0  0  0  0  0  0  0  0  0  0
    1.9483  151.1445   55.4912 H   0  0  0  0  0  0  0  0  0  0  0  0
    2.3487  149.7812   53.8666 C   0  0  0  0  0  0  0  0  0  0  0  0
    3.7079  149.4936   54.4146 C   0  0  0  0  0  0  0  0  0  0  0  0
    3.9650  150.3367   55.0280 H   0  0  0  0  0  0  0  0  0  0  0  0
    4.4276  149.4252   53.6009 H   0  0  0  0  0  0  0  0  0  0  0  0
    3.7759  148.2436   55.2704 C   0  0  0  0  0  0  0  0  0  0  0  0
    3.8369  148.3199   56.4861 O   0  0  0  0  0  0  0  0  0  0  0  0
    3.7744  147.0327   54.6645 N   0  0  0  0  0  0  0  0  0  0  0  0
    3.4784  146.9888   53.6990 H   0  0  0  0  0  0  0  0  0  0  0  0
    3.6249  145.8556   55.2850 C   0  0  0  0  0  0  0  0  0  0  0  0
    3.1278  145.0360   54.3804 N   0  0  0  0  0  0  0  0  0  0  0  0
    2.9202  143.7187   54.6290 C   0  0  0  0  0  0  0  0  0  0  0  0
    2.2178  142.5480   53.2978 S   0  0  0  0  0  0  0  0  0  0  0  0
    0.7568  142.5093   53.3008 O   0  0  0  0  0  0  0  0  0  0  0  0
    2.7490  141.1714   53.3568 O   0  0  0  0  0  0  0  0  0  0  0  0
    2.5684  143.1223   51.6850 N   0  0  0  0  0  0  0  0  0  0  0  0
    4.0076  143.0864   51.4265 C   0  0  0  0  0  0  0  0  0  0  0  0
    4.4954  143.7936   52.0963 H   0  0  0  0  0  0  0  0  0  0  0  0
    4.4155  142.0882   51.6313 H   0  0  0  0  0  0  0  0  0  0  0  0
    4.3303  143.4853   49.9901 C   0  0  0  0  0  0  0  0  0  0  0  0
    4.2969  144.5790   49.9154 H   0  0  0  0  0  0  0  0  0  0  0  0
    5.3374  143.1274   49.7987 H   0  0  0  0  0  0  0  0  0  0  0  0
    3.4657  142.8894   49.0031 O   0  0  0  0  0  0  0  0  0  0  0  0
    2.0664  143.0819   49.2802 C   0  0  0  0  0  0  0  0  0  0  0  0
    1.4657  142.5800   48.5213 H   0  0  0  0  0  0  0  0  0  0  0  0
    1.8015  144.1421   49.2520 H   0  0  0  0  0  0  0  0  0  0  0  0
    1.7170  142.5045   50.6494 C   0  0  0  0  0  0  0  0  0  0  0  0
    0.6632  142.7013   50.8652 H   0  0  0  0  0  0  0  0  0  0  0  0
    1.8558  141.4185   50.6268 H   0  0  0  0  0  0  0  0  0  0  0  0
    3.2729  143.2561   55.9197 C   0  0  0  0  0  0  0  0  0  0  0  0
    3.1648  141.8746   56.2662 C   0  0  0  0  0  0  0  0  0  0  0  0
    3.0855  140.7421   56.5242 N   0  0  0  0  0  0  0  0  0  0  0  0
    3.7798  144.1622   56.8600 C   0  0  0  0  0  0  0  0  0  0  0  0
    4.1726  143.7738   58.1042 N   0  0  0  0  0  0  0  0  0  0  0  0
    4.5200  144.4600   58.7738 H   0  0  0  0  0  0  0  0  0  0  0  0
    4.0980  142.7957   58.3639 H   0  0  0  0  0  0  0  0  0  0  0  0
    3.9425  145.4838   56.5621 C   0  0  0  0  0  0  0  0  0  0  0  0
    4.3362  146.1696   57.2959 H   0  0  0  0  0  0  0  0  0  0  0  0
    1.9025  149.2284   52.6580 C   0  0  0  0  0  0  0  0  0  0  0  0
    2.7623  148.4063   51.9676 O   0  0  0  0  0  0  0  0  0  0  0  0
    2.1518  147.3097   51.2810 C   0  0  0  0  0  0  0  0  0  0  0  0
    1.6084  147.6532   50.3967 H   0  0  0  0  0  0  0  0  0  0  0  0
    1.4586  146.7846   51.9444 H   0  0  0  0  0  0  0  0  0  0  0  0
    2.9196  146.5993   50.9603 H   0  0  0  0  0  0  0  0  0  0  0  0
  1  2  1  0
  2  3  2  0
  3  4  1  0
  3  5  1  0
  5  6  1  0
  6  7  1  0
  7  8  1  0
  7  9  1  0
  7 10  1  0
  5 11  2  0
 11 12  1  0
 11 13  1  0
 13 14  1  0
 14 15  1  0
 14 16  1  0
 14 17  1  0
 17 18  2  0
 17 19  1  0
 19 20  1  0
 19 21  1  0
 21 22  2  0
 22 23  1  0
 23 24  1  0
 24 25  2  0
 24 26  2  0
 24 27  1  0
 27 28  1  0
 28 29  1  0
 28 30  1  0
 28 31  1  0
 31 32  1  0
 31 33  1  0
 31 34  1  0
 34 35  1  0
 35 36  1  0
 35 37  1  0
 35 38  1  0
 38 39  1  0
 38 40  1  0
 23 41  2  0
 41 42  1  0
 42 43  3  0
 41 44  1  0
 44 45  1  0
 45 46  1  0
 45 47  1  0
 44 48  2  0
 48 49  1  0
 13 50  2  0
 50 51  1  0
 51 52  1  0
 52 53  1  0
 52 54  1  0
 52 55  1  0
 50  2  1  0
 48 21  1  0
 38 27  1  0
M  END
>  <score>  (274) 
7.19541

$$$$

     RDKit          3D

 53 55  0  0  0  0  0  0  0  0999 V2000
    0.2879  149.1756   51.2321 H   0  0  0  0  0  0  0  0  0  0  0  0
    0.6198  149.5752   52.1832 C   0  0  0  0  0  0  0  0  0  0  0  0
   -0.1813  150.4746   52.9079 C   0  0  0  0  0  0  0  0  0  0  0  0
   -1.9151  150.9796   52.2665 Br  0  0  0  0  0  0  0  0  0  0  0  0
    0.3117  151.0335   54.1031 C   0  0  0  0  0  0  0  0  0  0  0  0
   -0.3821  151.9735   54.8081 O   0  0  0  0  0  0  0  0  0  0  0  0
   -1.4187  151.4045   55.6067 C   0  0  0  0  0  0  0  0  0  0  0  0
   -1.0047  150.6871   56.3185 H   0  0  0  0  0  0  0  0  0  0  0  0
   -1.9316  152.1952   56.1635 H   0  0  0  0  0  0  0  0  0  0  0  0
   -2.1452  150.8858   54.9761 H   0  0  0  0  0  0  0  0  0  0  0  0
    1.5654  150.6717   54.5812 C   0  0  0  0  0  0  0  0  0  0  0  0
    1.9470  151.1240   55.4982 H   0  0  0  0  0  0  0  0  0  0  0  0
    2.3386  149.7562   53.8723 C   0  0  0  0  0  0  0  0  0  0  0  0
    3.6904  149.4315   54.4189 C   0  0  0  0  0  0  0  0  0  0  0  0
    3.9574  150.2312   55.0960 H   0  0  0  0  0  0  0  0  0  0  0  0
    4.4179  149.4020   53.6072 H   0  0  0  0  0  0  0  0  0  0  0  0
    3.7274  148.1378   55.2106 C   0  0  0  0  0  0  0  0  0  0  0  0
    3.8083  148.1790   56.4232 O   0  0  0  0  0  0  0  0  0  0  0  0
    3.6690  146.9446   54.5662 N   0  0  0  0  0  0  0  0  0  0  0  0
    3.4030  146.9219   53.5925 H   0  0  0  0  0  0  0  0  0  0  0  0
    3.5295  145.7691   55.1762 C   0  0  0  0  0  0  0  0  0  0  0  0
    3.0322  144.9498   54.2947 N   0  0  0  0  0  0  0  0  0  0  0  0
    2.9218  143.6814   54.6434 C   0  0  0  0  0  0  0  0  0  0  0  0
    2.4165  142.8354   53.6667 N   0  0  0  0  0  0  0  0  0  0  0  0
    3.2410  141.7514   53.0839 C   0  0  0  0  0  0  0  0  0  0  0  0
    4.2817  142.0608   53.0398 H   0  0  0  0  0  0  0  0  0  0  0  0
    3.1735  140.8667   53.7213 H   0  0  0  0  0  0  0  0  0  0  0  0
    2.8227  141.3722   51.6411 C   0  0  0  0  0  0  0  0  0  0  0  0
    3.6495  140.8452   51.1517 H   0  0  0  0  0  0  0  0  0  0  0  0
    1.9616  140.7011   51.6825 H   0  0  0  0  0  0  0  0  0  0  0  0
    2.4390  142.5651   50.8584 N   0  0  0  0  0  0  0  0  0  0  0  0
    2.3095  142.3597   49.8681 H   0  0  0  0  0  0  0  0  0  0  0  0
    1.3147  143.3485   51.4160 C   0  0  0  0  0  0  0  0  0  0  0  0
    1.4364  144.4063   51.1566 H   0  0  0  0  0  0  0  0  0  0  0  0
    0.3774  143.0065   50.9645 H   0  0  0  0  0  0  0  0  0  0  0  0
    1.1738  143.1667   52.9441 C   0  0  0  0  0  0  0  0  0  0  0  0
    0.6697  144.0287   53.3832 H   0  0  0  0  0  0  0  0  0  0  0  0
    0.5295  142.3072   53.0777 H   0  0  0  0  0  0  0  0  0  0  0  0
    3.2889  143.2027   55.8779 C   0  0  0  0  0  0  0  0  0  0  0  0
    3.1660  141.8113   56.1779 C   0  0  0  0  0  0  0  0  0  0  0  0
    3.0772  140.6801   56.4293 N   0  0  0  0  0  0  0  0  0  0  0  0
    3.7613  144.1222   56.7801 C   0  0  0  0  0  0  0  0  0  0  0  0
    4.1486  143.7572   58.0154 N   0  0  0  0  0  0  0  0  0  0  0  0
    4.4789  144.4642   58.6675 H   0  0  0  0  0  0  0  0  0  0  0  0
    4.0780  142.7835   58.2894 H   0  0  0  0  0  0  0  0  0  0  0  0
    3.8861  145.4378   56.4568 C   0  0  0  0  0  0  0  0  0  0  0  0
    4.2823  146.1465   57.1706 H   0  0  0  0  0  0  0  0  0  0  0  0
    1.8921  149.2182   52.6571 C   0  0  0  0  0  0  0  0  0  0  0  0
    2.7568  148.4067   51.9631 O   0  0  0  0  0  0  0  0  0  0  0  0
    2.1471  147.3108   51.2786 C   0  0  0  0  0  0  0  0  0  0  0  0
    2.9144  146.5981   50.9625 H   0  0  0  0  0  0  0  0  0  0  0  0
    1.6055  147.6544   50.3928 H   0  0  0  0  0  0  0  0  0  0  0  0
    1.4509  146.7924   51.9444 H   0  0  0  0  0  0  0  0  0  0  0  0
  1  2  1  0
  2  3  2  0
  3  4  1  0
  3  5  1  0
  5  6  1  0
  6  7  1  0
  7  8  1  0
  7  9  1  0
  7 10  1  0
  5 11  2  0
 11 12  1  0
 11 13  1  0
 13 14  1  0
 14 15  1  0
 14 16  1  0
 14 17  1  0
 17 18  2  0
 17 19  1  0
 19 20  1  0
 19 21  1  0
 21 22  2  0
 22 23  1  0
 23 24  1  0
 24 25  1  0
 25 26  1  0
 25 27  1  0
 25 28  1  0
 28 29  1  0
 28 30  1  0
 28 31  1  0
 31 32  1  0
 31 33  1  0
 33 34  1  0
 33 35  1  0
 33 36  1  0
 36 37  1  0
 36 38  1  0
 23 39  2  0
 39 40  1  0
 40 41  3  0
 39 42  1  0
 42 43  1  0
 43 44  1  0
 43 45  1  0
 42 46  2  0
 46 47  1  0
 13 48  2  0
 48 49  1  0
 49 50  1  0
 50 51  1  0
 50 52  1  0
 50 53  1  0
 48  2  1  0
 46 21  1  0
 36 24  1  0
M  END
>  <score>  (275) 
7.19543

$$$$

     RDKit          3D

 54 56  0  0  0  0  0  0  0  0999 V2000
    0.3069  149.2023   51.2536 H   0  0  0  0  0  0  0  0  0  0  0  0
    0.6602  149.6072   52.1959 C   0  0  0  0  0  0  0  0  0  0  0  0
   -0.1434  150.5011   52.9347 C   0  0  0  0  0  0  0  0  0  0  0  0
   -1.8691  150.9833   52.2752 Br  0  0  0  0  0  0  0  0  0  0  0  0
    0.3344  151.0593   54.1324 C   0  0  0  0  0  0  0  0  0  0  0  0
   -0.3797  151.9762   54.8614 O   0  0  0  0  0  0  0  0  0  0  0  0
   -1.4273  151.4047   55.6494 C   0  0  0  0  0  0  0  0  0  0  0  0
   -1.9441  152.2007   56.1938 H   0  0  0  0  0  0  0  0  0  0  0  0
   -2.1534  150.8753   55.0246 H   0  0  0  0  0  0  0  0  0  0  0  0
   -1.0150  150.7038   56.3762 H   0  0  0  0  0  0  0  0  0  0  0  0
    1.5983  150.6928   54.5731 C   0  0  0  0  0  0  0  0  0  0  0  0
    1.9907  151.1465   55.4740 H   0  0  0  0  0  0  0  0  0  0  0  0
    2.3829  149.7887   53.8570 C   0  0  0  0  0  0  0  0  0  0  0  0
    3.7291  149.4765   54.3980 C   0  0  0  0  0  0  0  0  0  0  0  0
    3.9994  150.3546   54.9703 H   0  0  0  0  0  0  0  0  0  0  0  0
    4.4188  149.3575   53.5592 H   0  0  0  0  0  0  0  0  0  0  0  0
    3.7530  148.2171   55.2716 C   0  0  0  0  0  0  0  0  0  0  0  0
    3.8526  148.2772   56.4867 O   0  0  0  0  0  0  0  0  0  0  0  0
    3.7156  147.0031   54.6544 N   0  0  0  0  0  0  0  0  0  0  0  0
    3.5262  146.9604   53.6672 H   0  0  0  0  0  0  0  0  0  0  0  0
    3.5531  145.8071   55.2421 C   0  0  0  0  0  0  0  0  0  0  0  0
    3.0777  144.9848   54.3333 N   0  0  0  0  0  0  0  0  0  0  0  0
    2.9259  143.6938   54.6388 C   0  0  0  0  0  0  0  0  0  0  0  0
    2.3950  142.7494   53.5610 C   0  0  0  0  0  0  0  0  0  0  0  0
    1.8877  141.9572   54.1097 H   0  0  0  0  0  0  0  0  0  0  0  0
    3.5466  142.1262   52.7295 C   0  0  0  0  0  0  0  0  0  0  0  0
    4.1990  141.5433   53.3895 H   0  0  0  0  0  0  0  0  0  0  0  0
    4.1353  142.9297   52.2684 H   0  0  0  0  0  0  0  0  0  0  0  0
    3.0379  141.2039   51.6160 C   0  0  0  0  0  0  0  0  0  0  0  0
    3.8820  140.8371   51.0222 H   0  0  0  0  0  0  0  0  0  0  0  0
    2.5330  140.3399   52.0577 H   0  0  0  0  0  0  0  0  0  0  0  0
    2.1023  141.9394   50.7592 N   0  0  0  0  0  0  0  0  0  0  0  0
    2.5842  142.7090   50.2907 H   0  0  0  0  0  0  0  0  0  0  0  0
    0.9286  142.4385   51.4818 C   0  0  0  0  0  0  0  0  0  0  0  0
    0.3643  141.6018   51.9101 H   0  0  0  0  0  0  0  0  0  0  0  0
    0.2740  142.9647   50.7878 H   0  0  0  0  0  0  0  0  0  0  0  0
    1.3773  143.4051   52.5841 C   0  0  0  0  0  0  0  0  0  0  0  0
    0.4945  143.7487   53.1341 H   0  0  0  0  0  0  0  0  0  0  0  0
    1.8440  144.2777   52.1095 H   0  0  0  0  0  0  0  0  0  0  0  0
    3.2646  143.2136   55.9034 C   0  0  0  0  0  0  0  0  0  0  0  0
    3.1404  141.8306   56.2271 C   0  0  0  0  0  0  0  0  0  0  0  0
    3.0393  140.6924   56.4501 N   0  0  0  0  0  0  0  0  0  0  0  0
    3.7479  144.1173   56.8170 C   0  0  0  0  0  0  0  0  0  0  0  0
    4.1497  143.7222   58.0363 N   0  0  0  0  0  0  0  0  0  0  0  0
    4.5030  144.4252   58.6789 H   0  0  0  0  0  0  0  0  0  0  0  0
    4.0638  142.7444   58.3038 H   0  0  0  0  0  0  0  0  0  0  0  0
    3.8960  145.4382   56.5146 C   0  0  0  0  0  0  0  0  0  0  0  0
    4.3157  146.1290   57.2310 H   0  0  0  0  0  0  0  0  0  0  0  0
    1.9358  149.2408   52.6494 C   0  0  0  0  0  0  0  0  0  0  0  0
    2.7755  148.4015   51.9513 O   0  0  0  0  0  0  0  0  0  0  0  0
    2.1644  147.2960   51.2820 C   0  0  0  0  0  0  0  0  0  0  0  0
    2.9459  146.5857   50.9916 H   0  0  0  0  0  0  0  0  0  0  0  0
    1.4573  146.7815   51.9418 H   0  0  0  0  0  0  0  0  0  0  0  0
    1.6414  147.6338   50.3828 H   0  0  0  0  0  0  0  0  0  0  0  0
  1  2  1  0
  2  3  2  0
  3  4  1  0
  3  5  1  0
  5  6  1  0
  6  7  1  0
  7  8  1  0
  7  9  1  0
  7 10  1  0
  5 11  2  0
 11 12  1  0
 11 13  1  0
 13 14  1  0
 14 15  1  0
 14 16  1  0
 14 17  1  0
 17 18  2  0
 17 19  1  0
 19 20  1  0
 19 21  1  0
 21 22  2  0
 22 23  1  0
 23 24  1  0
 24 25  1  0
 24 26  1  0
 26 27  1  0
 26 28  1  0
 26 29  1  0
 29 30  1  0
 29 31  1  0
 29 32  1  0
 32 33  1  0
 32 34  1  0
 34 35  1  0
 34 36  1  0
 34 37  1  0
 37 38  1  0
 37 39  1  0
 23 40  2  0
 40 41  1  0
 41 42  3  0
 40 43  1  0
 43 44  1  0
 44 45  1  0
 44 46  1  0
 43 47  2  0
 47 48  1  0
 13 49  2  0
 49 50  1  0
 50 51  1  0
 51 52  1  0
 51 53  1  0
 51 54  1  0
 49  2  1  0
 47 21  1  0
 37 24  1  0
M  END
>  <score>  (276) 
7.19656

$$$$

     RDKit          3D

 57 59  0  0  0  0  0  0  0  0999 V2000
    0.2220  149.1097   51.2630 H   0  0  0  0  0  0  0  0  0  0  0  0
    0.5929  149.5507   52.1788 C   0  0  0  0  0  0  0  0  0  0  0  0
   -0.2182  150.4688   52.8634 C   0  0  0  0  0  0  0  0  0  0  0  0
   -1.9526  150.9010   52.1807 Br  0  0  0  0  0  0  0  0  0  0  0  0
    0.2498  151.0575   54.0450 C   0  0  0  0  0  0  0  0  0  0  0  0
   -0.4737  151.9981   54.7230 O   0  0  0  0  0  0  0  0  0  0  0  0
   -1.4759  151.4032   55.5414 C   0  0  0  0  0  0  0  0  0  0  0  0
   -1.9650  152.1782   56.1403 H   0  0  0  0  0  0  0  0  0  0  0  0
   -1.0183  150.6699   56.2116 H   0  0  0  0  0  0  0  0  0  0  0  0
   -2.2267  150.9010   54.9214 H   0  0  0  0  0  0  0  0  0  0  0  0
    1.4896  150.6775   54.5512 C   0  0  0  0  0  0  0  0  0  0  0  0
    1.8127  151.0973   55.4998 H   0  0  0  0  0  0  0  0  0  0  0  0
    2.3091  149.7730   53.8663 C   0  0  0  0  0  0  0  0  0  0  0  0
    3.6427  149.4520   54.4873 C   0  0  0  0  0  0  0  0  0  0  0  0
    4.4272  149.4762   53.7312 H   0  0  0  0  0  0  0  0  0  0  0  0
    3.8572  150.2195   55.2245 H   0  0  0  0  0  0  0  0  0  0  0  0
    3.6697  148.1058   55.1920 C   0  0  0  0  0  0  0  0  0  0  0  0
    3.7692  148.0530   56.4051 O   0  0  0  0  0  0  0  0  0  0  0  0
    3.6509  146.9602   54.4504 N   0  0  0  0  0  0  0  0  0  0  0  0
    3.3622  147.0028   53.4830 H   0  0  0  0  0  0  0  0  0  0  0  0
    3.6131  145.7313   55.0040 C   0  0  0  0  0  0  0  0  0  0  0  0
    3.1690  144.8420   54.1425 N   0  0  0  0  0  0  0  0  0  0  0  0
    3.0372  143.5799   54.5513 C   0  0  0  0  0  0  0  0  0  0  0  0
    2.3290  142.6316   53.6310 C   0  0  0  0  0  0  0  0  0  0  0  0
    2.6300  141.6028   53.8441 H   0  0  0  0  0  0  0  0  0  0  0  0
    1.2593  142.7199   53.7957 H   0  0  0  0  0  0  0  0  0  0  0  0
    2.5883  142.9647   52.1823 C   0  0  0  0  0  0  0  0  0  0  0  0
    2.5208  144.0514   52.0212 H   0  0  0  0  0  0  0  0  0  0  0  0
    1.8271  142.4992   51.5495 H   0  0  0  0  0  0  0  0  0  0  0  0
    3.9132  142.4779   51.7944 N   0  0  0  0  0  0  0  0  0  0  0  0
    4.3243  142.9417   50.4696 C   0  0  0  0  0  0  0  0  0  0  0  0
    4.5616  144.0131   50.4930 H   0  0  0  0  0  0  0  0  0  0  0  0
    3.5218  142.7890   49.7424 H   0  0  0  0  0  0  0  0  0  0  0  0
    5.5044  142.0671   50.0854 C   0  0  0  0  0  0  0  0  0  0  0  0
    6.4334  142.6157   50.1632 H   0  0  0  0  0  0  0  0  0  0  0  0
    5.3864  141.7271   49.0526 H   0  0  0  0  0  0  0  0  0  0  0  0
    5.5361  140.9044   51.0696 C   0  0  0  0  0  0  0  0  0  0  0  0
    6.4589  140.9188   51.6599 H   0  0  0  0  0  0  0  0  0  0  0  0
    5.4873  139.9619   50.5299 H   0  0  0  0  0  0  0  0  0  0  0  0
    4.3363  141.0803   52.0060 C   0  0  0  0  0  0  0  0  0  0  0  0
    3.5312  140.3748   51.7715 H   0  0  0  0  0  0  0  0  0  0  0  0
    4.6282  140.9116   53.0478 H   0  0  0  0  0  0  0  0  0  0  0  0
    3.3672  143.1837   55.8407 C   0  0  0  0  0  0  0  0  0  0  0  0
    3.2292  141.8180   56.2248 C   0  0  0  0  0  0  0  0  0  0  0  0
    3.1028  140.6815   56.4424 N   0  0  0  0  0  0  0  0  0  0  0  0
    3.7821  144.1510   56.7259 C   0  0  0  0  0  0  0  0  0  0  0  0
    4.0143  143.8477   58.0300 N   0  0  0  0  0  0  0  0  0  0  0  0
    4.4634  144.5477   58.6149 H   0  0  0  0  0  0  0  0  0  0  0  0
    4.1420  142.8705   58.2716 H   0  0  0  0  0  0  0  0  0  0  0  0
    3.9195  145.4437   56.3119 C   0  0  0  0  0  0  0  0  0  0  0  0
    4.2391  146.2083   57.0029 H   0  0  0  0  0  0  0  0  0  0  0  0
    1.8757  149.2093   52.6508 C   0  0  0  0  0  0  0  0  0  0  0  0
    2.7167  148.3516   51.9801 O   0  0  0  0  0  0  0  0  0  0  0  0
    2.0775  147.3012   51.2500 C   0  0  0  0  0  0  0  0  0  0  0  0
    1.3799  146.7473   51.8900 H   0  0  0  0  0  0  0  0  0  0  0  0
    1.5335  147.7013   50.3886 H   0  0  0  0  0  0  0  0  0  0  0  0
    2.8478  146.6118   50.8949 H   0  0  0  0  0  0  0  0  0  0  0  0
  1  2  1  0
  2  3  2  0
  3  4  1  0
  3  5  1  0
  5  6  1  0
  6  7  1  0
  7  8  1  0
  7  9  1  0
  7 10  1  0
  5 11  2  0
 11 12  1  0
 11 13  1  0
 13 14  1  0
 14 15  1  0
 14 16  1  0
 14 17  1  0
 17 18  2  0
 17 19  1  0
 19 20  1  0
 19 21  1  0
 21 22  2  0
 22 23  1  0
 23 24  1  0
 24 25  1  0
 24 26  1  0
 24 27  1  0
 27 28  1  0
 27 29  1  0
 27 30  1  0
 30 31  1  0
 31 32  1  0
 31 33  1  0
 31 34  1  0
 34 35  1  0
 34 36  1  0
 34 37  1  0
 37 38  1  0
 37 39  1  0
 37 40  1  0
 40 41  1  0
 40 42  1  0
 23 43  2  0
 43 44  1  0
 44 45  3  0
 43 46  1  0
 46 47  1  0
 47 48  1  0
 47 49  1  0
 46 50  2  0
 50 51  1  0
 13 52  2  0
 52 53  1  0
 53 54  1  0
 54 55  1  0
 54 56  1  0
 54 57  1  0
 52  2  1  0
 50 21  1  0
 40 30  1  0
M  END
>  <score>  (277) 
7.19827

$$$$

     RDKit          3D

 52 54  0  0  0  0  0  0  0  0999 V2000
    0.2233  149.0524   51.2739 H   0  0  0  0  0  0  0  0  0  0  0  0
    0.5930  149.5319   52.1762 C   0  0  0  0  0  0  0  0  0  0  0  0
   -0.2272  150.4605   52.8302 C   0  0  0  0  0  0  0  0  0  0  0  0
   -1.9681  150.8518   52.1274 Br  0  0  0  0  0  0  0  0  0  0  0  0
    0.2177  151.0753   54.0104 C   0  0  0  0  0  0  0  0  0  0  0  0
   -0.5367  152.0037   54.6713 O   0  0  0  0  0  0  0  0  0  0  0  0
   -1.5174  151.3984   55.5126 C   0  0  0  0  0  0  0  0  0  0  0  0
   -2.2845  150.9075   54.9091 H   0  0  0  0  0  0  0  0  0  0  0  0
   -1.0538  150.6547   56.1652 H   0  0  0  0  0  0  0  0  0  0  0  0
   -1.9951  152.1589   56.1354 H   0  0  0  0  0  0  0  0  0  0  0  0
    1.4504  150.7147   54.5428 C   0  0  0  0  0  0  0  0  0  0  0  0
    1.7590  151.1463   55.4881 H   0  0  0  0  0  0  0  0  0  0  0  0
    2.2898  149.8179   53.8849 C   0  0  0  0  0  0  0  0  0  0  0  0
    3.6165  149.5602   54.5445 C   0  0  0  0  0  0  0  0  0  0  0  0
    4.4164  149.5851   53.8080 H   0  0  0  0  0  0  0  0  0  0  0  0
    3.7929  150.3567   55.2692 H   0  0  0  0  0  0  0  0  0  0  0  0
    3.6696  148.2160   55.2441 C   0  0  0  0  0  0  0  0  0  0  0  0
    3.7695  148.1487   56.4531 O   0  0  0  0  0  0  0  0  0  0  0  0
    3.7147  147.0896   54.4873 N   0  0  0  0  0  0  0  0  0  0  0  0
    3.4788  147.1449   53.5101 H   0  0  0  0  0  0  0  0  0  0  0  0
    3.7244  145.8420   54.9844 C   0  0  0  0  0  0  0  0  0  0  0  0
    3.4297  144.9804   54.0456 N   0  0  0  0  0  0  0  0  0  0  0  0
    3.2898  143.6948   54.3613 C   0  0  0  0  0  0  0  0  0  0  0  0
    2.7931  142.7839   53.2508 C   0  0  0  0  0  0  0  0  0  0  0  0
    2.9350  141.7446   53.5645 H   0  0  0  0  0  0  0  0  0  0  0  0
    3.4594  142.9928   51.8756 C   0  0  0  0  0  0  0  0  0  0  0  0
    4.1414  143.8490   51.8863 H   0  0  0  0  0  0  0  0  0  0  0  0
    4.0382  142.1038   51.6088 H   0  0  0  0  0  0  0  0  0  0  0  0
    2.3497  143.2207   50.8452 C   0  0  0  0  0  0  0  0  0  0  0  0
    2.3486  144.2678   50.5200 H   0  0  0  0  0  0  0  0  0  0  0  0
    2.4906  142.6000   49.9571 H   0  0  0  0  0  0  0  0  0  0  0  0
    1.0367  142.8656   51.5313 C   0  0  0  0  0  0  0  0  0  0  0  0
    0.2234  143.5128   51.1851 H   0  0  0  0  0  0  0  0  0  0  0  0
    0.7585  141.8288   51.3122 H   0  0  0  0  0  0  0  0  0  0  0  0
    1.3024  143.0283   53.0245 C   0  0  0  0  0  0  0  0  0  0  0  0
    0.7484  142.3120   53.6217 H   0  0  0  0  0  0  0  0  0  0  0  0
    1.0070  144.0394   53.3332 H   0  0  0  0  0  0  0  0  0  0  0  0
    3.4533  143.2540   55.6738 C   0  0  0  0  0  0  0  0  0  0  0  0
    3.2585  141.8833   56.0083 C   0  0  0  0  0  0  0  0  0  0  0  0
    3.0881  140.7565   56.2521 N   0  0  0  0  0  0  0  0  0  0  0  0
    3.7609  144.2015   56.6257 C   0  0  0  0  0  0  0  0  0  0  0  0
    3.9146  143.8792   57.9299 N   0  0  0  0  0  0  0  0  0  0  0  0
    4.3613  144.5821   58.5092 H   0  0  0  0  0  0  0  0  0  0  0  0
    4.0957  142.8973   58.1276 H   0  0  0  0  0  0  0  0  0  0  0  0
    3.9217  145.5091   56.2892 C   0  0  0  0  0  0  0  0  0  0  0  0
    4.1759  146.2541   57.0235 H   0  0  0  0  0  0  0  0  0  0  0  0
    1.8697  149.2109   52.6787 C   0  0  0  0  0  0  0  0  0  0  0  0
    2.6950  148.3170   52.0327 O   0  0  0  0  0  0  0  0  0  0  0  0
    2.0487  147.3026   51.2424 C   0  0  0  0  0  0  0  0  0  0  0  0
    1.3383  146.7368   51.8528 H   0  0  0  0  0  0  0  0  0  0  0  0
    2.7960  146.6029   50.8542 H   0  0  0  0  0  0  0  0  0  0  0  0
    1.5088  147.7360   50.3944 H   0  0  0  0  0  0  0  0  0  0  0  0
  1  2  1  0
  2  3  2  0
  3  4  1  0
  3  5  1  0
  5  6  1  0
  6  7  1  0
  7  8  1  0
  7  9  1  0
  7 10  1  0
  5 11  2  0
 11 12  1  0
 11 13  1  0
 13 14  1  0
 14 15  1  0
 14 16  1  0
 14 17  1  0
 17 18  2  0
 17 19  1  0
 19 20  1  0
 19 21  1  0
 21 22  2  0
 22 23  1  0
 23 24  1  0
 24 25  1  0
 24 26  1  0
 26 27  1  0
 26 28  1  0
 26 29  1  0
 29 30  1  0
 29 31  1  0
 29 32  1  0
 32 33  1  0
 32 34  1  0
 32 35  1  0
 35 36  1  0
 35 37  1  0
 23 38  2  0
 38 39  1  0
 39 40  3  0
 38 41  1  0
 41 42  1  0
 42 43  1  0
 42 44  1  0
 41 45  2  0
 45 46  1  0
 13 47  2  0
 47 48  1  0
 48 49  1  0
 49 50  1  0
 49 51  1  0
 49 52  1  0
 47  2  1  0
 45 21  1  0
 35 24  1  0
M  END
>  <score>  (278) 
7.20042

$$$$

     RDKit          3D

 55 57  0  0  0  0  0  0  0  0999 V2000
    6.5117  139.1524   51.5722 H   0  0  0  0  0  0  0  0  0  0  0  0
    5.7343  139.8803   51.8027 C   0  0  0  0  0  0  0  0  0  0  0  0
    4.8055  139.6478   52.8238 C   0  0  0  0  0  0  0  0  0  0  0  0
    4.8799  138.7309   53.3905 H   0  0  0  0  0  0  0  0  0  0  0  0
    3.8415  140.6088   53.1553 C   0  0  0  0  0  0  0  0  0  0  0  0
    3.1361  140.3977   53.9468 H   0  0  0  0  0  0  0  0  0  0  0  0
    3.8049  141.8369   52.4811 C   0  0  0  0  0  0  0  0  0  0  0  0
    2.9037  142.9883   52.8965 C   0  0  2  0  0  0  0  0  0  0  0  0
    2.9007  143.6955   52.0591 H   0  0  0  0  0  0  0  0  0  0  0  0
    3.3937  143.7537   54.1156 C   0  0  0  0  0  0  0  0  0  0  0  0
    3.4938  145.0684   53.9058 N   0  0  0  0  0  0  0  0  0  0  0  0
    3.7106  145.8711   54.9128 C   0  0  0  0  0  0  0  0  0  0  0  0
    3.6915  147.1390   54.4675 N   0  0  0  0  0  0  0  0  0  0  0  0
    3.5643  147.2406   53.4701 H   0  0  0  0  0  0  0  0  0  0  0  0
    3.6377  148.2414   55.2547 C   0  0  0  0  0  0  0  0  0  0  0  0
    3.7196  148.1511   56.4658 O   0  0  0  0  0  0  0  0  0  0  0  0
    3.5829  149.5960   54.5868 C   0  0  0  0  0  0  0  0  0  0  0  0
    4.4024  149.6733   53.8696 H   0  0  0  0  0  0  0  0  0  0  0  0
    3.7270  150.3484   55.3620 H   0  0  0  0  0  0  0  0  0  0  0  0
    2.2603  149.8431   53.9086 C   0  0  0  0  0  0  0  0  0  0  0  0
    1.4085  150.7712   54.5174 C   0  0  0  0  0  0  0  0  0  0  0  0
    1.7101  151.2692   55.4333 H   0  0  0  0  0  0  0  0  0  0  0  0
    0.1607  151.0775   53.9780 C   0  0  0  0  0  0  0  0  0  0  0  0
   -0.6353  151.9906   54.6180 O   0  0  0  0  0  0  0  0  0  0  0  0
   -1.5949  151.3810   55.4901 C   0  0  0  0  0  0  0  0  0  0  0  0
   -2.3913  150.9044   54.9097 H   0  0  0  0  0  0  0  0  0  0  0  0
   -2.0452  152.1393   56.1397 H   0  0  0  0  0  0  0  0  0  0  0  0
   -1.1217  150.6243   56.1232 H   0  0  0  0  0  0  0  0  0  0  0  0
   -0.2484  150.4377   52.7987 C   0  0  0  0  0  0  0  0  0  0  0  0
   -1.9620  150.8071   52.0255 Br  0  0  0  0  0  0  0  0  0  0  0  0
    0.6017  149.5092   52.1839 C   0  0  0  0  0  0  0  0  0  0  0  0
    0.2900  149.0145   51.2719 H   0  0  0  0  0  0  0  0  0  0  0  0
    1.8549  149.1833   52.7260 C   0  0  0  0  0  0  0  0  0  0  0  0
    2.6692  148.2389   52.1340 O   0  0  0  0  0  0  0  0  0  0  0  0
    2.0203  147.3086   51.2435 C   0  0  0  0  0  0  0  0  0  0  0  0
    1.2780  146.7149   51.7875 H   0  0  0  0  0  0  0  0  0  0  0  0
    2.7511  146.6205   50.8065 H   0  0  0  0  0  0  0  0  0  0  0  0
    1.5155  147.8298   50.4237 H   0  0  0  0  0  0  0  0  0  0  0  0
    3.8376  145.4522   56.2029 C   0  0  0  0  0  0  0  0  0  0  0  0
    3.9286  146.1400   57.0228 H   0  0  0  0  0  0  0  0  0  0  0  0
    3.7397  144.1197   56.4395 C   0  0  0  0  0  0  0  0  0  0  0  0
    3.8407  143.7835   57.7493 N   0  0  0  0  0  0  0  0  0  0  0  0
    4.0577  142.8157   57.9814 H   0  0  0  0  0  0  0  0  0  0  0  0
    4.1581  144.5271   58.3724 H   0  0  0  0  0  0  0  0  0  0  0  0
    3.5158  143.2284   55.4114 C   0  0  0  0  0  0  0  0  0  0  0  0
    3.3312  141.8491   55.7273 C   0  0  0  0  0  0  0  0  0  0  0  0
    3.1849  140.7355   56.0308 N   0  0  0  0  0  0  0  0  0  0  0  0
    1.4453  142.5924   53.1328 C   0  0  0  0  0  0  0  0  0  0  0  0
    1.0963  141.9076   52.3499 H   0  0  0  0  0  0  0  0  0  0  0  0
    0.8094  143.4869   53.1213 H   0  0  0  0  0  0  0  0  0  0  0  0
    1.3512  142.1321   54.1193 H   0  0  0  0  0  0  0  0  0  0  0  0
    4.6995  142.0294   51.4192 C   0  0  0  0  0  0  0  0  0  0  0  0
    4.7000  142.9711   50.8820 H   0  0  0  0  0  0  0  0  0  0  0  0
    5.6655  141.0751   51.0833 C   0  0  0  0  0  0  0  0  0  0  0  0
    6.3892  141.3026   50.3027 H   0  0  0  0  0  0  0  0  0  0  0  0
  1  2  1  0
  2  3  2  0
  3  4  1  0
  3  5  1  0
  5  6  1  0
  5  7  2  0
  7  8  1  0
  8  9  1  6
  8 10  1  0
 10 11  2  0
 11 12  1  0
 12 13  1  0
 13 14  1  0
 13 15  1  0
 15 16  2  0
 15 17  1  0
 17 18  1  0
 17 19  1  0
 17 20  1  0
 20 21  2  0
 21 22  1  0
 21 23  1  0
 23 24  1  0
 24 25  1  0
 25 26  1  0
 25 27  1  0
 25 28  1  0
 23 29  2  0
 29 30  1  0
 29 31  1  0
 31 32  1  0
 31 33  2  0
 33 34  1  0
 34 35  1  0
 35 36  1  0
 35 37  1  0
 35 38  1  0
 12 39  2  0
 39 40  1  0
 39 41  1  0
 41 42  1  0
 42 43  1  0
 42 44  1  0
 41 45  2  0
 45 46  1  0
 46 47  3  0
  8 48  1  0
 48 49  1  0
 48 50  1  0
 48 51  1  0
  7 52  1  0
 52 53  1  0
 52 54  2  0
 54 55  1  0
 54  2  1  0
 45 10  1  0
 33 20  1  0
M  END
>  <score>  (279) 
7.20128

$$$$

     RDKit          3D

 50 52  0  0  0  0  0  0  0  0999 V2000
    6.4230  141.0480   50.2502 H   0  0  0  0  0  0  0  0  0  0  0  0
    5.6482  141.3641   50.9279 C   0  0  0  0  0  0  0  0  0  0  0  0
    5.4868  140.7235   52.1654 C   0  0  0  0  0  0  0  0  0  0  0  0
    6.1816  139.9410   52.4670 H   0  0  0  0  0  0  0  0  0  0  0  0
    4.4211  141.0938   53.0010 C   0  0  0  0  0  0  0  0  0  0  0  0
    4.2628  140.5855   53.9465 H   0  0  0  0  0  0  0  0  0  0  0  0
    3.5352  142.0994   52.5978 C   0  0  0  0  0  0  0  0  0  0  0  0
    2.1583  142.5265   53.5992 S   0  0  0  0  0  0  0  0  0  0  0  0
    2.9158  143.6403   54.7268 C   0  0  0  0  0  0  0  0  0  0  0  0
    3.0594  144.9005   54.3151 N   0  0  0  0  0  0  0  0  0  0  0  0
    3.5749  145.7661   55.1496 C   0  0  0  0  0  0  0  0  0  0  0  0
    3.6882  146.9627   54.5421 N   0  0  0  0  0  0  0  0  0  0  0  0
    3.3921  146.9595   53.5761 H   0  0  0  0  0  0  0  0  0  0  0  0
    3.7058  148.1351   55.2277 C   0  0  0  0  0  0  0  0  0  0  0  0
    3.8135  148.1255   56.4440 O   0  0  0  0  0  0  0  0  0  0  0  0
    3.6650  149.4565   54.4718 C   0  0  0  0  0  0  0  0  0  0  0  0
    4.4292  149.4519   53.6923 H   0  0  0  0  0  0  0  0  0  0  0  0
    3.8968  150.2460   55.1799 H   0  0  0  0  0  0  0  0  0  0  0  0
    2.3228  149.7733   53.8669 C   0  0  0  0  0  0  0  0  0  0  0  0
    1.5125  150.6787   54.5568 C   0  0  0  0  0  0  0  0  0  0  0  0
    1.8567  151.1161   55.4880 H   0  0  0  0  0  0  0  0  0  0  0  0
    0.2667  151.0552   54.0665 C   0  0  0  0  0  0  0  0  0  0  0  0
   -0.4479  151.9942   54.7574 O   0  0  0  0  0  0  0  0  0  0  0  0
   -1.4598  151.4017   55.5658 C   0  0  0  0  0  0  0  0  0  0  0  0
   -1.9570  152.1798   56.1509 H   0  0  0  0  0  0  0  0  0  0  0  0
   -2.2011  150.8932   54.9413 H   0  0  0  0  0  0  0  0  0  0  0  0
   -1.0130  150.6750   56.2491 H   0  0  0  0  0  0  0  0  0  0  0  0
   -0.2047  150.4748   52.8790 C   0  0  0  0  0  0  0  0  0  0  0  0
   -1.9423  150.9256   52.2104 Br  0  0  0  0  0  0  0  0  0  0  0  0
    0.6046  149.5621   52.1800 C   0  0  0  0  0  0  0  0  0  0  0  0
    0.2413  149.1360   51.2515 H   0  0  0  0  0  0  0  0  0  0  0  0
    1.8848  149.2164   52.6523 C   0  0  0  0  0  0  0  0  0  0  0  0
    2.7309  148.3760   51.9694 O   0  0  0  0  0  0  0  0  0  0  0  0
    2.0991  147.3086   51.2601 C   0  0  0  0  0  0  0  0  0  0  0  0
    2.8727  146.6162   50.9148 H   0  0  0  0  0  0  0  0  0  0  0  0
    1.4067  146.7647   51.9147 H   0  0  0  0  0  0  0  0  0  0  0  0
    1.5525  147.6948   50.3937 H   0  0  0  0  0  0  0  0  0  0  0  0
    3.9257  145.4686   56.4423 C   0  0  0  0  0  0  0  0  0  0  0  0
    4.3052  146.2195   57.1165 H   0  0  0  0  0  0  0  0  0  0  0  0
    3.7896  144.1672   56.8423 C   0  0  0  0  0  0  0  0  0  0  0  0
    4.1569  143.8314   58.1014 N   0  0  0  0  0  0  0  0  0  0  0  0
    4.1202  142.8615   58.4049 H   0  0  0  0  0  0  0  0  0  0  0  0
    4.4820  144.5525   58.7359 H   0  0  0  0  0  0  0  0  0  0  0  0
    3.2991  143.2145   55.9888 C   0  0  0  0  0  0  0  0  0  0  0  0
    3.2034  141.8375   56.3496 C   0  0  0  0  0  0  0  0  0  0  0  0
    3.1298  140.6875   56.5255 N   0  0  0  0  0  0  0  0  0  0  0  0
    3.7064  142.7568   51.3749 C   0  0  0  0  0  0  0  0  0  0  0  0
    2.9699  143.4900   51.0535 H   0  0  0  0  0  0  0  0  0  0  0  0
    4.7827  142.4053   50.5546 C   0  0  0  0  0  0  0  0  0  0  0  0
    4.9401  142.9088   49.6132 H   0  0  0  0  0  0  0  0  0  0  0  0
  1  2  1  0
  2  3  2  0
  3  4  1  0
  3  5  1  0
  5  6  1  0
  5  7  2  0
  7  8  1  0
  8  9  1  0
  9 10  2  0
 10 11  1  0
 11 12  1  0
 12 13  1  0
 12 14  1  0
 14 15  2  0
 14 16  1  0
 16 17  1  0
 16 18  1  0
 16 19  1  0
 19 20  2  0
 20 21  1  0
 20 22  1  0
 22 23  1  0
 23 24  1  0
 24 25  1  0
 24 26  1  0
 24 27  1  0
 22 28  2  0
 28 29  1  0
 28 30  1  0
 30 31  1  0
 30 32  2  0
 32 33  1  0
 33 34  1  0
 34 35  1  0
 34 36  1  0
 34 37  1  0
 11 38  2  0
 38 39  1  0
 38 40  1  0
 40 41  1  0
 41 42  1  0
 41 43  1  0
 40 44  2  0
 44 45  1  0
 45 46  3  0
  7 47  1  0
 47 48  1  0
 47 49  2  0
 49 50  1  0
 49  2  1  0
 44  9  1  0
 32 19  1  0
M  END
>  <score>  (280) 
7.20209

$$$$

     RDKit          3D

 53 55  0  0  0  0  0  0  0  0999 V2000
    4.6580  140.4170   50.3058 H   0  0  0  0  0  0  0  0  0  0  0  0
    4.2845  141.3817   50.6327 C   0  0  0  0  0  0  0  0  0  0  0  0
    4.9817  142.5001   50.3557 N   0  0  0  0  0  0  0  0  0  0  0  0
    4.5101  143.6792   50.8066 C   0  0  0  0  0  0  0  0  0  0  0  0
    5.0463  144.6182   50.6942 H   0  0  0  0  0  0  0  0  0  0  0  0
    3.3267  143.7700   51.5104 C   0  0  0  0  0  0  0  0  0  0  0  0
    2.9940  144.7429   51.8395 H   0  0  0  0  0  0  0  0  0  0  0  0
    2.6010  142.6255   51.8260 C   0  0  0  0  0  0  0  0  0  0  0  0
    1.4093  142.7117   52.7367 C   0  0  0  0  0  0  0  0  0  0  0  0
    0.8982  143.6729   52.6220 H   0  0  0  0  0  0  0  0  0  0  0  0
    0.6844  141.9204   52.4999 H   0  0  0  0  0  0  0  0  0  0  0  0
    1.9076  142.5701   54.1106 N   0  0  0  0  0  0  0  0  0  0  0  0
    2.1759  141.6454   54.4191 H   0  0  0  0  0  0  0  0  0  0  0  0
    2.6162  143.5341   54.7802 C   0  0  0  0  0  0  0  0  0  0  0  0
    2.7277  144.7528   54.2649 N   0  0  0  0  0  0  0  0  0  0  0  0
    3.3618  145.6523   54.9947 C   0  0  0  0  0  0  0  0  0  0  0  0
    3.4789  146.8816   54.4268 N   0  0  0  0  0  0  0  0  0  0  0  0
    3.2667  146.9345   53.4443 H   0  0  0  0  0  0  0  0  0  0  0  0
    3.6038  148.0396   55.1517 C   0  0  0  0  0  0  0  0  0  0  0  0
    3.7120  147.9854   56.3646 O   0  0  0  0  0  0  0  0  0  0  0  0
    3.6256  149.4187   54.5023 C   0  0  0  0  0  0  0  0  0  0  0  0
    3.8417  150.1466   55.2840 H   0  0  0  0  0  0  0  0  0  0  0  0
    4.4256  149.4722   53.7627 H   0  0  0  0  0  0  0  0  0  0  0  0
    2.3053  149.7727   53.8782 C   0  0  0  0  0  0  0  0  0  0  0  0
    1.4886  150.6914   54.5487 C   0  0  0  0  0  0  0  0  0  0  0  0
    1.8217  151.1352   55.4829 H   0  0  0  0  0  0  0  0  0  0  0  0
    0.2454  151.0506   54.0331 C   0  0  0  0  0  0  0  0  0  0  0  0
   -0.4985  151.9811   54.7049 O   0  0  0  0  0  0  0  0  0  0  0  0
   -1.5080  151.3921   55.5270 C   0  0  0  0  0  0  0  0  0  0  0  0
   -2.2748  150.9069   54.9160 H   0  0  0  0  0  0  0  0  0  0  0  0
   -1.0704  150.6478   56.1954 H   0  0  0  0  0  0  0  0  0  0  0  0
   -1.9849  152.1621   56.1391 H   0  0  0  0  0  0  0  0  0  0  0  0
   -0.2016  150.4575   52.8412 C   0  0  0  0  0  0  0  0  0  0  0  0
   -1.9314  150.8763   52.1378 Br  0  0  0  0  0  0  0  0  0  0  0  0
    0.6112  149.5264   52.1771 C   0  0  0  0  0  0  0  0  0  0  0  0
    0.2653  149.0707   51.2566 H   0  0  0  0  0  0  0  0  0  0  0  0
    1.8743  149.1755   52.6783 C   0  0  0  0  0  0  0  0  0  0  0  0
    2.6994  148.2802   52.0310 O   0  0  0  0  0  0  0  0  0  0  0  0
    2.0477  147.2843   51.2293 C   0  0  0  0  0  0  0  0  0  0  0  0
    2.7929  146.5988   50.8126 H   0  0  0  0  0  0  0  0  0  0  0  0
    1.4981  147.7397   50.3983 H   0  0  0  0  0  0  0  0  0  0  0  0
    1.3511  146.7053   51.8458 H   0  0  0  0  0  0  0  0  0  0  0  0
    3.8659  145.3887   56.2392 C   0  0  0  0  0  0  0  0  0  0  0  0
    4.3725  146.1393   56.8241 H   0  0  0  0  0  0  0  0  0  0  0  0
    3.7432  144.1267   56.7171 C   0  0  0  0  0  0  0  0  0  0  0  0
    4.2149  143.8794   57.9551 N   0  0  0  0  0  0  0  0  0  0  0  0
    4.1186  142.9542   58.3605 H   0  0  0  0  0  0  0  0  0  0  0  0
    4.4639  144.6671   58.5432 H   0  0  0  0  0  0  0  0  0  0  0  0
    3.1648  143.1498   55.9754 C   0  0  0  0  0  0  0  0  0  0  0  0
    3.1405  141.7839   56.3883 C   0  0  0  0  0  0  0  0  0  0  0  0
    3.1033  140.6421   56.5994 N   0  0  0  0  0  0  0  0  0  0  0  0
    3.0935  141.4120   51.3600 C   0  0  0  0  0  0  0  0  0  0  0  0
    2.5711  140.5031   51.6127 H   0  0  0  0  0  0  0  0  0  0  0  0
  1  2  1  0
  2  3  2  0
  3  4  1  0
  4  5  1  0
  4  6  2  0
  6  7  1  0
  6  8  1  0
  8  9  1  0
  9 10  1  0
  9 11  1  0
  9 12  1  0
 12 13  1  0
 12 14  1  0
 14 15  2  0
 15 16  1  0
 16 17  1  0
 17 18  1  0
 17 19  1  0
 19 20  2  0
 19 21  1  0
 21 22  1  0
 21 23  1  0
 21 24  1  0
 24 25  2  0
 25 26  1  0
 25 27  1  0
 27 28  1  0
 28 29  1  0
 29 30  1  0
 29 31  1  0
 29 32  1  0
 27 33  2  0
 33 34  1  0
 33 35  1  0
 35 36  1  0
 35 37  2  0
 37 38  1  0
 38 39  1  0
 39 40  1  0
 39 41  1  0
 39 42  1  0
 16 43  2  0
 43 44  1  0
 43 45  1  0
 45 46  1  0
 46 47  1  0
 46 48  1  0
 45 49  2  0
 49 50  1  0
 50 51  3  0
  8 52  2  0
 52 53  1  0
 52  2  1  0
 49 14  1  0
 37 24  1  0
M  END
>  <score>  (281) 
7.2029

$$$$

     RDKit          3D

 51 52  0  0  0  0  0  0  0  0999 V2000
    0.2775  149.1669   51.2461 H   0  0  0  0  0  0  0  0  0  0  0  0
    0.6247  149.5768   52.1890 C   0  0  0  0  0  0  0  0  0  0  0  0
   -0.1806  150.4789   52.9084 C   0  0  0  0  0  0  0  0  0  0  0  0
   -1.9138  150.9629   52.2505 Br  0  0  0  0  0  0  0  0  0  0  0  0
    0.3046  151.0463   54.0991 C   0  0  0  0  0  0  0  0  0  0  0  0
   -0.4003  151.9827   54.8030 O   0  0  0  0  0  0  0  0  0  0  0  0
   -1.4310  151.4037   55.6010 C   0  0  0  0  0  0  0  0  0  0  0  0
   -1.0077  150.6868   56.3075 H   0  0  0  0  0  0  0  0  0  0  0  0
   -2.1612  150.8873   54.9712 H   0  0  0  0  0  0  0  0  0  0  0  0
   -1.9403  152.1895   56.1656 H   0  0  0  0  0  0  0  0  0  0  0  0
    1.5573  150.6736   54.5731 C   0  0  0  0  0  0  0  0  0  0  0  0
    1.9251  151.1201   55.4914 H   0  0  0  0  0  0  0  0  0  0  0  0
    2.3504  149.7677   53.8696 C   0  0  0  0  0  0  0  0  0  0  0  0
    3.6986  149.4542   54.4360 C   0  0  0  0  0  0  0  0  0  0  0  0
    3.9434  150.2728   55.0985 H   0  0  0  0  0  0  0  0  0  0  0  0
    4.4333  149.4132   53.6283 H   0  0  0  0  0  0  0  0  0  0  0  0
    3.7292  148.1713   55.2495 C   0  0  0  0  0  0  0  0  0  0  0  0
    3.8189  148.2091   56.4628 O   0  0  0  0  0  0  0  0  0  0  0  0
    3.7002  146.9820   54.5913 N   0  0  0  0  0  0  0  0  0  0  0  0
    3.4339  146.9889   53.6208 H   0  0  0  0  0  0  0  0  0  0  0  0
    3.5750  145.7798   55.1719 C   0  0  0  0  0  0  0  0  0  0  0  0
    3.0749  144.9682   54.2760 N   0  0  0  0  0  0  0  0  0  0  0  0
    2.8859  143.6735   54.5686 C   0  0  0  0  0  0  0  0  0  0  0  0
    2.2356  142.8830   53.4768 C   0  0  0  0  0  0  0  0  0  0  0  0
    2.5640  141.6258   53.2403 N   0  0  0  0  0  0  0  0  0  0  0  0
    2.1459  141.1033   52.0384 N   0  0  0  0  0  0  0  0  0  0  0  0
    2.1295  140.0950   51.9782 H   0  0  0  0  0  0  0  0  0  0  0  0
    2.4576  141.6858   50.8056 C   0  0  0  0  0  0  0  0  0  0  0  0
    1.2857  142.1552   49.7401 S   0  0  0  0  0  0  0  0  0  0  0  0
    3.7401  142.0026   50.4418 N   0  0  0  0  0  0  0  0  0  0  0  0
    3.8214  142.5341   49.5764 H   0  0  0  0  0  0  0  0  0  0  0  0
    4.4060  142.1620   51.1860 H   0  0  0  0  0  0  0  0  0  0  0  0
    1.2440  143.6086   52.5704 C   0  0  0  0  0  0  0  0  0  0  0  0
    0.7718  144.3963   53.1622 H   0  0  0  0  0  0  0  0  0  0  0  0
    1.7478  144.0592   51.7090 H   0  0  0  0  0  0  0  0  0  0  0  0
    0.4715  142.9342   52.1835 H   0  0  0  0  0  0  0  0  0  0  0  0
    3.2760  143.1779   55.8246 C   0  0  0  0  0  0  0  0  0  0  0  0
    3.1542  141.7972   56.1663 C   0  0  0  0  0  0  0  0  0  0  0  0
    3.0755  140.6708   56.4497 N   0  0  0  0  0  0  0  0  0  0  0  0
    3.7611  144.0850   56.7494 C   0  0  0  0  0  0  0  0  0  0  0  0
    4.1150  143.7297   58.0027 N   0  0  0  0  0  0  0  0  0  0  0  0
    4.4604  144.4493   58.6315 H   0  0  0  0  0  0  0  0  0  0  0  0
    4.0813  142.7542   58.2874 H   0  0  0  0  0  0  0  0  0  0  0  0
    3.8961  145.4050   56.4441 C   0  0  0  0  0  0  0  0  0  0  0  0
    4.2732  146.0959   57.1789 H   0  0  0  0  0  0  0  0  0  0  0  0
    1.9024  149.2223   52.6579 C   0  0  0  0  0  0  0  0  0  0  0  0
    2.7523  148.3916   51.9671 O   0  0  0  0  0  0  0  0  0  0  0  0
    2.1354  147.3058   51.2731 C   0  0  0  0  0  0  0  0  0  0  0  0
    1.4412  146.7781   51.9355 H   0  0  0  0  0  0  0  0  0  0  0  0
    2.9066  146.6007   50.9460 H   0  0  0  0  0  0  0  0  0  0  0  0
    1.5935  147.6669   50.3940 H   0  0  0  0  0  0  0  0  0  0  0  0
  1  2  1  0
  2  3  2  0
  3  4  1  0
  3  5  1  0
  5  6  1  0
  6  7  1  0
  7  8  1  0
  7  9  1  0
  7 10  1  0
  5 11  2  0
 11 12  1  0
 11 13  1  0
 13 14  1  0
 14 15  1  0
 14 16  1  0
 14 17  1  0
 17 18  2  0
 17 19  1  0
 19 20  1  0
 19 21  1  0
 21 22  2  0
 22 23  1  0
 23 24  1  0
 24 25  2  3
 25 26  1  0
 26 27  1  0
 26 28  1  0
 28 29  2  0
 28 30  1  0
 30 31  1  0
 30 32  1  0
 24 33  1  0
 33 34  1  0
 33 35  1  0
 33 36  1  0
 23 37  2  0
 37 38  1  0
 38 39  3  0
 37 40  1  0
 40 41  1  0
 41 42  1  0
 41 43  1  0
 40 44  2  0
 44 45  1  0
 13 46  2  0
 46 47  1  0
 47 48  1  0
 48 49  1  0
 48 50  1  0
 48 51  1  0
 46  2  1  0
 44 21  1  0
M  END
>  <score>  (282) 
7.20299

$$$$

     RDKit          3D

 55 57  0  0  0  0  0  0  0  0999 V2000
    0.1762  141.1540   52.2906 H   0  0  0  0  0  0  0  0  0  0  0  0
    1.0682  141.7476   52.1286 C   0  0  0  0  0  0  0  0  0  0  0  0
    1.7617  142.3000   53.2077 C   0  0  0  0  0  0  0  0  0  0  0  0
    1.3996  142.1625   54.2248 H   0  0  0  0  0  0  0  0  0  0  0  0
    2.8987  143.0781   52.9923 C   0  0  0  0  0  0  0  0  0  0  0  0
    3.4366  143.8143   54.1386 C   0  0  0  0  0  0  0  0  0  0  0  0
    3.6491  145.1047   53.8997 N   0  0  0  0  0  0  0  0  0  0  0  0
    3.8472  145.9085   54.9124 C   0  0  0  0  0  0  0  0  0  0  0  0
    3.8436  147.1685   54.4752 N   0  0  0  0  0  0  0  0  0  0  0  0
    3.7271  147.2355   53.4799 H   0  0  0  0  0  0  0  0  0  0  0  0
    3.7058  148.2837   55.2444 C   0  0  0  0  0  0  0  0  0  0  0  0
    3.7711  148.2143   56.4602 O   0  0  0  0  0  0  0  0  0  0  0  0
    3.6276  149.6264   54.5377 C   0  0  0  0  0  0  0  0  0  0  0  0
    4.4288  149.6768   53.7937 H   0  0  0  0  0  0  0  0  0  0  0  0
    3.7693  150.4191   55.2745 H   0  0  0  0  0  0  0  0  0  0  0  0
    2.2925  149.8592   53.8870 C   0  0  0  0  0  0  0  0  0  0  0  0
    1.4443  150.7663   54.5369 C   0  0  0  0  0  0  0  0  0  0  0  0
    1.7608  151.2327   55.4672 H   0  0  0  0  0  0  0  0  0  0  0  0
    0.1949  151.0887   54.0133 C   0  0  0  0  0  0  0  0  0  0  0  0
   -0.5844  152.0041   54.6705 O   0  0  0  0  0  0  0  0  0  0  0  0
   -1.5517  151.3924   55.5288 C   0  0  0  0  0  0  0  0  0  0  0  0
   -1.0825  150.6547   56.1867 H   0  0  0  0  0  0  0  0  0  0  0  0
   -2.0199  152.1559   56.1554 H   0  0  0  0  0  0  0  0  0  0  0  0
   -2.3307  150.8981   54.9393 H   0  0  0  0  0  0  0  0  0  0  0  0
   -0.2251  150.4634   52.8277 C   0  0  0  0  0  0  0  0  0  0  0  0
   -1.9522  150.8352   52.0930 Br  0  0  0  0  0  0  0  0  0  0  0  0
    0.6102  149.5319   52.1880 C   0  0  0  0  0  0  0  0  0  0  0  0
    0.2729  149.0388   51.2832 H   0  0  0  0  0  0  0  0  0  0  0  0
    1.8790  149.2114   52.6989 C   0  0  0  0  0  0  0  0  0  0  0  0
    2.7006  148.2874   52.0812 O   0  0  0  0  0  0  0  0  0  0  0  0
    2.0554  147.3053   51.2454 C   0  0  0  0  0  0  0  0  0  0  0  0
    2.7970  146.6066   50.8414 H   0  0  0  0  0  0  0  0  0  0  0  0
    1.5353  147.7709   50.3997 H   0  0  0  0  0  0  0  0  0  0  0  0
    1.3307  146.7305   51.8328 H   0  0  0  0  0  0  0  0  0  0  0  0
    3.9240  145.5149   56.2106 C   0  0  0  0  0  0  0  0  0  0  0  0
    4.0738  146.2204   57.0118 H   0  0  0  0  0  0  0  0  0  0  0  0
    3.7684  144.1864   56.4535 C   0  0  0  0  0  0  0  0  0  0  0  0
    3.8466  143.8088   57.7486 N   0  0  0  0  0  0  0  0  0  0  0  0
    4.2162  144.5030   58.3891 H   0  0  0  0  0  0  0  0  0  0  0  0
    3.9917  142.8243   57.9605 H   0  0  0  0  0  0  0  0  0  0  0  0
    3.4932  143.2997   55.4383 C   0  0  0  0  0  0  0  0  0  0  0  0
    3.2454  141.9264   55.7325 C   0  0  0  0  0  0  0  0  0  0  0  0
    3.0482  140.8019   55.9612 N   0  0  0  0  0  0  0  0  0  0  0  0
    3.3979  143.2243   51.6834 C   0  0  0  0  0  0  0  0  0  0  0  0
    4.2906  143.8351   51.5365 H   0  0  0  0  0  0  0  0  0  0  0  0
    2.7381  142.5924   50.6087 C   0  0  0  0  0  0  0  0  0  0  0  0
    3.5190  142.4485   48.9737 S   0  0  0  0  0  0  0  0  0  0  0  0
    4.2574  143.6590   48.5813 O   0  0  0  0  0  0  0  0  0  0  0  0
    2.5711  142.0016   47.9384 O   0  0  0  0  0  0  0  0  0  0  0  0
    4.6798  141.1084   49.2689 C   0  0  0  0  0  0  0  0  0  0  0  0
    5.3743  141.4141   50.0587 H   0  0  0  0  0  0  0  0  0  0  0  0
    4.1382  140.2056   49.5775 H   0  0  0  0  0  0  0  0  0  0  0  0
    5.2152  140.9224   48.3357 H   0  0  0  0  0  0  0  0  0  0  0  0
    1.5246  141.9260   50.8291 C   0  0  0  0  0  0  0  0  0  0  0  0
    0.9436  141.4874   50.0190 H   0  0  0  0  0  0  0  0  0  0  0  0
  1  2  1  0
  2  3  2  0
  3  4  1  0
  3  5  1  0
  5  6  1  0
  6  7  2  0
  7  8  1  0
  8  9  1  0
  9 10  1  0
  9 11  1  0
 11 12  2  0
 11 13  1  0
 13 14  1  0
 13 15  1  0
 13 16  1  0
 16 17  2  0
 17 18  1  0
 17 19  1  0
 19 20  1  0
 20 21  1  0
 21 22  1  0
 21 23  1  0
 21 24  1  0
 19 25  2  0
 25 26  1  0
 25 27  1  0
 27 28  1  0
 27 29  2  0
 29 30  1  0
 30 31  1  0
 31 32  1  0
 31 33  1  0
 31 34  1  0
  8 35  2  0
 35 36  1  0
 35 37  1  0
 37 38  1  0
 38 39  1  0
 38 40  1  0
 37 41  2  0
 41 42  1  0
 42 43  3  0
  5 44  2  0
 44 45  1  0
 44 46  1  0
 46 47  1  0
 47 48  2  0
 47 49  2  0
 47 50  1  0
 50 51  1  0
 50 52  1  0
 50 53  1  0
 46 54  2  0
 54 55  1  0
 54  2  1  0
 41  6  1  0
 29 16  1  0
M  END
>  <score>  (283) 
7.2034

$$$$

     RDKit          3D

 53 55  0  0  0  0  0  0  0  0999 V2000
    5.7991  142.2704   49.9692 H   0  0  0  0  0  0  0  0  0  0  0  0
    4.8475  142.3870   50.4726 C   0  0  0  0  0  0  0  0  0  0  0  0
    4.0397  141.3210   50.6334 N   0  0  0  0  0  0  0  0  0  0  0  0
    2.9081  141.4978   51.3264 C   0  0  0  0  0  0  0  0  0  0  0  0
    2.3383  140.6059   51.5650 H   0  0  0  0  0  0  0  0  0  0  0  0
    2.5113  142.7458   51.8204 C   0  0  0  0  0  0  0  0  0  0  0  0
    1.3518  142.8418   52.7306 C   0  0  0  0  0  0  0  0  0  0  0  0
    0.5810  142.0875   52.5067 H   0  0  0  0  0  0  0  0  0  0  0  0
    0.8877  143.8319   52.7181 H   0  0  0  0  0  0  0  0  0  0  0  0
    2.0088  142.5789   53.9980 N   0  0  0  0  0  0  0  0  0  0  0  0
    2.4166  141.6660   54.1044 H   0  0  0  0  0  0  0  0  0  0  0  0
    2.6998  143.5243   54.7056 C   0  0  0  0  0  0  0  0  0  0  0  0
    2.8076  144.7504   54.2123 N   0  0  0  0  0  0  0  0  0  0  0  0
    3.3966  145.6447   54.9721 C   0  0  0  0  0  0  0  0  0  0  0  0
    3.5163  146.8750   54.4053 N   0  0  0  0  0  0  0  0  0  0  0  0
    3.2934  146.9346   53.4245 H   0  0  0  0  0  0  0  0  0  0  0  0
    3.6196  148.0246   55.1413 C   0  0  0  0  0  0  0  0  0  0  0  0
    3.7315  147.9586   56.3533 O   0  0  0  0  0  0  0  0  0  0  0  0
    3.6341  149.4109   54.5048 C   0  0  0  0  0  0  0  0  0  0  0  0
    4.4376  149.4769   53.7684 H   0  0  0  0  0  0  0  0  0  0  0  0
    3.8365  150.1373   55.2924 H   0  0  0  0  0  0  0  0  0  0  0  0
    2.3120  149.7678   53.8801 C   0  0  0  0  0  0  0  0  0  0  0  0
    1.4947  150.6857   54.5538 C   0  0  0  0  0  0  0  0  0  0  0  0
    1.8209  151.1220   55.4940 H   0  0  0  0  0  0  0  0  0  0  0  0
    0.2535  151.0572   54.0357 C   0  0  0  0  0  0  0  0  0  0  0  0
   -0.4937  151.9878   54.7068 O   0  0  0  0  0  0  0  0  0  0  0  0
   -1.5018  151.3936   55.5291 C   0  0  0  0  0  0  0  0  0  0  0  0
   -1.9837  152.1606   56.1412 H   0  0  0  0  0  0  0  0  0  0  0  0
   -2.2668  150.9074   54.9165 H   0  0  0  0  0  0  0  0  0  0  0  0
   -1.0624  150.6497   56.1979 H   0  0  0  0  0  0  0  0  0  0  0  0
   -0.1976  150.4648   52.8445 C   0  0  0  0  0  0  0  0  0  0  0  0
   -1.9320  150.8779   52.1448 Br  0  0  0  0  0  0  0  0  0  0  0  0
    0.6121  149.5358   52.1753 C   0  0  0  0  0  0  0  0  0  0  0  0
    0.2546  149.0792   51.2590 H   0  0  0  0  0  0  0  0  0  0  0  0
    1.8777  149.1855   52.6732 C   0  0  0  0  0  0  0  0  0  0  0  0
    2.7007  148.2931   52.0221 O   0  0  0  0  0  0  0  0  0  0  0  0
    2.0517  147.2863   51.2298 C   0  0  0  0  0  0  0  0  0  0  0  0
    1.3597  146.7101   51.8526 H   0  0  0  0  0  0  0  0  0  0  0  0
    1.4955  147.7278   50.3958 H   0  0  0  0  0  0  0  0  0  0  0  0
    2.7985  146.5982   50.8184 H   0  0  0  0  0  0  0  0  0  0  0  0
    3.8448  145.3786   56.2340 C   0  0  0  0  0  0  0  0  0  0  0  0
    4.3189  146.1331   56.8336 H   0  0  0  0  0  0  0  0  0  0  0  0
    3.7018  144.1154   56.7021 C   0  0  0  0  0  0  0  0  0  0  0  0
    4.0413  143.8800   57.9803 N   0  0  0  0  0  0  0  0  0  0  0  0
    4.1614  142.9155   58.2746 H   0  0  0  0  0  0  0  0  0  0  0  0
    4.4863  144.6296   58.5014 H   0  0  0  0  0  0  0  0  0  0  0  0
    3.1997  143.1313   55.9165 C   0  0  0  0  0  0  0  0  0  0  0  0
    3.1585  141.7636   56.3197 C   0  0  0  0  0  0  0  0  0  0  0  0
    3.1168  140.6206   56.5292 N   0  0  0  0  0  0  0  0  0  0  0  0
    3.3164  143.8620   51.6029 C   0  0  0  0  0  0  0  0  0  0  0  0
    3.0577  144.8476   51.9877 H   0  0  0  0  0  0  0  0  0  0  0  0
    4.5152  143.6627   50.9505 C   0  0  0  0  0  0  0  0  0  0  0  0
    5.1860  144.5094   50.8905 H   0  0  0  0  0  0  0  0  0  0  0  0
  1  2  1  0
  2  3  2  0
  3  4  1  0
  4  5  1  0
  4  6  2  0
  6  7  1  0
  7  8  1  0
  7  9  1  0
  7 10  1  0
 10 11  1  0
 10 12  1  0
 12 13  2  0
 13 14  1  0
 14 15  1  0
 15 16  1  0
 15 17  1  0
 17 18  2  0
 17 19  1  0
 19 20  1  0
 19 21  1  0
 19 22  1  0
 22 23  2  0
 23 24  1  0
 23 25  1  0
 25 26  1  0
 26 27  1  0
 27 28  1  0
 27 29  1  0
 27 30  1  0
 25 31  2  0
 31 32  1  0
 31 33  1  0
 33 34  1  0
 33 35  2  0
 35 36  1  0
 36 37  1  0
 37 38  1  0
 37 39  1  0
 37 40  1  0
 14 41  2  0
 41 42  1  0
 41 43  1  0
 43 44  1  0
 44 45  1  0
 44 46  1  0
 43 47  2  0
 47 48  1  0
 48 49  3  0
  6 50  1  0
 50 51  1  0
 50 52  2  0
 52 53  1  0
 52  2  1  0
 47 12  1  0
 35 22  1  0
M  END
>  <score>  (284) 
7.20461

$$$$

     RDKit          3D

 48 50  0  0  0  0  0  0  0  0999 V2000
    2.9133  139.9416   52.4708 H   0  0  0  0  0  0  0  0  0  0  0  0
    2.4100  140.8819   52.4895 C   0  0  0  0  0  0  0  0  0  0  0  0
    2.7789  141.6527   53.5040 N   0  0  0  0  0  0  0  0  0  0  0  0
    2.3058  142.9063   53.5955 C   0  0  0  0  0  0  0  0  0  0  0  0
    2.8516  143.7752   54.6654 C   0  0  0  0  0  0  0  0  0  0  0  0
    3.0202  145.0691   54.3773 N   0  0  0  0  0  0  0  0  0  0  0  0
    3.5674  145.8539   55.2623 C   0  0  0  0  0  0  0  0  0  0  0  0
    3.7466  147.0137   54.6340 N   0  0  0  0  0  0  0  0  0  0  0  0
    3.4608  146.9743   53.6683 H   0  0  0  0  0  0  0  0  0  0  0  0
    3.7595  148.2168   55.2505 C   0  0  0  0  0  0  0  0  0  0  0  0
    3.8257  148.2766   56.4632 O   0  0  0  0  0  0  0  0  0  0  0  0
    3.7031  149.4763   54.4135 C   0  0  0  0  0  0  0  0  0  0  0  0
    4.4196  149.4085   53.5989 H   0  0  0  0  0  0  0  0  0  0  0  0
    3.9737  150.3076   55.0405 H   0  0  0  0  0  0  0  0  0  0  0  0
    2.3499  149.7796   53.8673 C   0  0  0  0  0  0  0  0  0  0  0  0
    1.5686  150.6860   54.5770 C   0  0  0  0  0  0  0  0  0  0  0  0
    1.9544  151.1385   55.4883 H   0  0  0  0  0  0  0  0  0  0  0  0
    0.3118  151.0401   54.1081 C   0  0  0  0  0  0  0  0  0  0  0  0
   -0.3837  151.9740   54.8209 O   0  0  0  0  0  0  0  0  0  0  0  0
   -1.4222  151.4067   55.6181 C   0  0  0  0  0  0  0  0  0  0  0  0
   -1.9391  152.1939   56.1737 H   0  0  0  0  0  0  0  0  0  0  0  0
   -2.1473  150.8845   54.9922 H   0  0  0  0  0  0  0  0  0  0  0  0
   -1.0109  150.6939   56.3320 H   0  0  0  0  0  0  0  0  0  0  0  0
   -0.1727  150.4830   52.9101 C   0  0  0  0  0  0  0  0  0  0  0  0
   -1.9076  150.9786   52.2655 Br  0  0  0  0  0  0  0  0  0  0  0  0
    0.6294  149.5811   52.1863 C   0  0  0  0  0  0  0  0  0  0  0  0
    0.2891  149.1807   51.2374 H   0  0  0  0  0  0  0  0  0  0  0  0
    1.9020  149.2256   52.6607 C   0  0  0  0  0  0  0  0  0  0  0  0
    2.7609  148.4081   51.9654 O   0  0  0  0  0  0  0  0  0  0  0  0
    2.1525  147.3109   51.2800 C   0  0  0  0  0  0  0  0  0  0  0  0
    1.6135  147.6536   50.3937 H   0  0  0  0  0  0  0  0  0  0  0  0
    2.9201  146.5984   50.9646 H   0  0  0  0  0  0  0  0  0  0  0  0
    1.4552  146.7890   51.9406 H   0  0  0  0  0  0  0  0  0  0  0  0
    3.9196  145.4769   56.5252 C   0  0  0  0  0  0  0  0  0  0  0  0
    4.3327  146.1554   57.2521 H   0  0  0  0  0  0  0  0  0  0  0  0
    3.7631  144.1580   56.8201 C   0  0  0  0  0  0  0  0  0  0  0  0
    4.1601  143.7572   58.0457 N   0  0  0  0  0  0  0  0  0  0  0  0
    4.0829  142.7813   58.3070 H   0  0  0  0  0  0  0  0  0  0  0  0
    4.5025  144.4432   58.7110 H   0  0  0  0  0  0  0  0  0  0  0  0
    3.2533  143.2681   55.9012 C   0  0  0  0  0  0  0  0  0  0  0  0
    3.1527  141.8770   56.2107 C   0  0  0  0  0  0  0  0  0  0  0  0
    3.0763  140.7451   56.4690 N   0  0  0  0  0  0  0  0  0  0  0  0
    1.3732  143.3850   52.6566 C   0  0  0  0  0  0  0  0  0  0  0  0
    1.0041  144.4013   52.7130 H   0  0  0  0  0  0  0  0  0  0  0  0
    0.9223  142.5528   51.6375 C   0  0  0  0  0  0  0  0  0  0  0  0
    0.1964  142.9028   50.9120 H   0  0  0  0  0  0  0  0  0  0  0  0
    1.4661  141.2786   51.5434 C   0  0  0  0  0  0  0  0  0  0  0  0
    1.1784  140.6176   50.7370 H   0  0  0  0  0  0  0  0  0  0  0  0
  1  2  1  0
  2  3  2  0
  3  4  1  0
  4  5  1  0
  5  6  2  0
  6  7  1  0
  7  8  1  0
  8  9  1  0
  8 10  1  0
 10 11  2  0
 10 12  1  0
 12 13  1  0
 12 14  1  0
 12 15  1  0
 15 16  2  0
 16 17  1  0
 16 18  1  0
 18 19  1  0
 19 20  1  0
 20 21  1  0
 20 22  1  0
 20 23  1  0
 18 24  2  0
 24 25  1  0
 24 26  1  0
 26 27  1  0
 26 28  2  0
 28 29  1  0
 29 30  1  0
 30 31  1  0
 30 32  1  0
 30 33  1  0
  7 34  2  0
 34 35  1  0
 34 36  1  0
 36 37  1  0
 37 38  1  0
 37 39  1  0
 36 40  2  0
 40 41  1  0
 41 42  3  0
  4 43  2  0
 43 44  1  0
 43 45  1  0
 45 46  1  0
 45 47  2  0
 47 48  1  0
 47  2  1  0
 40  5  1  0
 28 15  1  0
M  END
>  <score>  (285) 
7.20608

$$$$

     RDKit          3D

 52 55  0  0  0  0  0  0  0  0999 V2000
    0.0675  141.3058   52.2777 H   0  0  0  0  0  0  0  0  0  0  0  0
    1.0345  141.7884   52.1712 C   0  0  0  0  0  0  0  0  0  0  0  0
    1.7511  142.3106   53.2608 C   0  0  0  0  0  0  0  0  0  0  0  0
    1.3639  142.2570   54.2690 H   0  0  0  0  0  0  0  0  0  0  0  0
    2.9484  143.0163   53.0831 C   0  0  0  0  0  0  0  0  0  0  0  0
    3.4711  143.7861   54.2391 C   0  0  0  0  0  0  0  0  0  0  0  0
    3.6802  145.0765   53.9951 N   0  0  0  0  0  0  0  0  0  0  0  0
    3.8709  145.8929   54.9993 C   0  0  0  0  0  0  0  0  0  0  0  0
    3.8318  147.1409   54.5173 N   0  0  0  0  0  0  0  0  0  0  0  0
    3.6055  147.1880   53.5355 H   0  0  0  0  0  0  0  0  0  0  0  0
    3.7030  148.2676   55.2665 C   0  0  0  0  0  0  0  0  0  0  0  0
    3.7907  148.2257   56.4809 O   0  0  0  0  0  0  0  0  0  0  0  0
    3.6337  149.5928   54.5304 C   0  0  0  0  0  0  0  0  0  0  0  0
    3.8216  150.4193   55.2194 H   0  0  0  0  0  0  0  0  0  0  0  0
    4.4178  149.6007   53.7760 H   0  0  0  0  0  0  0  0  0  0  0  0
    2.2974  149.8260   53.8844 C   0  0  0  0  0  0  0  0  0  0  0  0
    1.4645  150.7205   54.5501 C   0  0  0  0  0  0  0  0  0  0  0  0
    1.7888  151.1583   55.4898 H   0  0  0  0  0  0  0  0  0  0  0  0
    0.2288  151.0731   54.0258 C   0  0  0  0  0  0  0  0  0  0  0  0
   -0.5157  152.0004   54.6979 O   0  0  0  0  0  0  0  0  0  0  0  0
   -1.5028  151.3991   55.5357 C   0  0  0  0  0  0  0  0  0  0  0  0
   -1.0423  150.6607   56.1978 H   0  0  0  0  0  0  0  0  0  0  0  0
   -2.2625  150.9000   54.9281 H   0  0  0  0  0  0  0  0  0  0  0  0
   -1.9894  152.1659   56.1471 H   0  0  0  0  0  0  0  0  0  0  0  0
   -0.2219  150.4648   52.8446 C   0  0  0  0  0  0  0  0  0  0  0  0
   -1.9580  150.8738   52.1536 Br  0  0  0  0  0  0  0  0  0  0  0  0
    0.5975  149.5417   52.1785 C   0  0  0  0  0  0  0  0  0  0  0  0
    0.2365  149.0726   51.2681 H   0  0  0  0  0  0  0  0  0  0  0  0
    1.8764  149.2222   52.6759 C   0  0  0  0  0  0  0  0  0  0  0  0
    2.7130  148.3429   52.0238 O   0  0  0  0  0  0  0  0  0  0  0  0
    2.0724  147.3120   51.2525 C   0  0  0  0  0  0  0  0  0  0  0  0
    1.3625  146.7559   51.8716 H   0  0  0  0  0  0  0  0  0  0  0  0
    2.8220  146.6067   50.8797 H   0  0  0  0  0  0  0  0  0  0  0  0
    1.5330  147.7279   50.3959 H   0  0  0  0  0  0  0  0  0  0  0  0
    3.9448  145.5205   56.3087 C   0  0  0  0  0  0  0  0  0  0  0  0
    4.1023  146.2478   57.0928 H   0  0  0  0  0  0  0  0  0  0  0  0
    3.7790  144.1956   56.5609 C   0  0  0  0  0  0  0  0  0  0  0  0
    3.8671  143.8163   57.8506 N   0  0  0  0  0  0  0  0  0  0  0  0
    4.2995  144.4902   58.4842 H   0  0  0  0  0  0  0  0  0  0  0  0
    4.0117  142.8225   58.0037 H   0  0  0  0  0  0  0  0  0  0  0  0
    3.5088  143.2950   55.5482 C   0  0  0  0  0  0  0  0  0  0  0  0
    3.2352  141.9294   55.8395 C   0  0  0  0  0  0  0  0  0  0  0  0
    3.0138  140.8092   56.0732 N   0  0  0  0  0  0  0  0  0  0  0  0
    3.4760  143.1109   51.7681 C   0  0  0  0  0  0  0  0  0  0  0  0
    4.3896  143.6545   51.5412 H   0  0  0  0  0  0  0  0  0  0  0  0
    2.8139  142.4808   50.6995 C   0  0  0  0  0  0  0  0  0  0  0  0
    1.5921  141.8736   50.9030 C   0  0  0  0  0  0  0  0  0  0  0  0
    1.0674  141.3880   49.7513 O   0  0  0  0  0  0  0  0  0  0  0  0
    2.1773  141.4548   48.8462 C   0  0  0  0  0  0  0  0  0  0  0  0
    1.8599  141.7581   47.8478 H   0  0  0  0  0  0  0  0  0  0  0  0
    2.6016  140.4494   48.7708 H   0  0  0  0  0  0  0  0  0  0  0  0
    3.1490  142.3787   49.3847 O   0  0  0  0  0  0  0  0  0  0  0  0
  1  2  1  0
  2  3  2  0
  3  4  1  0
  3  5  1  0
  5  6  1  0
  6  7  2  0
  7  8  1  0
  8  9  1  0
  9 10  1  0
  9 11  1  0
 11 12  2  0
 11 13  1  0
 13 14  1  0
 13 15  1  0
 13 16  1  0
 16 17  2  0
 17 18  1  0
 17 19  1  0
 19 20  1  0
 20 21  1  0
 21 22  1  0
 21 23  1  0
 21 24  1  0
 19 25  2  0
 25 26  1  0
 25 27  1  0
 27 28  1  0
 27 29  2  0
 29 30  1  0
 30 31  1  0
 31 32  1  0
 31 33  1  0
 31 34  1  0
  8 35  2  0
 35 36  1  0
 35 37  1  0
 37 38  1  0
 38 39  1  0
 38 40  1  0
 37 41  2  0
 41 42  1  0
 42 43  3  0
  5 44  2  0
 44 45  1  0
 44 46  1  0
 46 47  2  0
 47 48  1  0
 48 49  1  0
 49 50  1  0
 49 51  1  0
 49 52  1  0
 47  2  1  0
 41  6  1  0
 52 46  1  0
 29 16  1  0
M  END
>  <score>  (286) 
7.20619

$$$$

     RDKit          3D

 52 54  0  0  0  0  0  0  0  0999 V2000
    6.5470  139.1683   51.6346 H   0  0  0  0  0  0  0  0  0  0  0  0
    5.7360  139.8725   51.8104 C   0  0  0  0  0  0  0  0  0  0  0  0
    4.7847  139.6017   52.7923 C   0  0  0  0  0  0  0  0  0  0  0  0
    4.8534  138.6827   53.3519 H   0  0  0  0  0  0  0  0  0  0  0  0
    3.7651  140.5055   53.0654 C   0  0  0  0  0  0  0  0  0  0  0  0
    3.0597  140.2372   53.8483 H   0  0  0  0  0  0  0  0  0  0  0  0
    3.6678  141.7176   52.3622 C   0  0  0  0  0  0  0  0  0  0  0  0
    2.3371  142.9183   52.7808 S   0  0  0  0  0  0  0  0  0  0  0  0
    2.0124  143.7461   51.5922 O   0  0  0  0  0  0  0  0  0  0  0  0
    1.1037  142.1851   53.1270 O   0  0  0  0  0  0  0  0  0  0  0  0
    2.9714  143.9299   54.2556 C   0  0  0  0  0  0  0  0  0  0  0  0
    3.2432  145.2475   54.0840 N   0  0  0  0  0  0  0  0  0  0  0  0
    3.6729  146.0203   55.0603 C   0  0  0  0  0  0  0  0  0  0  0  0
    3.8748  147.2524   54.5628 N   0  0  0  0  0  0  0  0  0  0  0  0
    3.6983  147.3144   53.5686 H   0  0  0  0  0  0  0  0  0  0  0  0
    3.7056  148.3659   55.3193 C   0  0  0  0  0  0  0  0  0  0  0  0
    3.6853  148.2876   56.5352 O   0  0  0  0  0  0  0  0  0  0  0  0
    3.5526  149.7042   54.6323 C   0  0  0  0  0  0  0  0  0  0  0  0
    3.6449  150.4653   55.4011 H   0  0  0  0  0  0  0  0  0  0  0  0
    4.3753  149.8509   53.9393 H   0  0  0  0  0  0  0  0  0  0  0  0
    2.2301  149.8844   53.9307 C   0  0  0  0  0  0  0  0  0  0  0  0
    1.3530  150.8129   54.5055 C   0  0  0  0  0  0  0  0  0  0  0  0
    1.6282  151.3340   55.4166 H   0  0  0  0  0  0  0  0  0  0  0  0
    0.1075  151.0824   53.9464 C   0  0  0  0  0  0  0  0  0  0  0  0
   -0.7146  151.9882   54.5590 O   0  0  0  0  0  0  0  0  0  0  0  0
   -1.6343  151.3714   55.4628 C   0  0  0  0  0  0  0  0  0  0  0  0
   -2.4452  150.8911   54.9051 H   0  0  0  0  0  0  0  0  0  0  0  0
   -2.0596  152.1314   56.1279 H   0  0  0  0  0  0  0  0  0  0  0  0
   -1.1296  150.6151   56.0723 H   0  0  0  0  0  0  0  0  0  0  0  0
   -0.2802  150.4071   52.7843 C   0  0  0  0  0  0  0  0  0  0  0  0
   -1.9915  150.7333   51.9866 Br  0  0  0  0  0  0  0  0  0  0  0  0
    0.5912  149.4773   52.2077 C   0  0  0  0  0  0  0  0  0  0  0  0
    0.2911  148.9494   51.3131 H   0  0  0  0  0  0  0  0  0  0  0  0
    1.8471  149.1850   52.7607 C   0  0  0  0  0  0  0  0  0  0  0  0
    2.6667  148.2362   52.1813 O   0  0  0  0  0  0  0  0  0  0  0  0
    2.0126  147.3276   51.2699 C   0  0  0  0  0  0  0  0  0  0  0  0
    1.5190  147.8745   50.4600 H   0  0  0  0  0  0  0  0  0  0  0  0
    1.2593  146.7327   51.8000 H   0  0  0  0  0  0  0  0  0  0  0  0
    2.7377  146.6446   50.8185 H   0  0  0  0  0  0  0  0  0  0  0  0
    3.8471  145.5937   56.3425 C   0  0  0  0  0  0  0  0  0  0  0  0
    4.2074  146.2503   57.1210 H   0  0  0  0  0  0  0  0  0  0  0  0
    3.6091  144.2734   56.5809 C   0  0  0  0  0  0  0  0  0  0  0  0
    3.8598  143.8995   57.8651 N   0  0  0  0  0  0  0  0  0  0  0  0
    4.0568  142.9155   58.0412 H   0  0  0  0  0  0  0  0  0  0  0  0
    4.3013  144.6082   58.4543 H   0  0  0  0  0  0  0  0  0  0  0  0
    3.1883  143.4072   55.5616 C   0  0  0  0  0  0  0  0  0  0  0  0
    3.0585  142.0190   55.8680 C   0  0  0  0  0  0  0  0  0  0  0  0
    3.0281  140.8808   56.1136 N   0  0  0  0  0  0  0  0  0  0  0  0
    4.6304  141.9883   51.3672 C   0  0  0  0  0  0  0  0  0  0  0  0
    4.6325  142.9153   50.7971 H   0  0  0  0  0  0  0  0  0  0  0  0
    5.6615  141.0766   51.1038 C   0  0  0  0  0  0  0  0  0  0  0  0
    6.4283  141.2994   50.3666 H   0  0  0  0  0  0  0  0  0  0  0  0
  1  2  1  0
  2  3  2  0
  3  4  1  0
  3  5  1  0
  5  6  1  0
  5  7  2  0
  7  8  1  0
  8  9  2  0
  8 10  2  0
  8 11  1  0
 11 12  2  0
 12 13  1  0
 13 14  1  0
 14 15  1  0
 14 16  1  0
 16 17  2  0
 16 18  1  0
 18 19  1  0
 18 20  1  0
 18 21  1  0
 21 22  2  0
 22 23  1  0
 22 24  1  0
 24 25  1  0
 25 26  1  0
 26 27  1  0
 26 28  1  0
 26 29  1  0
 24 30  2  0
 30 31  1  0
 30 32  1  0
 32 33  1  0
 32 34  2  0
 34 35  1  0
 35 36  1  0
 36 37  1  0
 36 38  1  0
 36 39  1  0
 13 40  2  0
 40 41  1  0
 40 42  1  0
 42 43  1  0
 43 44  1  0
 43 45  1  0
 42 46  2  0
 46 47  1  0
 47 48  3  0
  7 49  1  0
 49 50  1  0
 49 51  2  0
 51 52  1  0
 51  2  1  0
 46 11  1  0
 34 21  1  0
M  END
>  <score>  (287) 
7.20697

$$$$

     RDKit          3D

 52 54  0  0  0  0  0  0  0  0999 V2000
    0.1507  141.2670   52.1812 H   0  0  0  0  0  0  0  0  0  0  0  0
    1.1051  141.7642   52.0306 C   0  0  0  0  0  0  0  0  0  0  0  0
    1.7630  142.3160   53.1296 C   0  0  0  0  0  0  0  0  0  0  0  0
    1.3114  142.2317   54.1122 H   0  0  0  0  0  0  0  0  0  0  0  0
    2.9490  143.0330   52.9605 C   0  0  0  0  0  0  0  0  0  0  0  0
    3.4617  143.8087   54.0932 C   0  0  0  0  0  0  0  0  0  0  0  0
    3.6562  145.1063   53.8472 N   0  0  0  0  0  0  0  0  0  0  0  0
    3.8543  145.9142   54.8580 C   0  0  0  0  0  0  0  0  0  0  0  0
    3.8572  147.1922   54.4441 N   0  0  0  0  0  0  0  0  0  0  0  0
    3.7736  147.3047   53.4447 H   0  0  0  0  0  0  0  0  0  0  0  0
    3.7156  148.2897   55.2302 C   0  0  0  0  0  0  0  0  0  0  0  0
    3.7461  148.2083   56.4458 O   0  0  0  0  0  0  0  0  0  0  0  0
    3.6224  149.6386   54.5369 C   0  0  0  0  0  0  0  0  0  0  0  0
    4.4327  149.7195   53.8045 H   0  0  0  0  0  0  0  0  0  0  0  0
    3.7519  150.4051   55.2996 H   0  0  0  0  0  0  0  0  0  0  0  0
    2.2838  149.8750   53.8867 C   0  0  0  0  0  0  0  0  0  0  0  0
    1.4260  150.7858   54.5241 C   0  0  0  0  0  0  0  0  0  0  0  0
    1.7323  151.2650   55.4510 H   0  0  0  0  0  0  0  0  0  0  0  0
    0.1712  151.0887   53.9994 C   0  0  0  0  0  0  0  0  0  0  0  0
   -0.6170  152.0011   54.6505 O   0  0  0  0  0  0  0  0  0  0  0  0
   -1.5742  151.3916   55.5219 C   0  0  0  0  0  0  0  0  0  0  0  0
   -2.0361  152.1516   56.1596 H   0  0  0  0  0  0  0  0  0  0  0  0
   -2.3588  150.8971   54.9405 H   0  0  0  0  0  0  0  0  0  0  0  0
   -1.0949  150.6543   56.1712 H   0  0  0  0  0  0  0  0  0  0  0  0
   -0.2416  150.4569   52.8177 C   0  0  0  0  0  0  0  0  0  0  0  0
   -1.9627  150.8196   52.0614 Br  0  0  0  0  0  0  0  0  0  0  0  0
    0.6058  149.5277   52.1959 C   0  0  0  0  0  0  0  0  0  0  0  0
    0.2823  149.0333   51.2909 H   0  0  0  0  0  0  0  0  0  0  0  0
    1.8711  149.2094   52.7109 C   0  0  0  0  0  0  0  0  0  0  0  0
    2.6912  148.2738   52.1065 O   0  0  0  0  0  0  0  0  0  0  0  0
    2.0459  147.3086   51.2509 C   0  0  0  0  0  0  0  0  0  0  0  0
    1.5349  147.7906   50.4101 H   0  0  0  0  0  0  0  0  0  0  0  0
    2.7841  146.6144   50.8367 H   0  0  0  0  0  0  0  0  0  0  0  0
    1.3160  146.7253   51.8224 H   0  0  0  0  0  0  0  0  0  0  0  0
    3.9248  145.5056   56.1550 C   0  0  0  0  0  0  0  0  0  0  0  0
    4.0445  146.1990   56.9655 H   0  0  0  0  0  0  0  0  0  0  0  0
    3.7721  144.1790   56.4065 C   0  0  0  0  0  0  0  0  0  0  0  0
    3.8202  143.8095   57.7054 N   0  0  0  0  0  0  0  0  0  0  0  0
    4.1703  144.5098   58.3499 H   0  0  0  0  0  0  0  0  0  0  0  0
    3.9928  142.8283   57.9223 H   0  0  0  0  0  0  0  0  0  0  0  0
    3.5175  143.3022   55.3905 C   0  0  0  0  0  0  0  0  0  0  0  0
    3.2638  141.9288   55.6789 C   0  0  0  0  0  0  0  0  0  0  0  0
    3.0580  140.8070   55.9002 N   0  0  0  0  0  0  0  0  0  0  0  0
    3.5138  143.1057   51.6699 C   0  0  0  0  0  0  0  0  0  0  0  0
    4.4335  143.6582   51.5039 H   0  0  0  0  0  0  0  0  0  0  0  0
    2.8933  142.4950   50.5654 C   0  0  0  0  0  0  0  0  0  0  0  0
    3.5862  142.4446   49.2187 C   0  0  0  0  0  0  0  0  0  0  0  0
    4.5300  141.4669   49.2838 F   0  0  0  0  0  0  0  0  0  0  0  0
    2.7223  142.1281   48.2130 F   0  0  0  0  0  0  0  0  0  0  0  0
    4.1665  143.6404   48.9206 F   0  0  0  0  0  0  0  0  0  0  0  0
    1.6522  141.8595   50.7555 C   0  0  0  0  0  0  0  0  0  0  0  0
    1.1110  141.4429   49.9068 H   0  0  0  0  0  0  0  0  0  0  0  0
  1  2  1  0
  2  3  2  0
  3  4  1  0
  3  5  1  0
  5  6  1  0
  6  7  2  0
  7  8  1  0
  8  9  1  0
  9 10  1  0
  9 11  1  0
 11 12  2  0
 11 13  1  0
 13 14  1  0
 13 15  1  0
 13 16  1  0
 16 17  2  0
 17 18  1  0
 17 19  1  0
 19 20  1  0
 20 21  1  0
 21 22  1  0
 21 23  1  0
 21 24  1  0
 19 25  2  0
 25 26  1  0
 25 27  1  0
 27 28  1  0
 27 29  2  0
 29 30  1  0
 30 31  1  0
 31 32  1  0
 31 33  1  0
 31 34  1  0
  8 35  2  0
 35 36  1  0
 35 37  1  0
 37 38  1  0
 38 39  1  0
 38 40  1  0
 37 41  2  0
 41 42  1  0
 42 43  3  0
  5 44  2  0
 44 45  1  0
 44 46  1  0
 46 47  1  0
 47 48  1  0
 47 49  1  0
 47 50  1  0
 46 51  2  0
 51 52  1  0
 51  2  1  0
 41  6  1  0
 29 16  1  0
M  END
>  <score>  (288) 
7.20863

$$$$

     RDKit          3D

 48 50  0  0  0  0  0  0  0  0999 V2000
    3.0071  140.2706   52.0164 H   0  0  0  0  0  0  0  0  0  0  0  0
    2.5692  141.2351   52.2327 C   0  0  0  0  0  0  0  0  0  0  0  0
    3.0116  141.8495   53.3447 N   0  0  0  0  0  0  0  0  0  0  0  0
    2.5752  143.0991   53.6422 C   0  0  0  0  0  0  0  0  0  0  0  0
    3.1480  143.8717   54.8105 C   0  0  0  0  0  0  0  0  0  0  0  0
    3.4342  145.1747   54.6039 N   0  0  0  0  0  0  0  0  0  0  0  0
    3.9267  145.9092   55.5768 C   0  0  0  0  0  0  0  0  0  0  0  0
    4.3742  147.0792   55.1017 N   0  0  0  0  0  0  0  0  0  0  0  0
    4.6779  146.9646   54.1483 H   0  0  0  0  0  0  0  0  0  0  0  0
    3.5663  148.1674   55.2415 C   0  0  0  0  0  0  0  0  0  0  0  0
    2.8608  148.2857   56.2272 O   0  0  0  0  0  0  0  0  0  0  0  0
    3.5848  149.1770   54.1001 C   0  0  0  0  0  0  0  0  0  0  0  0
    4.0407  148.6966   53.2365 H   0  0  0  0  0  0  0  0  0  0  0  0
    4.2116  150.0263   54.3699 H   0  0  0  0  0  0  0  0  0  0  0  0
    2.2311  149.6825   53.6785 C   0  0  0  0  0  0  0  0  0  0  0  0
    1.5053  150.5110   54.5408 C   0  0  0  0  0  0  0  0  0  0  0  0
    1.9088  150.7546   55.5175 H   0  0  0  0  0  0  0  0  0  0  0  0
    0.2751  151.0505   54.1497 C   0  0  0  0  0  0  0  0  0  0  0  0
   -0.3515  151.9291   54.9863 O   0  0  0  0  0  0  0  0  0  0  0  0
   -1.5471  151.4332   55.5937 C   0  0  0  0  0  0  0  0  0  0  0  0
   -1.3083  150.6251   56.2851 H   0  0  0  0  0  0  0  0  0  0  0  0
   -2.2640  151.0563   54.8567 H   0  0  0  0  0  0  0  0  0  0  0  0
   -2.0172  152.2430   56.1594 H   0  0  0  0  0  0  0  0  0  0  0  0
   -0.2392  150.7557   52.8750 C   0  0  0  0  0  0  0  0  0  0  0  0
   -1.8682  151.5389   52.2567 Br  0  0  0  0  0  0  0  0  0  0  0  0
    0.4911  149.9362   52.0081 C   0  0  0  0  0  0  0  0  0  0  0  0
    0.1198  149.7420   51.0093 H   0  0  0  0  0  0  0  0  0  0  0  0
    1.7235  149.4000   52.3981 C   0  0  0  0  0  0  0  0  0  0  0  0
    2.4794  148.6512   51.5330 O   0  0  0  0  0  0  0  0  0  0  0  0
    1.8275  147.4747   51.0412 C   0  0  0  0  0  0  0  0  0  0  0  0
    1.2020  147.7153   50.1746 H   0  0  0  0  0  0  0  0  0  0  0  0
    2.5878  146.7455   50.7352 H   0  0  0  0  0  0  0  0  0  0  0  0
    1.1995  147.0118   51.8137 H   0  0  0  0  0  0  0  0  0  0  0  0
    4.1293  145.4576   56.8387 C   0  0  0  0  0  0  0  0  0  0  0  0
    4.5220  146.1083   57.6010 H   0  0  0  0  0  0  0  0  0  0  0  0
    3.8657  144.1409   57.0758 C   0  0  0  0  0  0  0  0  0  0  0  0
    4.1215  143.6811   58.3190 N   0  0  0  0  0  0  0  0  0  0  0  0
    4.6436  144.2856   58.9483 H   0  0  0  0  0  0  0  0  0  0  0  0
    4.2140  142.6759   58.4319 H   0  0  0  0  0  0  0  0  0  0  0  0
    3.3864  143.3114   56.0775 C   0  0  0  0  0  0  0  0  0  0  0  0
    3.1134  141.9358   56.3631 C   0  0  0  0  0  0  0  0  0  0  0  0
    2.8891  140.8170   56.5722 N   0  0  0  0  0  0  0  0  0  0  0  0
    1.6076  143.7068   52.8064 C   0  0  0  0  0  0  0  0  0  0  0  0
    1.2457  144.7011   53.0317 H   0  0  0  0  0  0  0  0  0  0  0  0
    1.1064  143.0554   51.6789 C   0  0  0  0  0  0  0  0  0  0  0  0
    0.3606  143.5151   51.0351 H   0  0  0  0  0  0  0  0  0  0  0  0
    1.6046  141.7945   51.3800 C   0  0  0  0  0  0  0  0  0  0  0  0
    1.1483  141.1284   50.2957 F   0  0  0  0  0  0  0  0  0  0  0  0
  1  2  1  0
  2  3  2  0
  3  4  1  0
  4  5  1  0
  5  6  2  0
  6  7  1  0
  7  8  1  0
  8  9  1  0
  8 10  1  0
 10 11  2  0
 10 12  1  0
 12 13  1  0
 12 14  1  0
 12 15  1  0
 15 16  2  0
 16 17  1  0
 16 18  1  0
 18 19  1  0
 19 20  1  0
 20 21  1  0
 20 22  1  0
 20 23  1  0
 18 24  2  0
 24 25  1  0
 24 26  1  0
 26 27  1  0
 26 28  2  0
 28 29  1  0
 29 30  1  0
 30 31  1  0
 30 32  1  0
 30 33  1  0
  7 34  2  0
 34 35  1  0
 34 36  1  0
 36 37  1  0
 37 38  1  0
 37 39  1  0
 36 40  2  0
 40 41  1  0
 41 42  3  0
  4 43  2  0
 43 44  1  0
 43 45  1  0
 45 46  1  0
 45 47  2  0
 47 48  1  0
 47  2  1  0
 40  5  1  0
 28 15  1  0
M  END
>  <score>  (289) 
7.21209

$$$$

     RDKit          3D

 59 61  0  0  0  0  0  0  0  0999 V2000
    2.0511  146.6951   47.2879 H   0  0  0  0  0  0  0  0  0  0  0  0
    2.2106  145.7772   47.8523 C   0  0  0  0  0  0  0  0  0  0  0  0
    3.4780  145.4220   48.3484 C   0  0  0  0  0  0  0  0  0  0  0  0
    4.3552  146.0441   48.2161 H   0  0  0  0  0  0  0  0  0  0  0  0
    3.6518  144.2240   49.0259 C   0  0  0  0  0  0  0  0  0  0  0  0
    4.6217  143.9698   49.4389 H   0  0  0  0  0  0  0  0  0  0  0  0
    2.5836  143.3479   49.1727 C   0  0  0  0  0  0  0  0  0  0  0  0
    2.8297  142.0399   49.8478 C   0  0  0  0  0  0  0  0  0  0  0  0
    2.4645  141.2157   49.2256 H   0  0  0  0  0  0  0  0  0  0  0  0
    3.9054  141.8952   50.0044 H   0  0  0  0  0  0  0  0  0  0  0  0
    2.1102  142.0490   51.1787 C   0  0  0  0  0  0  0  0  0  0  0  0
    1.0785  142.4009   51.0534 H   0  0  0  0  0  0  0  0  0  0  0  0
    2.0764  141.0273   51.5667 H   0  0  0  0  0  0  0  0  0  0  0  0
    2.7974  142.9093   52.1381 N   0  0  0  0  0  0  0  0  0  0  0  0
    3.5205  143.5446   51.8014 H   0  0  0  0  0  0  0  0  0  0  0  0
    2.3659  143.0044   53.4568 C   0  0  0  0  0  0  0  0  0  0  0  0
    1.3706  142.3331   53.6913 O   0  0  0  0  0  0  0  0  0  0  0  0
    3.0163  143.8319   54.5573 C   0  0  0  0  0  0  0  0  0  0  0  0
    3.3108  145.1120   54.2830 N   0  0  0  0  0  0  0  0  0  0  0  0
    3.7723  145.8917   55.2223 C   0  0  0  0  0  0  0  0  0  0  0  0
    3.8488  147.0877   54.6379 N   0  0  0  0  0  0  0  0  0  0  0  0
    3.5026  147.0718   53.6940 H   0  0  0  0  0  0  0  0  0  0  0  0
    3.7659  148.2677   55.2812 C   0  0  0  0  0  0  0  0  0  0  0  0
    3.8305  148.3204   56.4931 O   0  0  0  0  0  0  0  0  0  0  0  0
    3.6985  149.5154   54.4289 C   0  0  0  0  0  0  0  0  0  0  0  0
    4.4499  149.4637   53.6324 H   0  0  0  0  0  0  0  0  0  0  0  0
    3.9229  150.3383   55.0886 H   0  0  0  0  0  0  0  0  0  0  0  0
    2.3359  149.7873   53.8650 C   0  0  0  0  0  0  0  0  0  0  0  0
    1.5338  150.6825   54.5674 C   0  0  0  0  0  0  0  0  0  0  0  0
    1.8905  151.1314   55.4903 H   0  0  0  0  0  0  0  0  0  0  0  0
    0.2859  151.0462   54.0812 C   0  0  0  0  0  0  0  0  0  0  0  0
   -0.4158  151.9862   54.7768 O   0  0  0  0  0  0  0  0  0  0  0  0
   -1.4363  151.4069   55.5880 C   0  0  0  0  0  0  0  0  0  0  0  0
   -1.9476  152.1830   56.1641 H   0  0  0  0  0  0  0  0  0  0  0  0
   -1.0087  150.6876   56.2885 H   0  0  0  0  0  0  0  0  0  0  0  0
   -2.1676  150.8912   54.9619 H   0  0  0  0  0  0  0  0  0  0  0  0
   -0.2026  150.4724   52.8960 C   0  0  0  0  0  0  0  0  0  0  0  0
   -1.9370  150.9532   52.2323 Br  0  0  0  0  0  0  0  0  0  0  0  0
    0.6059  149.5693   52.1862 C   0  0  0  0  0  0  0  0  0  0  0  0
    0.2628  149.1537   51.2455 H   0  0  0  0  0  0  0  0  0  0  0  0
    1.8851  149.2262   52.6605 C   0  0  0  0  0  0  0  0  0  0  0  0
    2.7405  148.3943   51.9797 O   0  0  0  0  0  0  0  0  0  0  0  0
    2.1307  147.3119   51.2695 C   0  0  0  0  0  0  0  0  0  0  0  0
    1.6190  147.6672   50.3720 H   0  0  0  0  0  0  0  0  0  0  0  0
    2.8909  146.5864   50.9652 H   0  0  0  0  0  0  0  0  0  0  0  0
    1.4100  146.8002   51.9115 H   0  0  0  0  0  0  0  0  0  0  0  0
    3.9943  145.5095   56.5159 C   0  0  0  0  0  0  0  0  0  0  0  0
    4.2861  146.2011   57.2844 H   0  0  0  0  0  0  0  0  0  0  0  0
    3.8068  144.1934   56.8097 C   0  0  0  0  0  0  0  0  0  0  0  0
    4.0613  143.8018   58.0898 N   0  0  0  0  0  0  0  0  0  0  0  0
    4.4931  144.4725   58.7272 H   0  0  0  0  0  0  0  0  0  0  0  0
    4.0956  142.8059   58.3026 H   0  0  0  0  0  0  0  0  0  0  0  0
    3.3176  143.3314   55.8420 C   0  0  0  0  0  0  0  0  0  0  0  0
    3.1562  141.9505   56.1612 C   0  0  0  0  0  0  0  0  0  0  0  0
    3.0733  140.8204   56.4118 N   0  0  0  0  0  0  0  0  0  0  0  0
    1.3102  143.7143   48.7258 C   0  0  0  0  0  0  0  0  0  0  0  0
    0.4664  143.0578   48.8902 H   0  0  0  0  0  0  0  0  0  0  0  0
    1.1241  144.9316   48.0752 C   0  0  0  0  0  0  0  0  0  0  0  0
    0.1385  145.2107   47.7286 H   0  0  0  0  0  0  0  0  0  0  0  0
  1  2  1  0
  2  3  2  0
  3  4  1  0
  3  5  1  0
  5  6  1  0
  5  7  2  0
  7  8  1  0
  8  9  1  0
  8 10  1  0
  8 11  1  0
 11 12  1  0
 11 13  1  0
 11 14  1  0
 14 15  1  0
 14 16  1  0
 16 17  2  0
 16 18  1  0
 18 19  2  0
 19 20  1  0
 20 21  1  0
 21 22  1  0
 21 23  1  0
 23 24  2  0
 23 25  1  0
 25 26  1  0
 25 27  1  0
 25 28  1  0
 28 29  2  0
 29 30  1  0
 29 31  1  0
 31 32  1  0
 32 33  1  0
 33 34  1  0
 33 35  1  0
 33 36  1  0
 31 37  2  0
 37 38  1  0
 37 39  1  0
 39 40  1  0
 39 41  2  0
 41 42  1  0
 42 43  1  0
 43 44  1  0
 43 45  1  0
 43 46  1  0
 20 47  2  0
 47 48  1  0
 47 49  1  0
 49 50  1  0
 50 51  1  0
 50 52  1  0
 49 53  2  0
 53 54  1  0
 54 55  3  0
  7 56  1  0
 56 57  1  0
 56 58  2  0
 58 59  1  0
 58  2  1  0
 53 18  1  0
 41 28  1  0
M  END
>  <score>  (290) 
7.21248

$$$$

     RDKit          3D

 63 64  0  0  0  0  0  0  0  0999 V2000
    0.2431  149.1384   51.2511 H   0  0  0  0  0  0  0  0  0  0  0  0
    0.5964  149.5588   52.1855 C   0  0  0  0  0  0  0  0  0  0  0  0
   -0.2142  150.4654   52.8863 C   0  0  0  0  0  0  0  0  0  0  0  0
   -1.9499  150.9341   52.2132 Br  0  0  0  0  0  0  0  0  0  0  0  0
    0.2731  151.0492   54.0669 C   0  0  0  0  0  0  0  0  0  0  0  0
   -0.4352  151.9930   54.7528 O   0  0  0  0  0  0  0  0  0  0  0  0
   -1.4477  151.4040   55.5636 C   0  0  0  0  0  0  0  0  0  0  0  0
   -1.0062  150.6781   56.2523 H   0  0  0  0  0  0  0  0  0  0  0  0
   -1.9484  152.1803   56.1495 H   0  0  0  0  0  0  0  0  0  0  0  0
   -2.1850  150.8971   54.9328 H   0  0  0  0  0  0  0  0  0  0  0  0
    1.5179  150.6697   54.5625 C   0  0  0  0  0  0  0  0  0  0  0  0
    1.8562  151.1061   55.4972 H   0  0  0  0  0  0  0  0  0  0  0  0
    2.3272  149.7694   53.8694 C   0  0  0  0  0  0  0  0  0  0  0  0
    3.6792  149.4546   54.4558 C   0  0  0  0  0  0  0  0  0  0  0  0
    3.9012  150.2203   55.1905 H   0  0  0  0  0  0  0  0  0  0  0  0
    4.4491  149.4618   53.6712 H   0  0  0  0  0  0  0  0  0  0  0  0
    3.7078  148.1504   55.2249 C   0  0  0  0  0  0  0  0  0  0  0  0
    3.7936  148.1465   56.4403 O   0  0  0  0  0  0  0  0  0  0  0  0
    3.7130  146.9886   54.5306 N   0  0  0  0  0  0  0  0  0  0  0  0
    3.3937  147.0067   53.5738 H   0  0  0  0  0  0  0  0  0  0  0  0
    3.6161  145.7917   55.1245 C   0  0  0  0  0  0  0  0  0  0  0  0
    3.1447  144.9568   54.2436 N   0  0  0  0  0  0  0  0  0  0  0  0
    2.9602  143.6953   54.6084 C   0  0  0  0  0  0  0  0  0  0  0  0
    2.3824  142.7806   53.5647 C   0  0  0  0  0  0  0  0  0  0  0  0
    3.1668  142.0915   53.2404 H   0  0  0  0  0  0  0  0  0  0  0  0
    1.5717  142.2077   54.0179 H   0  0  0  0  0  0  0  0  0  0  0  0
    1.8214  143.5624   52.3609 C   0  0  0  0  0  0  0  0  0  0  0  0
    2.6161  144.1675   51.9031 H   0  0  0  0  0  0  0  0  0  0  0  0
    1.0385  144.2449   52.7127 H   0  0  0  0  0  0  0  0  0  0  0  0
    1.2013  142.6336   51.3280 C   0  0  0  0  0  0  0  0  0  0  0  0
    0.5816  143.2280   50.6537 H   0  0  0  0  0  0  0  0  0  0  0  0
    0.5565  141.9079   51.8382 H   0  0  0  0  0  0  0  0  0  0  0  0
    2.2410  141.8811   50.4924 C   0  0  0  0  0  0  0  0  0  0  0  0
    2.8250  141.2243   51.1469 H   0  0  0  0  0  0  0  0  0  0  0  0
    2.9330  142.5594   49.9952 H   0  0  0  0  0  0  0  0  0  0  0  0
    1.5246  141.0239   49.4545 C   0  0  0  0  0  0  0  0  0  0  0  0
    0.6919  140.5800   49.9919 H   0  0  0  0  0  0  0  0  0  0  0  0
    2.2002  140.2342   49.1032 H   0  0  0  0  0  0  0  0  0  0  0  0
    0.9583  141.7318   48.2158 C   0  0  0  0  0  0  0  0  0  0  0  0
    1.7521  142.2882   47.7054 H   0  0  0  0  0  0  0  0  0  0  0  0
    0.1616  142.4269   48.5038 H   0  0  0  0  0  0  0  0  0  0  0  0
    0.3956  140.6462   47.2869 C   0  0  0  0  0  0  0  0  0  0  0  0
    1.2019  139.9396   47.0483 H   0  0  0  0  0  0  0  0  0  0  0  0
   -0.3931  140.0986   47.8129 H   0  0  0  0  0  0  0  0  0  0  0  0
   -0.1811  141.2178   45.9932 C   0  0  0  0  0  0  0  0  0  0  0  0
   -1.0353  141.8748   46.1999 H   0  0  0  0  0  0  0  0  0  0  0  0
    0.5872  141.7865   45.4581 H   0  0  0  0  0  0  0  0  0  0  0  0
   -0.5201  140.3925   45.3571 H   0  0  0  0  0  0  0  0  0  0  0  0
    3.2902  143.2422   55.8837 C   0  0  0  0  0  0  0  0  0  0  0  0
    3.1673  141.8647   56.2194 C   0  0  0  0  0  0  0  0  0  0  0  0
    3.0887  140.7227   56.4261 N   0  0  0  0  0  0  0  0  0  0  0  0
    3.7579  144.1610   56.7937 C   0  0  0  0  0  0  0  0  0  0  0  0
    4.0649  143.7994   58.0689 N   0  0  0  0  0  0  0  0  0  0  0  0
    4.4743  144.5059   58.6802 H   0  0  0  0  0  0  0  0  0  0  0  0
    4.1082  142.8122   58.3160 H   0  0  0  0  0  0  0  0  0  0  0  0
    3.9146  145.4654   56.4259 C   0  0  0  0  0  0  0  0  0  0  0  0
    4.2624  146.1968   57.1372 H   0  0  0  0  0  0  0  0  0  0  0  0
    1.8805  149.2178   52.6571 C   0  0  0  0  0  0  0  0  0  0  0  0
    2.7292  148.3759   51.9825 O   0  0  0  0  0  0  0  0  0  0  0  0
    2.1053  147.3095   51.2642 C   0  0  0  0  0  0  0  0  0  0  0  0
    2.8727  146.6082   50.9230 H   0  0  0  0  0  0  0  0  0  0  0  0
    1.5648  147.6894   50.3911 H   0  0  0  0  0  0  0  0  0  0  0  0
    1.4094  146.7722   51.9174 H   0  0  0  0  0  0  0  0  0  0  0  0
  1  2  1  0
  2  3  2  0
  3  4  1  0
  3  5  1  0
  5  6  1  0
  6  7  1  0
  7  8  1  0
  7  9  1  0
  7 10  1  0
  5 11  2  0
 11 12  1  0
 11 13  1  0
 13 14  1  0
 14 15  1  0
 14 16  1  0
 14 17  1  0
 17 18  2  0
 17 19  1  0
 19 20  1  0
 19 21  1  0
 21 22  2  0
 22 23  1  0
 23 24  1  0
 24 25  1  0
 24 26  1  0
 24 27  1  0
 27 28  1  0
 27 29  1  0
 27 30  1  0
 30 31  1  0
 30 32  1  0
 30 33  1  0
 33 34  1  0
 33 35  1  0
 33 36  1  0
 36 37  1  0
 36 38  1  0
 36 39  1  0
 39 40  1  0
 39 41  1  0
 39 42  1  0
 42 43  1  0
 42 44  1  0
 42 45  1  0
 45 46  1  0
 45 47  1  0
 45 48  1  0
 23 49  2  0
 49 50  1  0
 50 51  3  0
 49 52  1  0
 52 53  1  0
 53 54  1  0
 53 55  1  0
 52 56  2  0
 56 57  1  0
 13 58  2  0
 58 59  1  0
 59 60  1  0
 60 61  1  0
 60 62  1  0
 60 63  1  0
 58  2  1  0
 56 21  1  0
M  END
>  <score>  (291) 
7.2136

$$$$

     RDKit          3D

 49 51  0  0  0  0  0  0  0  0999 V2000
    1.5582  141.4152   49.6359 H   0  0  0  0  0  0  0  0  0  0  0  0
    1.9270  141.8652   50.5541 C   0  0  0  0  0  0  0  0  0  0  0  0
    1.2189  141.7184   51.7563 C   0  0  0  0  0  0  0  0  0  0  0  0
   -0.2360  140.7840   51.8754 Cl  0  0  0  0  0  0  0  0  0  0  0  0
    1.6932  142.3117   52.9220 C   0  0  0  0  0  0  0  0  0  0  0  0
    1.0924  142.2357   53.8204 H   0  0  0  0  0  0  0  0  0  0  0  0
    2.8862  143.0368   52.9351 C   0  0  0  0  0  0  0  0  0  0  0  0
    3.2921  143.7849   54.1328 C   0  0  0  0  0  0  0  0  0  0  0  0
    3.5031  145.0749   53.8857 N   0  0  0  0  0  0  0  0  0  0  0  0
    3.7555  145.8765   54.8866 C   0  0  0  0  0  0  0  0  0  0  0  0
    3.7996  147.1317   54.4429 N   0  0  0  0  0  0  0  0  0  0  0  0
    3.6082  147.2171   53.4588 H   0  0  0  0  0  0  0  0  0  0  0  0
    3.6897  148.2381   55.2283 C   0  0  0  0  0  0  0  0  0  0  0  0
    3.7638  148.1541   56.4404 O   0  0  0  0  0  0  0  0  0  0  0  0
    3.6280  149.5819   54.5330 C   0  0  0  0  0  0  0  0  0  0  0  0
    3.7891  150.3651   55.2756 H   0  0  0  0  0  0  0  0  0  0  0  0
    4.4238  149.6249   53.7839 H   0  0  0  0  0  0  0  0  0  0  0  0
    2.2919  149.8300   53.8879 C   0  0  0  0  0  0  0  0  0  0  0  0
    1.4513  150.7309   54.5478 C   0  0  0  0  0  0  0  0  0  0  0  0
    1.7693  151.1807   55.4843 H   0  0  0  0  0  0  0  0  0  0  0  0
    0.2113  151.0790   54.0203 C   0  0  0  0  0  0  0  0  0  0  0  0
   -0.5481  152.0063   54.6808 O   0  0  0  0  0  0  0  0  0  0  0  0
   -1.5242  151.3968   55.5263 C   0  0  0  0  0  0  0  0  0  0  0  0
   -1.0601  150.6580   56.1870 H   0  0  0  0  0  0  0  0  0  0  0  0
   -2.2934  150.9023   54.9247 H   0  0  0  0  0  0  0  0  0  0  0  0
   -1.9995  152.1623   56.1447 H   0  0  0  0  0  0  0  0  0  0  0  0
   -0.2269  150.4633   52.8364 C   0  0  0  0  0  0  0  0  0  0  0  0
   -1.9596  150.8563   52.1227 Br  0  0  0  0  0  0  0  0  0  0  0  0
    0.5978  149.5333   52.1817 C   0  0  0  0  0  0  0  0  0  0  0  0
    0.2490  149.0553   51.2703 H   0  0  0  0  0  0  0  0  0  0  0  0
    1.8714  149.2111   52.6873 C   0  0  0  0  0  0  0  0  0  0  0  0
    2.7014  148.3120   52.0503 O   0  0  0  0  0  0  0  0  0  0  0  0
    2.0588  147.3066   51.2466 C   0  0  0  0  0  0  0  0  0  0  0  0
    1.5294  147.7499   50.3955 H   0  0  0  0  0  0  0  0  0  0  0  0
    1.3429  146.7435   51.8552 H   0  0  0  0  0  0  0  0  0  0  0  0
    2.8063  146.6050   50.8583 H   0  0  0  0  0  0  0  0  0  0  0  0
    3.8682  145.4797   56.1804 C   0  0  0  0  0  0  0  0  0  0  0  0
    4.0939  146.1736   56.9769 H   0  0  0  0  0  0  0  0  0  0  0  0
    3.6692  144.1572   56.4317 C   0  0  0  0  0  0  0  0  0  0  0  0
    3.7931  143.7767   57.7185 N   0  0  0  0  0  0  0  0  0  0  0  0
    3.9723  142.7902   57.8937 H   0  0  0  0  0  0  0  0  0  0  0  0
    4.2284  144.4588   58.3313 H   0  0  0  0  0  0  0  0  0  0  0  0
    3.3538  143.2682   55.4273 C   0  0  0  0  0  0  0  0  0  0  0  0
    3.1396  141.8845   55.7176 C   0  0  0  0  0  0  0  0  0  0  0  0
    3.0037  140.7588   55.9724 N   0  0  0  0  0  0  0  0  0  0  0  0
    3.5864  143.1879   51.7211 C   0  0  0  0  0  0  0  0  0  0  0  0
    4.5006  143.7790   51.6920 H   0  0  0  0  0  0  0  0  0  0  0  0
    3.1117  142.6163   50.5322 C   0  0  0  0  0  0  0  0  0  0  0  0
    4.0178  142.8287   49.0457 Cl  0  0  0  0  0  0  0  0  0  0  0  0
  1  2  1  0
  2  3  2  0
  3  4  1  0
  3  5  1  0
  5  6  1  0
  5  7  2  0
  7  8  1  0
  8  9  2  0
  9 10  1  0
 10 11  1  0
 11 12  1  0
 11 13  1  0
 13 14  2  0
 13 15  1  0
 15 16  1  0
 15 17  1  0
 15 18  1  0
 18 19  2  0
 19 20  1  0
 19 21  1  0
 21 22  1  0
 22 23  1  0
 23 24  1  0
 23 25  1  0
 23 26  1  0
 21 27  2  0
 27 28  1  0
 27 29  1  0
 29 30  1  0
 29 31  2  0
 31 32  1  0
 32 33  1  0
 33 34  1  0
 33 35  1  0
 33 36  1  0
 10 37  2  0
 37 38  1  0
 37 39  1  0
 39 40  1  0
 40 41  1  0
 40 42  1  0
 39 43  2  0
 43 44  1  0
 44 45  3  0
  7 46  1  0
 46 47  1  0
 46 48  2  0
 48 49  1  0
 48  2  1  0
 43  8  1  0
 31 18  1  0
M  END
>  <score>  (292) 
7.21387

$$$$

     RDKit          3D

 56 58  0  0  0  0  0  0  0  0999 V2000
    5.2058  143.0944   49.8596 H   0  0  0  0  0  0  0  0  0  0  0  0
    4.8927  142.5203   50.7270 C   0  0  0  0  0  0  0  0  0  0  0  0
    5.4323  141.2538   50.9556 C   0  0  0  0  0  0  0  0  0  0  0  0
    6.2225  140.8661   50.3182 H   0  0  0  0  0  0  0  0  0  0  0  0
    4.9345  140.4355   51.9833 C   0  0  0  0  0  0  0  0  0  0  0  0
    5.3306  139.1269   52.1076 O   0  0  0  0  0  0  0  0  0  0  0  0
    6.4446  138.7406   51.2737 C   0  0  0  0  0  0  0  0  0  0  0  0
    6.6024  137.6605   51.2861 H   0  0  0  0  0  0  0  0  0  0  0  0
    7.3641  139.2485   51.5978 H   0  0  0  0  0  0  0  0  0  0  0  0
    6.2398  139.0062   50.2351 H   0  0  0  0  0  0  0  0  0  0  0  0
    3.9727  140.9485   52.8658 C   0  0  0  0  0  0  0  0  0  0  0  0
    3.6217  140.3208   53.6798 H   0  0  0  0  0  0  0  0  0  0  0  0
    3.4692  142.2444   52.6875 C   0  0  0  0  0  0  0  0  0  0  0  0
    2.4043  142.7956   53.5934 C   0  0  0  0  0  0  0  0  0  0  0  0
    1.8672  142.0001   54.0976 H   0  0  0  0  0  0  0  0  0  0  0  0
    1.6811  143.3591   53.0054 H   0  0  0  0  0  0  0  0  0  0  0  0
    2.9810  143.6958   54.6305 C   0  0  0  0  0  0  0  0  0  0  0  0
    3.1258  144.9673   54.2905 N   0  0  0  0  0  0  0  0  0  0  0  0
    3.5873  145.7996   55.1868 C   0  0  0  0  0  0  0  0  0  0  0  0
    3.7079  146.9889   54.5819 N   0  0  0  0  0  0  0  0  0  0  0  0
    3.4327  146.9771   53.6095 H   0  0  0  0  0  0  0  0  0  0  0  0
    3.7371  148.1775   55.2248 C   0  0  0  0  0  0  0  0  0  0  0  0
    3.8081  148.2221   56.4410 O   0  0  0  0  0  0  0  0  0  0  0  0
    3.6984  149.4566   54.4232 C   0  0  0  0  0  0  0  0  0  0  0  0
    4.4263  149.4125   53.6134 H   0  0  0  0  0  0  0  0  0  0  0  0
    3.9611  150.2528   55.0963 H   0  0  0  0  0  0  0  0  0  0  0  0
    2.3411  149.7648   53.8720 C   0  0  0  0  0  0  0  0  0  0  0  0
    1.5578  150.6717   54.5794 C   0  0  0  0  0  0  0  0  0  0  0  0
    1.9337  151.1216   55.4980 H   0  0  0  0  0  0  0  0  0  0  0  0
    0.3059  151.0362   54.0976 C   0  0  0  0  0  0  0  0  0  0  0  0
   -0.3889  151.9754   54.8009 O   0  0  0  0  0  0  0  0  0  0  0  0
   -1.4224  151.4059   55.6040 C   0  0  0  0  0  0  0  0  0  0  0  0
   -2.1495  150.8881   54.9750 H   0  0  0  0  0  0  0  0  0  0  0  0
   -1.0067  150.6886   56.3133 H   0  0  0  0  0  0  0  0  0  0  0  0
   -1.9364  152.1921   56.1654 H   0  0  0  0  0  0  0  0  0  0  0  0
   -0.1879  150.4759   52.9057 C   0  0  0  0  0  0  0  0  0  0  0  0
   -1.9217  150.9747   52.2569 Br  0  0  0  0  0  0  0  0  0  0  0  0
    0.6144  149.5753   52.1824 C   0  0  0  0  0  0  0  0  0  0  0  0
    0.2788  149.1725   51.2308 H   0  0  0  0  0  0  0  0  0  0  0  0
    1.8895  149.2199   52.6597 C   0  0  0  0  0  0  0  0  0  0  0  0
    2.7512  148.4050   51.9650 O   0  0  0  0  0  0  0  0  0  0  0  0
    2.1440  147.3112   51.2746 C   0  0  0  0  0  0  0  0  0  0  0  0
    1.5923  147.6591   50.3985 H   0  0  0  0  0  0  0  0  0  0  0  0
    1.4594  146.7835   51.9425 H   0  0  0  0  0  0  0  0  0  0  0  0
    2.9105  146.6056   50.9427 H   0  0  0  0  0  0  0  0  0  0  0  0
    3.9062  145.4608   56.4792 C   0  0  0  0  0  0  0  0  0  0  0  0
    4.2816  146.1654   57.2058 H   0  0  0  0  0  0  0  0  0  0  0  0
    3.7621  144.1470   56.8055 C   0  0  0  0  0  0  0  0  0  0  0  0
    4.1111  143.7711   58.0510 N   0  0  0  0  0  0  0  0  0  0  0  0
    4.0862  142.7850   58.2921 H   0  0  0  0  0  0  0  0  0  0  0  0
    4.4932  144.4624   58.6917 H   0  0  0  0  0  0  0  0  0  0  0  0
    3.2976  143.2337   55.8927 C   0  0  0  0  0  0  0  0  0  0  0  0
    3.1676  141.8509   56.2069 C   0  0  0  0  0  0  0  0  0  0  0  0
    3.0727  140.7130   56.4267 N   0  0  0  0  0  0  0  0  0  0  0  0
    3.9289  143.0164   51.6119 C   0  0  0  0  0  0  0  0  0  0  0  0
    3.5125  144.0037   51.4530 H   0  0  0  0  0  0  0  0  0  0  0  0
  1  2  1  0
  2  3  2  0
  3  4  1  0
  3  5  1  0
  5  6  1  0
  6  7  1  0
  7  8  1  0
  7  9  1  0
  7 10  1  0
  5 11  2  0
 11 12  1  0
 11 13  1  0
 13 14  1  0
 14 15  1  0
 14 16  1  0
 14 17  1  0
 17 18  2  0
 18 19  1  0
 19 20  1  0
 20 21  1  0
 20 22  1  0
 22 23  2  0
 22 24  1  0
 24 25  1  0
 24 26  1  0
 24 27  1  0
 27 28  2  0
 28 29  1  0
 28 30  1  0
 30 31  1  0
 31 32  1  0
 32 33  1  0
 32 34  1  0
 32 35  1  0
 30 36  2  0
 36 37  1  0
 36 38  1  0
 38 39  1  0
 38 40  2  0
 40 41  1  0
 41 42  1  0
 42 43  1  0
 42 44  1  0
 42 45  1  0
 19 46  2  0
 46 47  1  0
 46 48  1  0
 48 49  1  0
 49 50  1  0
 49 51  1  0
 48 52  2  0
 52 53  1  0
 53 54  3  0
 13 55  2  0
 55 56  1  0
 55  2  1  0
 52 17  1  0
 40 27  1  0
M  END
>  <score>  (293) 
7.21579

$$$$

     RDKit          3D

 56 58  0  0  0  0  0  0  0  0999 V2000
    5.2038  142.8370   49.8435 H   0  0  0  0  0  0  0  0  0  0  0  0
    4.8477  142.3033   50.7240 C   0  0  0  0  0  0  0  0  0  0  0  0
    3.9828  142.9280   51.6396 C   0  0  0  0  0  0  0  0  0  0  0  0
    3.6777  143.9594   51.4987 H   0  0  0  0  0  0  0  0  0  0  0  0
    3.4689  142.2209   52.7346 C   0  0  0  0  0  0  0  0  0  0  0  0
    2.3897  142.8159   53.6044 C   0  0  0  0  0  0  0  0  0  0  0  0
    1.6855  143.3810   52.9925 H   0  0  0  0  0  0  0  0  0  0  0  0
    1.8293  142.0289   54.1025 H   0  0  0  0  0  0  0  0  0  0  0  0
    2.9439  143.7152   54.6510 C   0  0  0  0  0  0  0  0  0  0  0  0
    3.0834  144.9917   54.3207 N   0  0  0  0  0  0  0  0  0  0  0  0
    3.5682  145.8132   55.2159 C   0  0  0  0  0  0  0  0  0  0  0  0
    3.7177  146.9962   54.6087 N   0  0  0  0  0  0  0  0  0  0  0  0
    3.4648  146.9646   53.6304 H   0  0  0  0  0  0  0  0  0  0  0  0
    3.7437  148.1944   55.2420 C   0  0  0  0  0  0  0  0  0  0  0  0
    3.8228  148.2484   56.4591 O   0  0  0  0  0  0  0  0  0  0  0  0
    3.7065  149.4659   54.4161 C   0  0  0  0  0  0  0  0  0  0  0  0
    3.9821  150.2938   55.0503 H   0  0  0  0  0  0  0  0  0  0  0  0
    4.4178  149.3940   53.5940 H   0  0  0  0  0  0  0  0  0  0  0  0
    2.3534  149.7714   53.8682 C   0  0  0  0  0  0  0  0  0  0  0  0
    1.5727  150.6788   54.5794 C   0  0  0  0  0  0  0  0  0  0  0  0
    1.9608  151.1301   55.4895 H   0  0  0  0  0  0  0  0  0  0  0  0
    0.3165  151.0432   54.1120 C   0  0  0  0  0  0  0  0  0  0  0  0
   -0.3831  151.9756   54.8258 O   0  0  0  0  0  0  0  0  0  0  0  0
   -1.4224  151.4052   55.6210 C   0  0  0  0  0  0  0  0  0  0  0  0
   -2.1481  150.8830   54.9921 H   0  0  0  0  0  0  0  0  0  0  0  0
   -1.0082  150.6929   56.3369 H   0  0  0  0  0  0  0  0  0  0  0  0
   -1.9376  152.1966   56.1743 H   0  0  0  0  0  0  0  0  0  0  0  0
   -0.1698  150.4846   52.9150 C   0  0  0  0  0  0  0  0  0  0  0  0
   -1.9027  150.9804   52.2675 Br  0  0  0  0  0  0  0  0  0  0  0  0
    0.6316  149.5844   52.1859 C   0  0  0  0  0  0  0  0  0  0  0  0
    0.2908  149.1835   51.2361 H   0  0  0  0  0  0  0  0  0  0  0  0
    1.9058  149.2246   52.6566 C   0  0  0  0  0  0  0  0  0  0  0  0
    2.7624  148.4058   51.9578 O   0  0  0  0  0  0  0  0  0  0  0  0
    2.1535  147.3065   51.2777 C   0  0  0  0  0  0  0  0  0  0  0  0
    1.4682  146.7788   51.9485 H   0  0  0  0  0  0  0  0  0  0  0  0
    1.6026  147.6522   50.3985 H   0  0  0  0  0  0  0  0  0  0  0  0
    2.9270  146.6035   50.9523 H   0  0  0  0  0  0  0  0  0  0  0  0
    3.9024  145.4601   56.4975 C   0  0  0  0  0  0  0  0  0  0  0  0
    4.3030  146.1524   57.2224 H   0  0  0  0  0  0  0  0  0  0  0  0
    3.7532  144.1425   56.8118 C   0  0  0  0  0  0  0  0  0  0  0  0
    4.1346  143.7529   58.0417 N   0  0  0  0  0  0  0  0  0  0  0  0
    4.0757  142.7718   58.2969 H   0  0  0  0  0  0  0  0  0  0  0  0
    4.4972  144.4467   58.6898 H   0  0  0  0  0  0  0  0  0  0  0  0
    3.2732  143.2329   55.9032 C   0  0  0  0  0  0  0  0  0  0  0  0
    3.1523  141.8453   56.2102 C   0  0  0  0  0  0  0  0  0  0  0  0
    3.0618  140.7057   56.4295 N   0  0  0  0  0  0  0  0  0  0  0  0
    3.9573  140.9396   53.0027 C   0  0  0  0  0  0  0  0  0  0  0  0
    3.6111  140.4149   53.8886 H   0  0  0  0  0  0  0  0  0  0  0  0
    4.8786  140.3443   52.1346 C   0  0  0  0  0  0  0  0  0  0  0  0
    5.3095  139.3754   52.3730 H   0  0  0  0  0  0  0  0  0  0  0  0
    5.2562  140.9775   50.9358 C   0  0  0  0  0  0  0  0  0  0  0  0
    5.9980  140.3371   49.9718 O   0  0  0  0  0  0  0  0  0  0  0  0
    6.4425  139.0139   50.3116 C   0  0  0  0  0  0  0  0  0  0  0  0
    6.8956  139.0362   51.3075 H   0  0  0  0  0  0  0  0  0  0  0  0
    5.6259  138.2936   50.2849 H   0  0  0  0  0  0  0  0  0  0  0  0
    7.1821  138.6559   49.6015 H   0  0  0  0  0  0  0  0  0  0  0  0
  1  2  1  0
  2  3  2  0
  3  4  1  0
  3  5  1  0
  5  6  1  0
  6  7  1  0
  6  8  1  0
  6  9  1  0
  9 10  2  0
 10 11  1  0
 11 12  1  0
 12 13  1  0
 12 14  1  0
 14 15  2  0
 14 16  1  0
 16 17  1  0
 16 18  1  0
 16 19  1  0
 19 20  2  0
 20 21  1  0
 20 22  1  0
 22 23  1  0
 23 24  1  0
 24 25  1  0
 24 26  1  0
 24 27  1  0
 22 28  2  0
 28 29  1  0
 28 30  1  0
 30 31  1  0
 30 32  2  0
 32 33  1  0
 33 34  1  0
 34 35  1  0
 34 36  1  0
 34 37  1  0
 11 38  2  0
 38 39  1  0
 38 40  1  0
 40 41  1  0
 41 42  1  0
 41 43  1  0
 40 44  2  0
 44 45  1  0
 45 46  3  0
  5 47  2  0
 47 48  1  0
 47 49  1  0
 49 50  1  0
 49 51  2  0
 51 52  1  0
 52 53  1  0
 53 54  1  0
 53 55  1  0
 53 56  1  0
 51  2  1  0
 44  9  1  0
 32 19  1  0
M  END
>  <score>  (294) 
7.21776

$$$$

     RDKit          3D

 52 53  0  0  0  0  0  0  0  0999 V2000
    0.2897  149.1801   51.2318 H   0  0  0  0  0  0  0  0  0  0  0  0
    0.6275  149.5767   52.1827 C   0  0  0  0  0  0  0  0  0  0  0  0
   -0.1728  150.4790   52.9077 C   0  0  0  0  0  0  0  0  0  0  0  0
   -1.9099  150.9822   52.2689 Br  0  0  0  0  0  0  0  0  0  0  0  0
    0.3115  151.0371   54.1082 C   0  0  0  0  0  0  0  0  0  0  0  0
   -0.3809  151.9733   54.8208 O   0  0  0  0  0  0  0  0  0  0  0  0
   -1.4202  151.4054   55.6167 C   0  0  0  0  0  0  0  0  0  0  0  0
   -2.1451  150.8843   54.9872 H   0  0  0  0  0  0  0  0  0  0  0  0
   -1.0081  150.6910   56.3310 H   0  0  0  0  0  0  0  0  0  0  0  0
   -1.9344  152.1972   56.1689 H   0  0  0  0  0  0  0  0  0  0  0  0
    1.5688  150.6805   54.5794 C   0  0  0  0  0  0  0  0  0  0  0  0
    1.9572  151.1360   55.4901 H   0  0  0  0  0  0  0  0  0  0  0  0
    2.3441  149.7670   53.8704 C   0  0  0  0  0  0  0  0  0  0  0  0
    3.6956  149.4472   54.4172 C   0  0  0  0  0  0  0  0  0  0  0  0
    4.4106  149.3990   53.5997 H   0  0  0  0  0  0  0  0  0  0  0  0
    3.9718  150.2605   55.0668 H   0  0  0  0  0  0  0  0  0  0  0  0
    3.7428  148.1554   55.2176 C   0  0  0  0  0  0  0  0  0  0  0  0
    3.8234  148.1915   56.4331 O   0  0  0  0  0  0  0  0  0  0  0  0
    3.7109  146.9668   54.5647 N   0  0  0  0  0  0  0  0  0  0  0  0
    3.4471  146.9430   53.5909 H   0  0  0  0  0  0  0  0  0  0  0  0
    3.6110  145.7670   55.1562 C   0  0  0  0  0  0  0  0  0  0  0  0
    3.1720  144.9287   54.2512 N   0  0  0  0  0  0  0  0  0  0  0  0
    2.9966  143.6655   54.5981 C   0  0  0  0  0  0  0  0  0  0  0  0
    2.3656  142.8251   53.5792 C   0  0  0  0  0  0  0  0  0  0  0  0
    1.6063  142.2078   54.0474 H   0  0  0  0  0  0  0  0  0  0  0  0
    1.9030  143.4480   52.8134 H   0  0  0  0  0  0  0  0  0  0  0  0
    3.4483  141.9626   52.9929 C   0  0  0  0  0  0  0  0  0  0  0  0
    3.6231  140.8676   53.5124 O   0  0  0  0  0  0  0  0  0  0  0  0
    4.1893  142.3720   51.8921 N   0  0  0  0  0  0  0  0  0  0  0  0
    3.9680  143.6818   51.2773 C   0  0  0  0  0  0  0  0  0  0  0  0
    4.6782  143.8669   50.4705 H   0  0  0  0  0  0  0  0  0  0  0  0
    2.9662  143.7479   50.8531 H   0  0  0  0  0  0  0  0  0  0  0  0
    4.0871  144.4820   52.0075 H   0  0  0  0  0  0  0  0  0  0  0  0
    5.2682  141.5254   51.3589 C   0  0  0  0  0  0  0  0  0  0  0  0
    4.8733  140.6086   50.9188 H   0  0  0  0  0  0  0  0  0  0  0  0
    5.8363  142.0523   50.5835 H   0  0  0  0  0  0  0  0  0  0  0  0
    5.9685  141.2587   52.1581 H   0  0  0  0  0  0  0  0  0  0  0  0
    3.3027  143.1871   55.8544 C   0  0  0  0  0  0  0  0  0  0  0  0
    3.1547  141.8059   56.1859 C   0  0  0  0  0  0  0  0  0  0  0  0
    3.0447  140.6798   56.4636 N   0  0  0  0  0  0  0  0  0  0  0  0
    3.7638  144.1106   56.7629 C   0  0  0  0  0  0  0  0  0  0  0  0
    4.1049  143.7467   58.0162 N   0  0  0  0  0  0  0  0  0  0  0  0
    4.0782  142.7672   58.2800 H   0  0  0  0  0  0  0  0  0  0  0  0
    4.4809  144.4435   58.6492 H   0  0  0  0  0  0  0  0  0  0  0  0
    3.9070  145.4308   56.4489 C   0  0  0  0  0  0  0  0  0  0  0  0
    4.2539  146.1329   57.1921 H   0  0  0  0  0  0  0  0  0  0  0  0
    1.8994  149.2191   52.6586 C   0  0  0  0  0  0  0  0  0  0  0  0
    2.7621  148.4074   51.9631 O   0  0  0  0  0  0  0  0  0  0  0  0
    2.1518  147.3110   51.2786 C   0  0  0  0  0  0  0  0  0  0  0  0
    1.5822  147.6601   50.4121 H   0  0  0  0  0  0  0  0  0  0  0  0
    1.4818  146.7694   51.9546 H   0  0  0  0  0  0  0  0  0  0  0  0
    2.9243  146.6181   50.9311 H   0  0  0  0  0  0  0  0  0  0  0  0
  1  2  1  0
  2  3  2  0
  3  4  1  0
  3  5  1  0
  5  6  1  0
  6  7  1  0
  7  8  1  0
  7  9  1  0
  7 10  1  0
  5 11  2  0
 11 12  1  0
 11 13  1  0
 13 14  1  0
 14 15  1  0
 14 16  1  0
 14 17  1  0
 17 18  2  0
 17 19  1  0
 19 20  1  0
 19 21  1  0
 21 22  2  0
 22 23  1  0
 23 24  1  0
 24 25  1  0
 24 26  1  0
 24 27  1  0
 27 28  2  0
 27 29  1  0
 29 30  1  0
 30 31  1  0
 30 32  1  0
 30 33  1  0
 29 34  1  0
 34 35  1  0
 34 36  1  0
 34 37  1  0
 23 38  2  0
 38 39  1  0
 39 40  3  0
 38 41  1  0
 41 42  1  0
 42 43  1  0
 42 44  1  0
 41 45  2  0
 45 46  1  0
 13 47  2  0
 47 48  1  0
 48 49  1  0
 49 50  1  0
 49 51  1  0
 49 52  1  0
 47  2  1  0
 45 21  1  0
M  END
>  <score>  (295) 
7.2183

$$$$

     RDKit          3D

 50 52  0  0  0  0  0  0  0  0999 V2000
    1.5317  141.3153   49.6664 H   0  0  0  0  0  0  0  0  0  0  0  0
    1.9081  141.8198   50.5526 C   0  0  0  0  0  0  0  0  0  0  0  0
    1.3199  141.5868   51.8068 C   0  0  0  0  0  0  0  0  0  0  0  0
    0.4544  140.9228   51.8974 H   0  0  0  0  0  0  0  0  0  0  0  0
    1.8468  142.2335   52.9369 C   0  0  0  0  0  0  0  0  0  0  0  0
    1.3764  142.1340   53.9139 H   0  0  0  0  0  0  0  0  0  0  0  0
    2.9189  143.1268   52.8192 C   0  0  0  0  0  0  0  0  0  0  0  0
    3.3607  143.8530   54.0086 C   0  0  0  0  0  0  0  0  0  0  0  0
    3.5690  145.1447   53.7836 N   0  0  0  0  0  0  0  0  0  0  0  0
    3.8053  145.9249   54.7971 C   0  0  0  0  0  0  0  0  0  0  0  0
    3.8585  147.1820   54.3656 N   0  0  0  0  0  0  0  0  0  0  0  0
    3.7269  147.2525   53.3657 H   0  0  0  0  0  0  0  0  0  0  0  0
    3.6978  148.2649   55.1765 C   0  0  0  0  0  0  0  0  0  0  0  0
    3.7096  148.1501   56.3936 O   0  0  0  0  0  0  0  0  0  0  0  0
    3.5931  149.6336   54.5460 C   0  0  0  0  0  0  0  0  0  0  0  0
    4.3994  149.7558   53.8157 H   0  0  0  0  0  0  0  0  0  0  0  0
    3.7058  150.3672   55.3457 H   0  0  0  0  0  0  0  0  0  0  0  0
    2.2614  149.8554   53.8948 C   0  0  0  0  0  0  0  0  0  0  0  0
    1.4200  150.7751   54.5327 C   0  0  0  0  0  0  0  0  0  0  0  0
    1.7453  151.2609   55.4521 H   0  0  0  0  0  0  0  0  0  0  0  0
    0.1769  151.0852   53.9966 C   0  0  0  0  0  0  0  0  0  0  0  0
   -0.6085  151.9945   54.6478 O   0  0  0  0  0  0  0  0  0  0  0  0
   -1.5706  151.3832   55.5107 C   0  0  0  0  0  0  0  0  0  0  0  0
   -2.3568  150.8985   54.9216 H   0  0  0  0  0  0  0  0  0  0  0  0
   -2.0232  152.1516   56.1452 H   0  0  0  0  0  0  0  0  0  0  0  0
   -1.1007  150.6365   56.1589 H   0  0  0  0  0  0  0  0  0  0  0  0
   -0.2365  150.4497   52.8142 C   0  0  0  0  0  0  0  0  0  0  0  0
   -1.9589  150.8200   52.0722 Br  0  0  0  0  0  0  0  0  0  0  0  0
    0.6062  149.5164   52.1823 C   0  0  0  0  0  0  0  0  0  0  0  0
    0.3019  149.0136   51.2709 H   0  0  0  0  0  0  0  0  0  0  0  0
    1.8657  149.1929   52.7092 C   0  0  0  0  0  0  0  0  0  0  0  0
    2.6997  148.2688   52.1024 O   0  0  0  0  0  0  0  0  0  0  0  0
    2.0545  147.3051   51.2519 C   0  0  0  0  0  0  0  0  0  0  0  0
    2.7901  146.6100   50.8362 H   0  0  0  0  0  0  0  0  0  0  0  0
    1.3262  146.7316   51.8360 H   0  0  0  0  0  0  0  0  0  0  0  0
    1.5410  147.7938   50.4160 H   0  0  0  0  0  0  0  0  0  0  0  0
    3.8762  145.5078   56.0875 C   0  0  0  0  0  0  0  0  0  0  0  0
    4.0256  146.1944   56.9030 H   0  0  0  0  0  0  0  0  0  0  0  0
    3.7024  144.1822   56.3107 C   0  0  0  0  0  0  0  0  0  0  0  0
    3.7628  143.8010   57.6007 N   0  0  0  0  0  0  0  0  0  0  0  0
    4.1155  144.4915   58.2580 H   0  0  0  0  0  0  0  0  0  0  0  0
    3.9586  142.8235   57.7769 H   0  0  0  0  0  0  0  0  0  0  0  0
    3.4425  143.3026   55.2869 C   0  0  0  0  0  0  0  0  0  0  0  0
    3.2338  141.9173   55.5522 C   0  0  0  0  0  0  0  0  0  0  0  0
    3.0896  140.7804   55.7603 N   0  0  0  0  0  0  0  0  0  0  0  0
    3.4209  143.4471   51.5375 C   0  0  0  0  0  0  0  0  0  0  0  0
    4.3251  144.5453   51.3621 C   0  0  0  0  0  0  0  0  0  0  0  0
    5.0172  145.4823   51.3097 N   0  0  0  0  0  0  0  0  0  0  0  0
    2.9402  142.7566   50.4231 C   0  0  0  0  0  0  0  0  0  0  0  0
    3.3386  142.9864   49.4423 H   0  0  0  0  0  0  0  0  0  0  0  0
  1  2  1  0
  2  3  2  0
  3  4  1  0
  3  5  1  0
  5  6  1  0
  5  7  2  0
  7  8  1  0
  8  9  2  0
  9 10  1  0
 10 11  1  0
 11 12  1  0
 11 13  1  0
 13 14  2  0
 13 15  1  0
 15 16  1  0
 15 17  1  0
 15 18  1  0
 18 19  2  0
 19 20  1  0
 19 21  1  0
 21 22  1  0
 22 23  1  0
 23 24  1  0
 23 25  1  0
 23 26  1  0
 21 27  2  0
 27 28  1  0
 27 29  1  0
 29 30  1  0
 29 31  2  0
 31 32  1  0
 32 33  1  0
 33 34  1  0
 33 35  1  0
 33 36  1  0
 10 37  2  0
 37 38  1  0
 37 39  1  0
 39 40  1  0
 40 41  1  0
 40 42  1  0
 39 43  2  0
 43 44  1  0
 44 45  3  0
  7 46  1  0
 46 47  1  0
 47 48  3  0
 46 49  2  0
 49 50  1  0
 49  2  1  0
 43  8  1  0
 31 18  1  0
M  END
>  <score>  (296) 
7.22107

$$$$

     RDKit          3D

 55 57  0  0  0  0  0  0  0  0999 V2000
    1.0291  142.5044   49.0576 H   0  0  0  0  0  0  0  0  0  0  0  0
    1.7308  143.0084   49.7088 C   0  0  0  0  0  0  0  0  0  0  0  0
    1.6191  142.8815   51.0985 C   0  0  0  0  0  0  0  0  0  0  0  0
    0.8075  142.2786   51.5028 H   0  0  0  0  0  0  0  0  0  0  0  0
    2.5559  143.4855   51.9698 C   0  0  0  0  0  0  0  0  0  0  0  0
    2.4560  143.2490   53.4445 C   0  0  0  0  0  0  0  0  0  0  0  0
    1.6308  142.4001   53.7813 O   0  0  0  0  0  0  0  0  0  0  0  0
    3.1957  143.9889   54.5525 C   0  0  0  0  0  0  0  0  0  0  0  0
    3.6232  145.2598   54.3638 N   0  0  0  0  0  0  0  0  0  0  0  0
    4.1108  145.9422   55.3933 C   0  0  0  0  0  0  0  0  0  0  0  0
    4.5484  147.1531   55.0290 N   0  0  0  0  0  0  0  0  0  0  0  0
    4.8697  147.1055   54.0764 H   0  0  0  0  0  0  0  0  0  0  0  0
    3.7055  148.2080   55.2182 C   0  0  0  0  0  0  0  0  0  0  0  0
    3.0469  148.3175   56.2392 O   0  0  0  0  0  0  0  0  0  0  0  0
    3.6214  149.1997   54.0706 C   0  0  0  0  0  0  0  0  0  0  0  0
    4.2553  150.0490   54.3259 H   0  0  0  0  0  0  0  0  0  0  0  0
    4.0376  148.6964   53.1906 H   0  0  0  0  0  0  0  0  0  0  0  0
    2.2463  149.6815   53.6780 C   0  0  0  0  0  0  0  0  0  0  0  0
    1.5168  150.5033   54.5416 C   0  0  0  0  0  0  0  0  0  0  0  0
    1.9178  150.7599   55.5159 H   0  0  0  0  0  0  0  0  0  0  0  0
    0.2778  151.0321   54.1532 C   0  0  0  0  0  0  0  0  0  0  0  0
   -0.3635  151.9239   54.9719 O   0  0  0  0  0  0  0  0  0  0  0  0
   -1.5640  151.4302   55.5789 C   0  0  0  0  0  0  0  0  0  0  0  0
   -1.3294  150.6081   56.2616 H   0  0  0  0  0  0  0  0  0  0  0  0
   -2.2779  151.0702   54.8287 H   0  0  0  0  0  0  0  0  0  0  0  0
   -2.0339  152.2407   56.1518 H   0  0  0  0  0  0  0  0  0  0  0  0
   -0.2433  150.7210   52.8830 C   0  0  0  0  0  0  0  0  0  0  0  0
   -1.8604  151.5257   52.2252 Br  0  0  0  0  0  0  0  0  0  0  0  0
    0.4826  149.8910   52.0209 C   0  0  0  0  0  0  0  0  0  0  0  0
    0.1031  149.6889   51.0214 H   0  0  0  0  0  0  0  0  0  0  0  0
    1.7259  149.3758   52.4056 C   0  0  0  0  0  0  0  0  0  0  0  0
    2.4761  148.6224   51.5396 O   0  0  0  0  0  0  0  0  0  0  0  0
    1.8131  147.4527   51.0434 C   0  0  0  0  0  0  0  0  0  0  0  0
    2.5642  146.7272   50.7141 H   0  0  0  0  0  0  0  0  0  0  0  0
    1.1928  146.9818   51.8169 H   0  0  0  0  0  0  0  0  0  0  0  0
    1.1824  147.7089   50.1877 H   0  0  0  0  0  0  0  0  0  0  0  0
    4.2577  145.4541   56.6533 C   0  0  0  0  0  0  0  0  0  0  0  0
    4.6909  146.0355   57.4522 H   0  0  0  0  0  0  0  0  0  0  0  0
    3.8785  144.1773   56.8580 C   0  0  0  0  0  0  0  0  0  0  0  0
    4.0309  143.7084   58.1122 N   0  0  0  0  0  0  0  0  0  0  0  0
    4.0192  142.7025   58.2372 H   0  0  0  0  0  0  0  0  0  0  0  0
    4.5230  144.3037   58.7784 H   0  0  0  0  0  0  0  0  0  0  0  0
    3.3646  143.4113   55.8345 C   0  0  0  0  0  0  0  0  0  0  0  0
    3.0555  142.0448   56.1059 C   0  0  0  0  0  0  0  0  0  0  0  0
    2.8847  140.9107   56.2960 N   0  0  0  0  0  0  0  0  0  0  0  0
    3.5894  144.2404   51.3834 C   0  0  0  0  0  0  0  0  0  0  0  0
    4.3551  144.7319   51.9726 H   0  0  0  0  0  0  0  0  0  0  0  0
    3.6916  144.3440   49.9887 C   0  0  0  0  0  0  0  0  0  0  0  0
    4.5092  144.8794   49.5232 H   0  0  0  0  0  0  0  0  0  0  0  0
    2.7751  143.7398   49.1349 C   0  0  0  0  0  0  0  0  0  0  0  0
    2.9650  143.8799   47.7775 O   0  0  0  0  0  0  0  0  0  0  0  0
    1.9053  143.4284   46.9187 C   0  0  0  0  0  0  0  0  0  0  0  0
    2.1488  143.6246   45.8679 H   0  0  0  0  0  0  0  0  0  0  0  0
    0.9790  143.9599   47.1591 H   0  0  0  0  0  0  0  0  0  0  0  0
    1.7432  142.3507   47.0289 H   0  0  0  0  0  0  0  0  0  0  0  0
  1  2  1  0
  2  3  2  0
  3  4  1  0
  3  5  1  0
  5  6  1  0
  6  7  2  0
  6  8  1  0
  8  9  2  0
  9 10  1  0
 10 11  1  0
 11 12  1  0
 11 13  1  0
 13 14  2  0
 13 15  1  0
 15 16  1  0
 15 17  1  0
 15 18  1  0
 18 19  2  0
 19 20  1  0
 19 21  1  0
 21 22  1  0
 22 23  1  0
 23 24  1  0
 23 25  1  0
 23 26  1  0
 21 27  2  0
 27 28  1  0
 27 29  1  0
 29 30  1  0
 29 31  2  0
 31 32  1  0
 32 33  1  0
 33 34  1  0
 33 35  1  0
 33 36  1  0
 10 37  2  0
 37 38  1  0
 37 39  1  0
 39 40  1  0
 40 41  1  0
 40 42  1  0
 39 43  2  0
 43 44  1  0
 44 45  3  0
  5 46  2  0
 46 47  1  0
 46 48  1  0
 48 49  1  0
 48 50  2  0
 50 51  1  0
 51 52  1  0
 52 53  1  0
 52 54  1  0
 52 55  1  0
 50  2  1  0
 43  8  1  0
 31 18  1  0
M  END
>  <score>  (297) 
7.22206

$$$$

     RDKit          3D

 53 55  0  0  0  0  0  0  0  0999 V2000
    0.1314  141.1764   52.2299 H   0  0  0  0  0  0  0  0  0  0  0  0
    1.0901  141.6708   52.1120 C   0  0  0  0  0  0  0  0  0  0  0  0
    1.6758  141.7200   50.8614 C   0  0  0  0  0  0  0  0  0  0  0  0
    1.1764  141.1993   50.0540 H   0  0  0  0  0  0  0  0  0  0  0  0
    2.8707  142.4280   50.6448 C   0  0  0  0  0  0  0  0  0  0  0  0
    3.4028  142.5397   49.3766 O   0  0  0  0  0  0  0  0  0  0  0  0
    2.7229  141.7930   48.3459 C   0  0  0  0  0  0  0  0  0  0  0  0
    3.2583  142.0616   47.1240 F   0  0  0  0  0  0  0  0  0  0  0  0
    2.8343  140.4595   48.5956 F   0  0  0  0  0  0  0  0  0  0  0  0
    1.4045  142.1323   48.3006 F   0  0  0  0  0  0  0  0  0  0  0  0
    3.4792  143.0698   51.7477 C   0  0  0  0  0  0  0  0  0  0  0  0
    4.3996  143.6304   51.6013 H   0  0  0  0  0  0  0  0  0  0  0  0
    2.9265  142.9700   53.0453 C   0  0  0  0  0  0  0  0  0  0  0  0
    3.4031  143.7559   54.2037 C   0  0  0  0  0  0  0  0  0  0  0  0
    3.6021  145.0480   53.9485 N   0  0  0  0  0  0  0  0  0  0  0  0
    3.8050  145.8692   54.9455 C   0  0  0  0  0  0  0  0  0  0  0  0
    3.8024  147.1268   54.4781 N   0  0  0  0  0  0  0  0  0  0  0  0
    3.6099  147.2093   53.4924 H   0  0  0  0  0  0  0  0  0  0  0  0
    3.7037  148.2434   55.2428 C   0  0  0  0  0  0  0  0  0  0  0  0
    3.7900  148.1763   56.4551 O   0  0  0  0  0  0  0  0  0  0  0  0
    3.6381  149.5799   54.5293 C   0  0  0  0  0  0  0  0  0  0  0  0
    3.8202  150.3919   55.2341 H   0  0  0  0  0  0  0  0  0  0  0  0
    4.4281  149.5974   53.7825 H   0  0  0  0  0  0  0  0  0  0  0  0
    2.3045  149.8282   53.8832 C   0  0  0  0  0  0  0  0  0  0  0  0
    1.4682  150.7192   54.5517 C   0  0  0  0  0  0  0  0  0  0  0  0
    1.7880  151.1520   55.4943 H   0  0  0  0  0  0  0  0  0  0  0  0
    0.2313  151.0737   54.0278 C   0  0  0  0  0  0  0  0  0  0  0  0
   -0.5187  151.9994   54.6982 O   0  0  0  0  0  0  0  0  0  0  0  0
   -1.5056  151.3995   55.5384 C   0  0  0  0  0  0  0  0  0  0  0  0
   -2.2672  150.9003   54.9345 H   0  0  0  0  0  0  0  0  0  0  0  0
   -1.0455  150.6621   56.2002 H   0  0  0  0  0  0  0  0  0  0  0  0
   -1.9930  152.1633   56.1522 H   0  0  0  0  0  0  0  0  0  0  0  0
   -0.2169  150.4688   52.8440 C   0  0  0  0  0  0  0  0  0  0  0  0
   -1.9532  150.8735   52.1474 Br  0  0  0  0  0  0  0  0  0  0  0  0
    0.6030  149.5467   52.1793 C   0  0  0  0  0  0  0  0  0  0  0  0
    0.2370  149.0787   51.2707 H   0  0  0  0  0  0  0  0  0  0  0  0
    1.8807  149.2255   52.6760 C   0  0  0  0  0  0  0  0  0  0  0  0
    2.7120  148.3408   52.0239 O   0  0  0  0  0  0  0  0  0  0  0  0
    2.0721  147.3095   51.2497 C   0  0  0  0  0  0  0  0  0  0  0  0
    1.5322  147.7227   50.3923 H   0  0  0  0  0  0  0  0  0  0  0  0
    1.3627  146.7504   51.8657 H   0  0  0  0  0  0  0  0  0  0  0  0
    2.8209  146.6039   50.8757 H   0  0  0  0  0  0  0  0  0  0  0  0
    3.8993  145.4929   56.2508 C   0  0  0  0  0  0  0  0  0  0  0  0
    4.1055  146.2202   57.0209 H   0  0  0  0  0  0  0  0  0  0  0  0
    3.7198  144.1703   56.5148 C   0  0  0  0  0  0  0  0  0  0  0  0
    3.8319  143.7990   57.8020 N   0  0  0  0  0  0  0  0  0  0  0  0
    4.2906  144.4710   58.4148 H   0  0  0  0  0  0  0  0  0  0  0  0
    3.9977  142.8063   57.9501 H   0  0  0  0  0  0  0  0  0  0  0  0
    3.4403  143.2665   55.5110 C   0  0  0  0  0  0  0  0  0  0  0  0
    3.1911  141.8932   55.8084 C   0  0  0  0  0  0  0  0  0  0  0  0
    3.0037  140.7693   56.0459 N   0  0  0  0  0  0  0  0  0  0  0  0
    1.7352  142.2668   53.1893 C   0  0  0  0  0  0  0  0  0  0  0  0
    1.2890  142.2418   54.1658 H   0  0  0  0  0  0  0  0  0  0  0  0
  1  2  1  0
  2  3  2  0
  3  4  1  0
  3  5  1  0
  5  6  1  0
  6  7  1  0
  7  8  1  0
  7  9  1  0
  7 10  1  0
  5 11  2  0
 11 12  1  0
 11 13  1  0
 13 14  1  0
 14 15  2  0
 15 16  1  0
 16 17  1  0
 17 18  1  0
 17 19  1  0
 19 20  2  0
 19 21  1  0
 21 22  1  0
 21 23  1  0
 21 24  1  0
 24 25  2  0
 25 26  1  0
 25 27  1  0
 27 28  1  0
 28 29  1  0
 29 30  1  0
 29 31  1  0
 29 32  1  0
 27 33  2  0
 33 34  1  0
 33 35  1  0
 35 36  1  0
 35 37  2  0
 37 38  1  0
 38 39  1  0
 39 40  1  0
 39 41  1  0
 39 42  1  0
 16 43  2  0
 43 44  1  0
 43 45  1  0
 45 46  1  0
 46 47  1  0
 46 48  1  0
 45 49  2  0
 49 50  1  0
 50 51  3  0
 13 52  2  0
 52 53  1  0
 52  2  1  0
 49 14  1  0
 37 24  1  0
M  END
>  <score>  (298) 
7.22256

$$$$

     RDKit          3D

 58 60  0  0  0  0  0  0  0  0999 V2000
    0.3013  149.1959   51.2454 H   0  0  0  0  0  0  0  0  0  0  0  0
    0.6525  149.5985   52.1918 C   0  0  0  0  0  0  0  0  0  0  0  0
   -0.1498  150.4966   52.9284 C   0  0  0  0  0  0  0  0  0  0  0  0
   -1.8798  150.9838   52.2733 Br  0  0  0  0  0  0  0  0  0  0  0  0
    0.3266  151.0562   54.1277 C   0  0  0  0  0  0  0  0  0  0  0  0
   -0.3817  151.9765   54.8547 O   0  0  0  0  0  0  0  0  0  0  0  0
   -1.4263  151.4046   55.6434 C   0  0  0  0  0  0  0  0  0  0  0  0
   -1.9424  152.2005   56.1883 H   0  0  0  0  0  0  0  0  0  0  0  0
   -1.0129  150.7007   56.3667 H   0  0  0  0  0  0  0  0  0  0  0  0
   -2.1510  150.8774   55.0162 H   0  0  0  0  0  0  0  0  0  0  0  0
    1.5890  150.6937   54.5750 C   0  0  0  0  0  0  0  0  0  0  0  0
    1.9840  151.1465   55.4781 H   0  0  0  0  0  0  0  0  0  0  0  0
    2.3753  149.7914   53.8581 C   0  0  0  0  0  0  0  0  0  0  0  0
    3.7249  149.4938   54.4032 C   0  0  0  0  0  0  0  0  0  0  0  0
    3.9969  150.3658   54.9782 H   0  0  0  0  0  0  0  0  0  0  0  0
    4.4173  149.3767   53.5690 H   0  0  0  0  0  0  0  0  0  0  0  0
    3.7596  148.2489   55.2837 C   0  0  0  0  0  0  0  0  0  0  0  0
    3.8547  148.3196   56.4970 O   0  0  0  0  0  0  0  0  0  0  0  0
    3.7578  147.0364   54.6725 N   0  0  0  0  0  0  0  0  0  0  0  0
    3.5221  146.9778   53.6947 H   0  0  0  0  0  0  0  0  0  0  0  0
    3.6549  145.8488   55.2721 C   0  0  0  0  0  0  0  0  0  0  0  0
    3.2265  145.0367   54.3383 N   0  0  0  0  0  0  0  0  0  0  0  0
    2.9912  143.7444   54.6016 C   0  0  0  0  0  0  0  0  0  0  0  0
    2.2896  142.9578   53.5142 C   0  0  0  0  0  0  0  0  0  0  0  0
    1.2705  142.3336   53.7726 O   0  0  0  0  0  0  0  0  0  0  0  0
    2.5574  143.0878   52.1468 N   0  0  0  0  0  0  0  0  0  0  0  0
    1.6194  142.6329   51.1189 C   0  0  0  0  0  0  0  0  0  0  0  0
    1.3140  143.5173   50.5532 H   0  0  0  0  0  0  0  0  0  0  0  0
    0.7330  142.1901   51.5861 H   0  0  0  0  0  0  0  0  0  0  0  0
    2.2300  141.6099   50.1420 C   0  0  0  0  0  0  0  0  0  0  0  0
    2.0126  140.6128   50.5222 H   0  0  0  0  0  0  0  0  0  0  0  0
    1.7267  141.7097   49.1770 H   0  0  0  0  0  0  0  0  0  0  0  0
    3.6901  141.7704   49.9481 N   0  0  0  0  0  0  0  0  0  0  0  0
    4.5211  140.7025   50.5397 C   0  0  0  0  0  0  0  0  0  0  0  0
    4.3472  140.6442   51.6180 H   0  0  0  0  0  0  0  0  0  0  0  0
    5.5835  140.8987   50.3700 H   0  0  0  0  0  0  0  0  0  0  0  0
    4.2797  139.7350   50.0933 H   0  0  0  0  0  0  0  0  0  0  0  0
    4.1685  143.1317   50.2555 C   0  0  0  0  0  0  0  0  0  0  0  0
    5.2400  143.1694   50.0802 H   0  0  0  0  0  0  0  0  0  0  0  0
    3.6809  143.8623   49.6018 H   0  0  0  0  0  0  0  0  0  0  0  0
    3.8888  143.4768   51.7242 C   0  0  0  0  0  0  0  0  0  0  0  0
    4.5680  142.8851   52.3290 H   0  0  0  0  0  0  0  0  0  0  0  0
    4.0583  144.5430   51.9047 H   0  0  0  0  0  0  0  0  0  0  0  0
    3.3110  143.2528   55.8789 C   0  0  0  0  0  0  0  0  0  0  0  0
    3.1579  141.8680   56.2074 C   0  0  0  0  0  0  0  0  0  0  0  0
    3.0440  140.7401   56.4599 N   0  0  0  0  0  0  0  0  0  0  0  0
    3.7883  144.1491   56.8249 C   0  0  0  0  0  0  0  0  0  0  0  0
    4.1449  143.7392   58.0603 N   0  0  0  0  0  0  0  0  0  0  0  0
    4.5085  144.4229   58.7164 H   0  0  0  0  0  0  0  0  0  0  0  0
    4.0703  142.7576   58.3137 H   0  0  0  0  0  0  0  0  0  0  0  0
    3.9382  145.4821   56.5568 C   0  0  0  0  0  0  0  0  0  0  0  0
    4.3225  146.1640   57.3076 H   0  0  0  0  0  0  0  0  0  0  0  0
    1.9283  149.2360   52.6510 C   0  0  0  0  0  0  0  0  0  0  0  0
    2.7735  148.4030   51.9524 O   0  0  0  0  0  0  0  0  0  0  0  0
    2.1630  147.2982   51.2805 C   0  0  0  0  0  0  0  0  0  0  0  0
    1.4941  146.7556   51.9579 H   0  0  0  0  0  0  0  0  0  0  0  0
    2.9467  146.6112   50.9433 H   0  0  0  0  0  0  0  0  0  0  0  0
    1.5970  147.6434   50.4104 H   0  0  0  0  0  0  0  0  0  0  0  0
  1  2  1  0
  2  3  2  0
  3  4  1  0
  3  5  1  0
  5  6  1  0
  6  7  1  0
  7  8  1  0
  7  9  1  0
  7 10  1  0
  5 11  2  0
 11 12  1  0
 11 13  1  0
 13 14  1  0
 14 15  1  0
 14 16  1  0
 14 17  1  0
 17 18  2  0
 17 19  1  0
 19 20  1  0
 19 21  1  0
 21 22  2  0
 22 23  1  0
 23 24  1  0
 24 25  2  0
 24 26  1  0
 26 27  1  0
 27 28  1  0
 27 29  1  0
 27 30  1  0
 30 31  1  0
 30 32  1  0
 30 33  1  0
 33 34  1  0
 34 35  1  0
 34 36  1  0
 34 37  1  0
 33 38  1  0
 38 39  1  0
 38 40  1  0
 38 41  1  0
 41 42  1  0
 41 43  1  0
 23 44  2  0
 44 45  1  0
 45 46  3  0
 44 47  1  0
 47 48  1  0
 48 49  1  0
 48 50  1  0
 47 51  2  0
 51 52  1  0
 13 53  2  0
 53 54  1  0
 54 55  1  0
 55 56  1  0
 55 57  1  0
 55 58  1  0
 53  2  1  0
 51 21  1  0
 41 26  1  0
M  END
>  <score>  (299) 
7.22549

$$$$

     RDKit          3D

 55 57  0  0  0  0  0  0  0  0999 V2000
    4.0000  140.4822   50.2364 H   0  0  0  0  0  0  0  0  0  0  0  0
    3.8987  140.4732   51.2041 O   0  0  0  0  0  0  0  0  0  0  0  0
    3.1587  141.6167   51.6514 C   0  0  2  0  0  0  0  0  0  0  0  0
    3.6688  142.5222   51.3099 H   0  0  0  0  0  0  0  0  0  0  0  0
    3.1042  141.6575   53.1984 C   0  0  0  0  0  0  0  0  0  0  0  0
    4.1239  141.7287   53.5709 H   0  0  0  0  0  0  0  0  0  0  0  0
    2.6954  140.7172   53.5759 H   0  0  0  0  0  0  0  0  0  0  0  0
    2.2976  142.8046   53.6908 N   0  0  0  0  0  0  0  0  0  0  0  0
    2.8398  143.6693   54.6374 C   0  0  0  0  0  0  0  0  0  0  0  0
    2.9685  144.9360   54.2775 N   0  0  0  0  0  0  0  0  0  0  0  0
    3.5033  145.7513   55.1444 C   0  0  0  0  0  0  0  0  0  0  0  0
    3.6665  146.9210   54.5346 N   0  0  0  0  0  0  0  0  0  0  0  0
    3.3676  146.9059   53.5686 H   0  0  0  0  0  0  0  0  0  0  0  0
    3.7258  148.1089   55.1917 C   0  0  0  0  0  0  0  0  0  0  0  0
    3.8012  148.1396   56.4046 O   0  0  0  0  0  0  0  0  0  0  0  0
    3.6830  149.4188   54.4253 C   0  0  0  0  0  0  0  0  0  0  0  0
    4.4118  149.4102   53.6154 H   0  0  0  0  0  0  0  0  0  0  0  0
    3.9532  150.2014   55.1213 H   0  0  0  0  0  0  0  0  0  0  0  0
    2.3297  149.7506   53.8776 C   0  0  0  0  0  0  0  0  0  0  0  0
    1.5561  150.6706   54.5806 C   0  0  0  0  0  0  0  0  0  0  0  0
    1.9360  151.1270   55.4969 H   0  0  0  0  0  0  0  0  0  0  0  0
    0.3051  151.0307   54.0958 C   0  0  0  0  0  0  0  0  0  0  0  0
   -0.3853  151.9745   54.7990 O   0  0  0  0  0  0  0  0  0  0  0  0
   -1.4187  151.4047   55.5990 C   0  0  0  0  0  0  0  0  0  0  0  0
   -2.1446  150.8882   54.9667 H   0  0  0  0  0  0  0  0  0  0  0  0
   -1.9296  152.1950   56.1570 H   0  0  0  0  0  0  0  0  0  0  0  0
   -1.0036  150.6847   56.3076 H   0  0  0  0  0  0  0  0  0  0  0  0
   -0.1895  150.4692   52.9008 C   0  0  0  0  0  0  0  0  0  0  0  0
   -1.9261  150.9779   52.2631 Br  0  0  0  0  0  0  0  0  0  0  0  0
    0.6115  149.5667   52.1787 C   0  0  0  0  0  0  0  0  0  0  0  0
    0.2816  149.1676   51.2256 H   0  0  0  0  0  0  0  0  0  0  0  0
    1.8823  149.2132   52.6602 C   0  0  0  0  0  0  0  0  0  0  0  0
    2.7522  148.4065   51.9682 O   0  0  0  0  0  0  0  0  0  0  0  0
    2.1416  147.3159   51.2779 C   0  0  0  0  0  0  0  0  0  0  0  0
    2.9073  146.6049   50.9553 H   0  0  0  0  0  0  0  0  0  0  0  0
    1.5976  147.6665   50.3963 H   0  0  0  0  0  0  0  0  0  0  0  0
    1.4472  146.7955   51.9439 H   0  0  0  0  0  0  0  0  0  0  0  0
    3.8693  145.4265   56.4225 C   0  0  0  0  0  0  0  0  0  0  0  0
    4.2763  146.1290   57.1384 H   0  0  0  0  0  0  0  0  0  0  0  0
    3.7424  144.1151   56.7490 C   0  0  0  0  0  0  0  0  0  0  0  0
    4.1529  143.7540   57.9745 N   0  0  0  0  0  0  0  0  0  0  0  0
    4.0655  142.7854   58.2584 H   0  0  0  0  0  0  0  0  0  0  0  0
    4.4612  144.4661   58.6313 H   0  0  0  0  0  0  0  0  0  0  0  0
    3.2478  143.1964   55.8601 C   0  0  0  0  0  0  0  0  0  0  0  0
    3.1453  141.8045   56.1622 C   0  0  0  0  0  0  0  0  0  0  0  0
    3.0793  140.6709   56.4103 N   0  0  0  0  0  0  0  0  0  0  0  0
    1.2017  143.2779   52.8278 C   0  0  0  0  0  0  0  0  0  0  0  0
    1.5606  144.0855   52.1898 H   0  0  0  0  0  0  0  0  0  0  0  0
    0.3821  143.6695   53.4319 H   0  0  0  0  0  0  0  0  0  0  0  0
    0.6794  142.1237   51.9611 C   0  0  0  0  0  0  0  0  0  0  0  0
    0.3824  141.3062   52.6112 H   0  0  0  0  0  0  0  0  0  0  0  0
   -0.2060  142.4307   51.3981 H   0  0  0  0  0  0  0  0  0  0  0  0
    1.7575  141.5833   51.0136 C   0  0  0  0  0  0  0  0  0  0  0  0
    1.4967  140.5634   50.7271 H   0  0  0  0  0  0  0  0  0  0  0  0
    1.7678  142.1729   50.0947 H   0  0  0  0  0  0  0  0  0  0  0  0
  1  2  1  0
  2  3  1  0
  3  4  1  6
  3  5  1  0
  5  6  1  0
  5  7  1  0
  5  8  1  0
  8  9  1  0
  9 10  2  0
 10 11  1  0
 11 12  1  0
 12 13  1  0
 12 14  1  0
 14 15  2  0
 14 16  1  0
 16 17  1  0
 16 18  1  0
 16 19  1  0
 19 20  2  0
 20 21  1  0
 20 22  1  0
 22 23  1  0
 23 24  1  0
 24 25  1  0
 24 26  1  0
 24 27  1  0
 22 28  2  0
 28 29  1  0
 28 30  1  0
 30 31  1  0
 30 32  2  0
 32 33  1  0
 33 34  1  0
 34 35  1  0
 34 36  1  0
 34 37  1  0
 11 38  2  0
 38 39  1  0
 38 40  1  0
 40 41  1  0
 41 42  1  0
 41 43  1  0
 40 44  2  0
 44 45  1  0
 45 46  3  0
  8 47  1  0
 47 48  1  0
 47 49  1  0
 47 50  1  0
 50 51  1  0
 50 52  1  0
 50 53  1  0
 53 54  1  0
 53 55  1  0
 53  3  1  0
 44  9  1  0
 32 19  1  0
M  END
>  <score>  (300) 
7.22736

$$$$

     RDKit          3D

 57 58  0  0  0  0  0  0  0  0999 V2000
    0.2941  149.0833   51.2580 H   0  0  0  0  0  0  0  0  0  0  0  0
    0.6237  149.5267   52.1928 C   0  0  0  0  0  0  0  0  0  0  0  0
   -0.2038  150.4468   52.8581 C   0  0  0  0  0  0  0  0  0  0  0  0
   -1.9285  150.8828   52.1380 Br  0  0  0  0  0  0  0  0  0  0  0  0
    0.2452  151.0499   54.0445 C   0  0  0  0  0  0  0  0  0  0  0  0
   -0.5021  151.9829   54.7115 O   0  0  0  0  0  0  0  0  0  0  0  0
   -1.5032  151.3898   55.5388 C   0  0  0  0  0  0  0  0  0  0  0  0
   -2.2626  150.9009   54.9216 H   0  0  0  0  0  0  0  0  0  0  0  0
   -1.0571  150.6471   56.2056 H   0  0  0  0  0  0  0  0  0  0  0  0
   -1.9840  152.1613   56.1480 H   0  0  0  0  0  0  0  0  0  0  0  0
    1.4868  150.6926   54.5659 C   0  0  0  0  0  0  0  0  0  0  0  0
    1.8115  151.1553   55.4913 H   0  0  0  0  0  0  0  0  0  0  0  0
    2.3057  149.7621   53.9214 C   0  0  0  0  0  0  0  0  0  0  0  0
    3.6257  149.4402   54.5681 C   0  0  0  0  0  0  0  0  0  0  0  0
    3.8399  150.2009   55.3113 H   0  0  0  0  0  0  0  0  0  0  0  0
    4.4167  149.4619   53.8187 H   0  0  0  0  0  0  0  0  0  0  0  0
    3.6333  148.1024   55.2823 C   0  0  0  0  0  0  0  0  0  0  0  0
    3.7488  148.0707   56.4987 O   0  0  0  0  0  0  0  0  0  0  0  0
    3.6086  146.9579   54.5556 N   0  0  0  0  0  0  0  0  0  0  0  0
    3.3520  146.9980   53.5788 H   0  0  0  0  0  0  0  0  0  0  0  0
    3.5715  145.7211   55.0731 C   0  0  0  0  0  0  0  0  0  0  0  0
    3.0777  144.9047   54.1829 N   0  0  0  0  0  0  0  0  0  0  0  0
    2.9603  143.6224   54.5066 C   0  0  0  0  0  0  0  0  0  0  0  0
    2.2792  142.7672   53.4771 C   0  0  0  0  0  0  0  0  0  0  0  0
    1.5777  142.1313   54.0090 H   0  0  0  0  0  0  0  0  0  0  0  0
    1.6934  143.4182   52.8106 H   0  0  0  0  0  0  0  0  0  0  0  0
    3.2606  141.8991   52.6593 C   0  0  0  0  0  0  0  0  0  0  0  0
    2.7231  141.0490   52.2164 H   0  0  0  0  0  0  0  0  0  0  0  0
    4.0490  141.4919   53.3089 H   0  0  0  0  0  0  0  0  0  0  0  0
    3.8880  142.7533   51.5517 C   0  0  0  0  0  0  0  0  0  0  0  0
    3.1239  143.0469   50.8245 H   0  0  0  0  0  0  0  0  0  0  0  0
    4.2736  143.6754   52.0005 H   0  0  0  0  0  0  0  0  0  0  0  0
    5.0342  142.0109   50.8546 C   0  0  0  0  0  0  0  0  0  0  0  0
    5.5662  141.4034   51.5984 H   0  0  0  0  0  0  0  0  0  0  0  0
    5.7280  142.7563   50.4533 H   0  0  0  0  0  0  0  0  0  0  0  0
    4.5665  141.1289   49.6988 C   0  0  0  0  0  0  0  0  0  0  0  0
    3.9942  141.7312   48.9852 H   0  0  0  0  0  0  0  0  0  0  0  0
    3.9211  140.3310   50.0748 H   0  0  0  0  0  0  0  0  0  0  0  0
    5.7838  140.5285   48.9985 C   0  0  0  0  0  0  0  0  0  0  0  0
    5.4838  140.0207   48.0776 H   0  0  0  0  0  0  0  0  0  0  0  0
    6.2777  139.8080   49.6577 H   0  0  0  0  0  0  0  0  0  0  0  0
    6.5008  141.3152   48.7438 H   0  0  0  0  0  0  0  0  0  0  0  0
    3.3769  143.1235   55.7400 C   0  0  0  0  0  0  0  0  0  0  0  0
    3.2860  141.7334   56.0330 C   0  0  0  0  0  0  0  0  0  0  0  0
    3.2120  140.5803   56.1808 N   0  0  0  0  0  0  0  0  0  0  0  0
    3.8803  144.0293   56.6440 C   0  0  0  0  0  0  0  0  0  0  0  0
    4.2655  143.7247   57.9041 N   0  0  0  0  0  0  0  0  0  0  0  0
    4.1686  144.4961   58.5635 H   0  0  0  0  0  0  0  0  0  0  0  0
    4.1736  142.7653   58.2397 H   0  0  0  0  0  0  0  0  0  0  0  0
    3.9555  145.3512   56.3302 C   0  0  0  0  0  0  0  0  0  0  0  0
    4.3230  146.0715   57.0404 H   0  0  0  0  0  0  0  0  0  0  0  0
    1.8843  149.1753   52.7116 C   0  0  0  0  0  0  0  0  0  0  0  0
    2.7165  148.2881   52.0665 O   0  0  0  0  0  0  0  0  0  0  0  0
    2.0695  147.2997   51.2530 C   0  0  0  0  0  0  0  0  0  0  0  0
    2.8099  146.5963   50.8591 H   0  0  0  0  0  0  0  0  0  0  0  0
    1.5494  147.7610   50.4071 H   0  0  0  0  0  0  0  0  0  0  0  0
    1.3474  146.7393   51.8549 H   0  0  0  0  0  0  0  0  0  0  0  0
  1  2  1  0
  2  3  2  0
  3  4  1  0
  3  5  1  0
  5  6  1  0
  6  7  1  0
  7  8  1  0
  7  9  1  0
  7 10  1  0
  5 11  2  0
 11 12  1  0
 11 13  1  0
 13 14  1  0
 14 15  1  0
 14 16  1  0
 14 17  1  0
 17 18  2  0
 17 19  1  0
 19 20  1  0
 19 21  1  0
 21 22  2  0
 22 23  1  0
 23 24  1  0
 24 25  1  0
 24 26  1  0
 24 27  1  0
 27 28  1  0
 27 29  1  0
 27 30  1  0
 30 31  1  0
 30 32  1  0
 30 33  1  0
 33 34  1  0
 33 35  1  0
 33 36  1  0
 36 37  1  0
 36 38  1  0
 36 39  1  0
 39 40  1  0
 39 41  1  0
 39 42  1  0
 23 43  2  0
 43 44  1  0
 44 45  3  0
 43 46  1  0
 46 47  1  0
 47 48  1  0
 47 49  1  0
 46 50  2  0
 50 51  1  0
 13 52  2  0
 52 53  1  0
 53 54  1  0
 54 55  1  0
 54 56  1  0
 54 57  1  0
 52  2  1  0
 50 21  1  0
M  END
>  <score>  (301) 
7.22873

$$$$

     RDKit          3D

 56 58  0  0  0  0  0  0  0  0999 V2000
    0.3059  149.1991   51.2499 H   0  0  0  0  0  0  0  0  0  0  0  0
    0.6552  149.6020   52.1944 C   0  0  0  0  0  0  0  0  0  0  0  0
   -0.1462  150.4974   52.9319 C   0  0  0  0  0  0  0  0  0  0  0  0
   -1.8751  150.9848   52.2762 Br  0  0  0  0  0  0  0  0  0  0  0  0
    0.3301  151.0560   54.1304 C   0  0  0  0  0  0  0  0  0  0  0  0
   -0.3800  151.9763   54.8564 O   0  0  0  0  0  0  0  0  0  0  0  0
   -1.4260  151.4040   55.6452 C   0  0  0  0  0  0  0  0  0  0  0  0
   -1.9406  152.2009   56.1886 H   0  0  0  0  0  0  0  0  0  0  0  0
   -1.0126  150.7015   56.3693 H   0  0  0  0  0  0  0  0  0  0  0  0
   -2.1515  150.8761   55.0188 H   0  0  0  0  0  0  0  0  0  0  0  0
    1.5915  150.6908   54.5758 C   0  0  0  0  0  0  0  0  0  0  0  0
    1.9893  151.1422   55.4762 H   0  0  0  0  0  0  0  0  0  0  0  0
    2.3769  149.7897   53.8576 C   0  0  0  0  0  0  0  0  0  0  0  0
    3.7248  149.4923   54.4008 C   0  0  0  0  0  0  0  0  0  0  0  0
    3.9932  150.3736   54.9737 H   0  0  0  0  0  0  0  0  0  0  0  0
    4.4142  149.3724   53.5647 H   0  0  0  0  0  0  0  0  0  0  0  0
    3.7550  148.2523   55.2851 C   0  0  0  0  0  0  0  0  0  0  0  0
    3.8537  148.3186   56.4971 O   0  0  0  0  0  0  0  0  0  0  0  0
    3.7528  147.0408   54.6741 N   0  0  0  0  0  0  0  0  0  0  0  0
    3.5267  146.9817   53.6921 H   0  0  0  0  0  0  0  0  0  0  0  0
    3.6458  145.8525   55.2726 C   0  0  0  0  0  0  0  0  0  0  0  0
    3.2328  145.0363   54.3330 N   0  0  0  0  0  0  0  0  0  0  0  0
    3.0126  143.7389   54.5909 C   0  0  0  0  0  0  0  0  0  0  0  0
    2.3099  142.9407   53.5128 C   0  0  0  0  0  0  0  0  0  0  0  0
    1.2884  142.3332   53.7894 O   0  0  0  0  0  0  0  0  0  0  0  0
    2.5484  143.0781   52.1466 N   0  0  0  0  0  0  0  0  0  0  0  0
    1.5422  142.7040   51.1547 C   0  0  0  0  0  0  0  0  0  0  0  0
    0.6568  142.2974   51.6538 H   0  0  0  0  0  0  0  0  0  0  0  0
    1.2512  143.6092   50.6118 H   0  0  0  0  0  0  0  0  0  0  0  0
    2.0683  141.6662   50.1568 C   0  0  0  0  0  0  0  0  0  0  0  0
    1.4497  141.7119   49.2549 H   0  0  0  0  0  0  0  0  0  0  0  0
    1.9572  140.6717   50.5895 H   0  0  0  0  0  0  0  0  0  0  0  0
    3.5384  141.8810   49.7647 C   0  0  0  0  0  0  0  0  0  0  0  0
    3.6583  141.7719   48.6839 H   0  0  0  0  0  0  0  0  0  0  0  0
    4.1492  141.1105   50.2472 H   0  0  0  0  0  0  0  0  0  0  0  0
    4.0432  143.2528   50.2020 C   0  0  0  0  0  0  0  0  0  0  0  0
    5.1013  143.2968   49.9673 H   0  0  0  0  0  0  0  0  0  0  0  0
    3.5139  144.0408   49.6565 H   0  0  0  0  0  0  0  0  0  0  0  0
    3.8682  143.4633   51.7049 C   0  0  0  0  0  0  0  0  0  0  0  0
    4.5645  142.7997   52.2181 H   0  0  0  0  0  0  0  0  0  0  0  0
    4.0828  144.5084   51.9678 H   0  0  0  0  0  0  0  0  0  0  0  0
    3.3207  143.2520   55.8723 C   0  0  0  0  0  0  0  0  0  0  0  0
    3.1578  141.8725   56.2030 C   0  0  0  0  0  0  0  0  0  0  0  0
    3.0421  140.7432   56.4582 N   0  0  0  0  0  0  0  0  0  0  0  0
    3.7864  144.1492   56.8239 C   0  0  0  0  0  0  0  0  0  0  0  0
    4.1435  143.7357   58.0565 N   0  0  0  0  0  0  0  0  0  0  0  0
    4.5065  144.4223   58.7062 H   0  0  0  0  0  0  0  0  0  0  0  0
    4.0683  142.7548   58.3096 H   0  0  0  0  0  0  0  0  0  0  0  0
    3.9315  145.4828   56.5570 C   0  0  0  0  0  0  0  0  0  0  0  0
    4.3247  146.1604   57.3039 H   0  0  0  0  0  0  0  0  0  0  0  0
    1.9304  149.2363   52.6499 C   0  0  0  0  0  0  0  0  0  0  0  0
    2.7757  148.4030   51.9493 O   0  0  0  0  0  0  0  0  0  0  0  0
    2.1647  147.2962   51.2805 C   0  0  0  0  0  0  0  0  0  0  0  0
    1.4888  146.7597   51.9559 H   0  0  0  0  0  0  0  0  0  0  0  0
    2.9487  146.6058   50.9533 H   0  0  0  0  0  0  0  0  0  0  0  0
    1.6056  147.6395   50.4050 H   0  0  0  0  0  0  0  0  0  0  0  0
  1  2  1  0
  2  3  2  0
  3  4  1  0
  3  5  1  0
  5  6  1  0
  6  7  1  0
  7  8  1  0
  7  9  1  0
  7 10  1  0
  5 11  2  0
 11 12  1  0
 11 13  1  0
 13 14  1  0
 14 15  1  0
 14 16  1  0
 14 17  1  0
 17 18  2  0
 17 19  1  0
 19 20  1  0
 19 21  1  0
 21 22  2  0
 22 23  1  0
 23 24  1  0
 24 25  2  0
 24 26  1  0
 26 27  1  0
 27 28  1  0
 27 29  1  0
 27 30  1  0
 30 31  1  0
 30 32  1  0
 30 33  1  0
 33 34  1  0
 33 35  1  0
 33 36  1  0
 36 37  1  0
 36 38  1  0
 36 39  1  0
 39 40  1  0
 39 41  1  0
 23 42  2  0
 42 43  1  0
 43 44  3  0
 42 45  1  0
 45 46  1  0
 46 47  1  0
 46 48  1  0
 45 49  2  0
 49 50  1  0
 13 51  2  0
 51 52  1  0
 52 53  1  0
 53 54  1  0
 53 55  1  0
 53 56  1  0
 51  2  1  0
 49 21  1  0
 39 26  1  0
M  END
>  <score>  (302) 
7.2314

$$$$

     RDKit          3D

 55 58  0  0  0  0  0  0  0  0999 V2000
    0.2473  149.0504   51.2745 H   0  0  0  0  0  0  0  0  0  0  0  0
    0.5929  149.5333   52.1836 C   0  0  0  0  0  0  0  0  0  0  0  0
   -0.2391  150.4586   52.8342 C   0  0  0  0  0  0  0  0  0  0  0  0
   -1.9735  150.8506   52.1221 Br  0  0  0  0  0  0  0  0  0  0  0  0
    0.1995  151.0822   54.0127 C   0  0  0  0  0  0  0  0  0  0  0  0
   -0.5584  152.0086   54.6723 O   0  0  0  0  0  0  0  0  0  0  0  0
   -1.5256  151.3948   55.5235 C   0  0  0  0  0  0  0  0  0  0  0  0
   -2.0012  152.1560   56.1468 H   0  0  0  0  0  0  0  0  0  0  0  0
   -1.0561  150.6554   56.1800 H   0  0  0  0  0  0  0  0  0  0  0  0
   -2.2936  150.8992   54.9223 H   0  0  0  0  0  0  0  0  0  0  0  0
    1.4389  150.7464   54.5413 C   0  0  0  0  0  0  0  0  0  0  0  0
    1.7539  151.2017   55.4760 H   0  0  0  0  0  0  0  0  0  0  0  0
    2.2867  149.8540   53.8862 C   0  0  0  0  0  0  0  0  0  0  0  0
    3.6261  149.6587   54.5381 C   0  0  0  0  0  0  0  0  0  0  0  0
    4.4204  149.6567   53.7866 H   0  0  0  0  0  0  0  0  0  0  0  0
    3.7770  150.5031   55.2101 H   0  0  0  0  0  0  0  0  0  0  0  0
    3.7160  148.3764   55.3435 C   0  0  0  0  0  0  0  0  0  0  0  0
    3.7943  148.3766   56.5592 O   0  0  0  0  0  0  0  0  0  0  0  0
    3.9208  147.2332   54.6560 N   0  0  0  0  0  0  0  0  0  0  0  0
    3.7162  147.2146   53.6686 H   0  0  0  0  0  0  0  0  0  0  0  0
    4.0225  146.0131   55.1777 C   0  0  0  0  0  0  0  0  0  0  0  0
    3.9249  145.2010   54.1679 N   0  0  0  0  0  0  0  0  0  0  0  0
    3.7269  143.9164   54.4076 C   0  0  0  0  0  0  0  0  0  0  0  0
    3.2378  143.1649   53.2394 C   0  0  0  0  0  0  0  0  0  0  0  0
    2.0979  142.3980   53.4619 C   0  0  0  0  0  0  0  0  0  0  0  0
    1.6692  142.3194   54.4575 H   0  0  0  0  0  0  0  0  0  0  0  0
    1.4267  141.8209   52.3967 C   0  0  0  0  0  0  0  0  0  0  0  0
    0.4825  141.3157   52.5496 H   0  0  0  0  0  0  0  0  0  0  0  0
    1.9364  141.9051   51.1115 C   0  0  0  0  0  0  0  0  0  0  0  0
    1.2629  141.2797   50.0918 C   0  0  0  0  0  0  0  0  0  0  0  0
    0.3653  140.7743   50.3791 H   0  0  0  0  0  0  0  0  0  0  0  0
    1.7479  141.2718   48.7914 C   0  0  0  0  0  0  0  0  0  0  0  0
    1.1856  140.7406   48.0344 H   0  0  0  0  0  0  0  0  0  0  0  0
    2.9184  141.9760   48.4935 C   0  0  0  0  0  0  0  0  0  0  0  0
    3.2894  142.0055   47.4693 H   0  0  0  0  0  0  0  0  0  0  0  0
    3.5743  142.6758   49.5201 C   0  0  0  0  0  0  0  0  0  0  0  0
    4.4558  143.2613   49.2960 H   0  0  0  0  0  0  0  0  0  0  0  0
    3.1008  142.6272   50.8425 C   0  0  0  0  0  0  0  0  0  0  0  0
    3.7221  143.2981   51.9092 C   0  0  0  0  0  0  0  0  0  0  0  0
    4.5559  143.9576   51.7053 H   0  0  0  0  0  0  0  0  0  0  0  0
    3.7104  143.4175   55.7136 C   0  0  0  0  0  0  0  0  0  0  0  0
    3.3812  142.0531   55.9698 C   0  0  0  0  0  0  0  0  0  0  0  0
    3.0939  140.9356   56.1183 N   0  0  0  0  0  0  0  0  0  0  0  0
    3.9200  144.3106   56.7406 C   0  0  0  0  0  0  0  0  0  0  0  0
    3.9252  143.9048   58.0258 N   0  0  0  0  0  0  0  0  0  0  0  0
    4.3367  144.5590   58.6873 H   0  0  0  0  0  0  0  0  0  0  0  0
    4.0586  142.9078   58.1787 H   0  0  0  0  0  0  0  0  0  0  0  0
    4.0406  145.6460   56.4917 C   0  0  0  0  0  0  0  0  0  0  0  0
    4.0998  146.3694   57.2895 H   0  0  0  0  0  0  0  0  0  0  0  0
    1.8713  149.2252   52.6885 C   0  0  0  0  0  0  0  0  0  0  0  0
    2.7051  148.3306   52.0515 O   0  0  0  0  0  0  0  0  0  0  0  0
    2.0627  147.3180   51.2543 C   0  0  0  0  0  0  0  0  0  0  0  0
    1.5292  147.7525   50.4013 H   0  0  0  0  0  0  0  0  0  0  0  0
    1.3484  146.7580   51.8664 H   0  0  0  0  0  0  0  0  0  0  0  0
    2.8064  146.6125   50.8672 H   0  0  0  0  0  0  0  0  0  0  0  0
  1  2  1  0
  2  3  2  0
  3  4  1  0
  3  5  1  0
  5  6  1  0
  6  7  1  0
  7  8  1  0
  7  9  1  0
  7 10  1  0
  5 11  2  0
 11 12  1  0
 11 13  1  0
 13 14  1  0
 14 15  1  0
 14 16  1  0
 14 17  1  0
 17 18  2  0
 17 19  1  0
 19 20  1  0
 19 21  1  0
 21 22  2  0
 22 23  1  0
 23 24  1  0
 24 25  2  0
 25 26  1  0
 25 27  1  0
 27 28  1  0
 27 29  2  0
 29 30  1  0
 30 31  1  0
 30 32  2  0
 32 33  1  0
 32 34  1  0
 34 35  1  0
 34 36  2  0
 36 37  1  0
 36 38  1  0
 38 39  2  0
 39 40  1  0
 23 41  2  0
 41 42  1  0
 42 43  3  0
 41 44  1  0
 44 45  1  0
 45 46  1  0
 45 47  1  0
 44 48  2  0
 48 49  1  0
 13 50  2  0
 50 51  1  0
 51 52  1  0
 52 53  1  0
 52 54  1  0
 52 55  1  0
 50  2  1  0
 48 21  1  0
 39 24  1  0
 38 29  1  0
M  END
>  <score>  (303) 
7.23418

$$$$

     RDKit          3D

 53 55  0  0  0  0  0  0  0  0999 V2000
    0.2956  149.1903   51.2401 H   0  0  0  0  0  0  0  0  0  0  0  0
    0.6443  149.5908   52.1881 C   0  0  0  0  0  0  0  0  0  0  0  0
   -0.1582  150.4920   52.9201 C   0  0  0  0  0  0  0  0  0  0  0  0
   -1.8913  150.9830   52.2699 Br  0  0  0  0  0  0  0  0  0  0  0  0
    0.3208  151.0510   54.1216 C   0  0  0  0  0  0  0  0  0  0  0  0
   -0.3841  151.9766   54.8447 O   0  0  0  0  0  0  0  0  0  0  0  0
   -1.4255  151.4053   55.6360 C   0  0  0  0  0  0  0  0  0  0  0  0
   -1.0117  150.6979   56.3553 H   0  0  0  0  0  0  0  0  0  0  0  0
   -2.1492  150.8801   55.0079 H   0  0  0  0  0  0  0  0  0  0  0  0
   -1.9419  152.1988   56.1836 H   0  0  0  0  0  0  0  0  0  0  0  0
    1.5826  150.6934   54.5771 C   0  0  0  0  0  0  0  0  0  0  0  0
    1.9749  151.1448   55.4843 H   0  0  0  0  0  0  0  0  0  0  0  0
    2.3672  149.7897   53.8623 C   0  0  0  0  0  0  0  0  0  0  0  0
    3.7191  149.4910   54.4095 C   0  0  0  0  0  0  0  0  0  0  0  0
    3.9950  150.3499   54.9957 H   0  0  0  0  0  0  0  0  0  0  0  0
    4.4200  149.3904   53.5819 H   0  0  0  0  0  0  0  0  0  0  0  0
    3.7633  148.2399   55.2769 C   0  0  0  0  0  0  0  0  0  0  0  0
    3.8490  148.3181   56.4916 O   0  0  0  0  0  0  0  0  0  0  0  0
    3.7655  147.0324   54.6597 N   0  0  0  0  0  0  0  0  0  0  0  0
    3.5103  146.9843   53.6830 H   0  0  0  0  0  0  0  0  0  0  0  0
    3.6708  145.8396   55.2516 C   0  0  0  0  0  0  0  0  0  0  0  0
    3.2178  145.0373   54.3191 N   0  0  0  0  0  0  0  0  0  0  0  0
    2.9583  143.7418   54.5807 C   0  0  0  0  0  0  0  0  0  0  0  0
    2.2738  142.9424   53.4777 C   0  0  0  0  0  0  0  0  0  0  0  0
    1.2454  142.3266   53.7127 O   0  0  0  0  0  0  0  0  0  0  0  0
    2.6150  142.9782   52.1295 N   0  0  0  0  0  0  0  0  0  0  0  0
    1.8949  142.2717   51.0878 C   0  0  0  0  0  0  0  0  0  0  0  0
    1.9497  141.1903   51.2501 H   0  0  0  0  0  0  0  0  0  0  0  0
    0.8423  142.5762   51.0559 H   0  0  0  0  0  0  0  0  0  0  0  0
    2.6324  142.6746   49.8219 C   0  0  0  0  0  0  0  0  0  0  0  0
    2.6772  141.8565   49.1007 H   0  0  0  0  0  0  0  0  0  0  0  0
    2.1176  143.5214   49.3641 H   0  0  0  0  0  0  0  0  0  0  0  0
    4.0276  143.1064   50.2615 C   0  0  0  0  0  0  0  0  0  0  0  0
    4.4027  143.9313   49.6537 H   0  0  0  0  0  0  0  0  0  0  0  0
    4.7336  142.2753   50.1927 H   0  0  0  0  0  0  0  0  0  0  0  0
    3.8775  143.5158   51.7113 C   0  0  0  0  0  0  0  0  0  0  0  0
    3.9219  144.5975   51.8466 H   0  0  0  0  0  0  0  0  0  0  0  0
    4.6156  143.0395   52.3271 H   0  0  0  0  0  0  0  0  0  0  0  0
    3.2875  143.2530   55.8645 C   0  0  0  0  0  0  0  0  0  0  0  0
    3.1540  141.8691   56.1894 C   0  0  0  0  0  0  0  0  0  0  0  0
    3.0484  140.7407   56.4617 N   0  0  0  0  0  0  0  0  0  0  0  0
    3.7847  144.1481   56.8094 C   0  0  0  0  0  0  0  0  0  0  0  0
    4.1360  143.7474   58.0539 N   0  0  0  0  0  0  0  0  0  0  0  0
    4.5036  144.4262   58.7144 H   0  0  0  0  0  0  0  0  0  0  0  0
    4.0727  142.7669   58.3098 H   0  0  0  0  0  0  0  0  0  0  0  0
    3.9482  145.4761   56.5375 C   0  0  0  0  0  0  0  0  0  0  0  0
    4.3047  146.1592   57.2985 H   0  0  0  0  0  0  0  0  0  0  0  0
    1.9196  149.2324   52.6545 C   0  0  0  0  0  0  0  0  0  0  0  0
    2.7701  148.4053   51.9555 O   0  0  0  0  0  0  0  0  0  0  0  0
    2.1602  147.3023   51.2795 C   0  0  0  0  0  0  0  0  0  0  0  0
    1.5779  147.6491   50.4209 H   0  0  0  0  0  0  0  0  0  0  0  0
    1.5058  146.7491   51.9621 H   0  0  0  0  0  0  0  0  0  0  0  0
    2.9405  146.6223   50.9214 H   0  0  0  0  0  0  0  0  0  0  0  0
  1  2  1  0
  2  3  2  0
  3  4  1  0
  3  5  1  0
  5  6  1  0
  6  7  1  0
  7  8  1  0
  7  9  1  0
  7 10  1  0
  5 11  2  0
 11 12  1  0
 11 13  1  0
 13 14  1  0
 14 15  1  0
 14 16  1  0
 14 17  1  0
 17 18  2  0
 17 19  1  0
 19 20  1  0
 19 21  1  0
 21 22  2  0
 22 23  1  0
 23 24  1  0
 24 25  2  0
 24 26  1  0
 26 27  1  0
 27 28  1  0
 27 29  1  0
 27 30  1  0
 30 31  1  0
 30 32  1  0
 30 33  1  0
 33 34  1  0
 33 35  1  0
 33 36  1  0
 36 37  1  0
 36 38  1  0
 23 39  2  0
 39 40  1  0
 40 41  3  0
 39 42  1  0
 42 43  1  0
 43 44  1  0
 43 45  1  0
 42 46  2  0
 46 47  1  0
 13 48  2  0
 48 49  1  0
 49 50  1  0
 50 51  1  0
 50 52  1  0
 50 53  1  0
 48  2  1  0
 46 21  1  0
 36 26  1  0
M  END
>  <score>  (304) 
7.23599

$$$$

     RDKit          3D

 52 54  0  0  0  0  0  0  0  0999 V2000
    5.9199  141.3604   50.6133 H   0  0  0  0  0  0  0  0  0  0  0  0
    5.0986  142.0596   50.5028 C   0  0  0  0  0  0  0  0  0  0  0  0
    4.9742  142.7239   49.3473 N   0  0  0  0  0  0  0  0  0  0  0  0
    3.9827  143.6123   49.2329 C   0  0  0  0  0  0  0  0  0  0  0  0
    3.8663  144.1337   48.2856 H   0  0  0  0  0  0  0  0  0  0  0  0
    3.0660  143.8493   50.2607 C   0  0  0  0  0  0  0  0  0  0  0  0
    2.2892  144.5747   50.0886 H   0  0  0  0  0  0  0  0  0  0  0  0
    3.1213  143.1013   51.4400 C   0  0  0  0  0  0  0  0  0  0  0  0
    2.0329  143.1948   52.4830 C   0  0  0  0  0  0  0  0  0  0  0  0
    1.6501  144.2177   52.5408 H   0  0  0  0  0  0  0  0  0  0  0  0
    1.2053  142.5732   52.1516 H   0  0  0  0  0  0  0  0  0  0  0  0
    2.4554  142.7084   53.7664 O   0  0  0  0  0  0  0  0  0  0  0  0
    2.9338  143.6432   54.6371 C   0  0  0  0  0  0  0  0  0  0  0  0
    3.0644  144.9033   54.2368 N   0  0  0  0  0  0  0  0  0  0  0  0
    3.5449  145.7541   55.1000 C   0  0  0  0  0  0  0  0  0  0  0  0
    3.6749  146.9344   54.4917 N   0  0  0  0  0  0  0  0  0  0  0  0
    3.3495  146.9307   53.5388 H   0  0  0  0  0  0  0  0  0  0  0  0
    3.6982  148.1038   55.1869 C   0  0  0  0  0  0  0  0  0  0  0  0
    3.7865  148.0933   56.4014 O   0  0  0  0  0  0  0  0  0  0  0  0
    3.6731  149.4309   54.4511 C   0  0  0  0  0  0  0  0  0  0  0  0
    4.4247  149.4446   53.6579 H   0  0  0  0  0  0  0  0  0  0  0  0
    3.9143  150.1947   55.1846 H   0  0  0  0  0  0  0  0  0  0  0  0
    2.3278  149.7564   53.8715 C   0  0  0  0  0  0  0  0  0  0  0  0
    1.5297  150.6630   54.5666 C   0  0  0  0  0  0  0  0  0  0  0  0
    1.8860  151.1062   55.4908 H   0  0  0  0  0  0  0  0  0  0  0  0
    0.2855  151.0423   54.0777 C   0  0  0  0  0  0  0  0  0  0  0  0
   -0.4158  151.9867   54.7711 O   0  0  0  0  0  0  0  0  0  0  0  0
   -1.4376  151.4025   55.5723 C   0  0  0  0  0  0  0  0  0  0  0  0
   -1.0060  150.6774   56.2669 H   0  0  0  0  0  0  0  0  0  0  0  0
   -2.1723  150.8942   54.9406 H   0  0  0  0  0  0  0  0  0  0  0  0
   -1.9382  152.1856   56.1472 H   0  0  0  0  0  0  0  0  0  0  0  0
   -0.2003  150.4671   52.8913 C   0  0  0  0  0  0  0  0  0  0  0  0
   -1.9361  150.9469   52.2341 Br  0  0  0  0  0  0  0  0  0  0  0  0
    0.6055  149.5593   52.1805 C   0  0  0  0  0  0  0  0  0  0  0  0
    0.2576  149.1445   51.2396 H   0  0  0  0  0  0  0  0  0  0  0  0
    1.8837  149.2107   52.6564 C   0  0  0  0  0  0  0  0  0  0  0  0
    2.7382  148.3832   51.9705 O   0  0  0  0  0  0  0  0  0  0  0  0
    2.1175  147.3090   51.2668 C   0  0  0  0  0  0  0  0  0  0  0  0
    1.5595  147.6876   50.4049 H   0  0  0  0  0  0  0  0  0  0  0  0
    1.4373  146.7661   51.9325 H   0  0  0  0  0  0  0  0  0  0  0  0
    2.8903  146.6184   50.9152 H   0  0  0  0  0  0  0  0  0  0  0  0
    3.8790  145.4629   56.3948 C   0  0  0  0  0  0  0  0  0  0  0  0
    4.2757  146.1926   57.0841 H   0  0  0  0  0  0  0  0  0  0  0  0
    3.7381  144.1695   56.7742 C   0  0  0  0  0  0  0  0  0  0  0  0
    4.1213  143.8179   58.0173 N   0  0  0  0  0  0  0  0  0  0  0  0
    4.0867  142.8407   58.2954 H   0  0  0  0  0  0  0  0  0  0  0  0
    4.4654  144.5297   58.6555 H   0  0  0  0  0  0  0  0  0  0  0  0
    3.2694  143.2339   55.9033 C   0  0  0  0  0  0  0  0  0  0  0  0
    3.1653  141.8577   56.2528 C   0  0  0  0  0  0  0  0  0  0  0  0
    3.0910  140.7189   56.4637 N   0  0  0  0  0  0  0  0  0  0  0  0
    4.1954  142.2147   51.5509 C   0  0  0  0  0  0  0  0  0  0  0  0
    4.3487  141.6004   52.4281 H   0  0  0  0  0  0  0  0  0  0  0  0
  1  2  1  0
  2  3  2  0
  3  4  1  0
  4  5  1  0
  4  6  2  0
  6  7  1  0
  6  8  1  0
  8  9  1  0
  9 10  1  0
  9 11  1  0
  9 12  1  0
 12 13  1  0
 13 14  2  0
 14 15  1  0
 15 16  1  0
 16 17  1  0
 16 18  1  0
 18 19  2  0
 18 20  1  0
 20 21  1  0
 20 22  1  0
 20 23  1  0
 23 24  2  0
 24 25  1  0
 24 26  1  0
 26 27  1  0
 27 28  1  0
 28 29  1  0
 28 30  1  0
 28 31  1  0
 26 32  2  0
 32 33  1  0
 32 34  1  0
 34 35  1  0
 34 36  2  0
 36 37  1  0
 37 38  1  0
 38 39  1  0
 38 40  1  0
 38 41  1  0
 15 42  2  0
 42 43  1  0
 42 44  1  0
 44 45  1  0
 45 46  1  0
 45 47  1  0
 44 48  2  0
 48 49  1  0
 49 50  3  0
  8 51  2  0
 51 52  1  0
 51  2  1  0
 48 13  1  0
 36 23  1  0
M  END
>  <score>  (305) 
7.23712

$$$$

     RDKit          3D

 45 47  0  0  0  0  0  0  0  0999 V2000
    0.6505  141.5222   50.7857 H   0  0  0  0  0  0  0  0  0  0  0  0
    1.2462  141.7992   51.6516 C   0  0  0  0  0  0  0  0  0  0  0  0
    2.1378  140.9900   52.1723 N   0  0  0  0  0  0  0  0  0  0  0  0
    2.7861  141.5705   53.2548 C   0  0  0  0  0  0  0  0  0  0  0  0
    3.5707  141.0370   53.7789 H   0  0  0  0  0  0  0  0  0  0  0  0
    2.3744  142.8349   53.5739 C   0  0  0  0  0  0  0  0  0  0  0  0
    2.9220  143.6689   54.6344 C   0  0  0  0  0  0  0  0  0  0  0  0
    3.0493  144.9556   54.3262 N   0  0  0  0  0  0  0  0  0  0  0  0
    3.5371  145.7833   55.2253 C   0  0  0  0  0  0  0  0  0  0  0  0
    3.7047  146.9820   54.6405 N   0  0  0  0  0  0  0  0  0  0  0  0
    3.5090  146.9381   53.6544 H   0  0  0  0  0  0  0  0  0  0  0  0
    3.7476  148.1987   55.2628 C   0  0  0  0  0  0  0  0  0  0  0  0
    3.8485  148.2538   56.4788 O   0  0  0  0  0  0  0  0  0  0  0  0
    3.7231  149.4699   54.4013 C   0  0  0  0  0  0  0  0  0  0  0  0
    4.4098  149.3607   53.5592 H   0  0  0  0  0  0  0  0  0  0  0  0
    3.9900  150.3456   54.9811 H   0  0  0  0  0  0  0  0  0  0  0  0
    2.3774  149.7814   53.8595 C   0  0  0  0  0  0  0  0  0  0  0  0
    1.5943  150.6883   54.5728 C   0  0  0  0  0  0  0  0  0  0  0  0
    1.9880  151.1455   55.4711 H   0  0  0  0  0  0  0  0  0  0  0  0
    0.3326  151.0575   54.1305 C   0  0  0  0  0  0  0  0  0  0  0  0
   -0.3790  151.9761   54.8587 O   0  0  0  0  0  0  0  0  0  0  0  0
   -1.4258  151.4035   55.6458 C   0  0  0  0  0  0  0  0  0  0  0  0
   -1.0130  150.7016   56.3721 H   0  0  0  0  0  0  0  0  0  0  0  0
   -1.9399  152.2020   56.1889 H   0  0  0  0  0  0  0  0  0  0  0  0
   -2.1521  150.8752   55.0193 H   0  0  0  0  0  0  0  0  0  0  0  0
   -0.1461  150.4978   52.9344 C   0  0  0  0  0  0  0  0  0  0  0  0
   -1.8716  150.9850   52.2780 Br  0  0  0  0  0  0  0  0  0  0  0  0
    0.6575  149.6039   52.1945 C   0  0  0  0  0  0  0  0  0  0  0  0
    0.3073  149.1990   51.2504 H   0  0  0  0  0  0  0  0  0  0  0  0
    1.9329  149.2375   52.6495 C   0  0  0  0  0  0  0  0  0  0  0  0
    2.7748  148.4022   51.9502 O   0  0  0  0  0  0  0  0  0  0  0  0
    2.1635  147.2974   51.2820 C   0  0  0  0  0  0  0  0  0  0  0  0
    1.6221  147.6395   50.3952 H   0  0  0  0  0  0  0  0  0  0  0  0
    1.4722  146.7715   51.9504 H   0  0  0  0  0  0  0  0  0  0  0  0
    2.9487  146.5987   50.9737 H   0  0  0  0  0  0  0  0  0  0  0  0
    3.8911  145.4203   56.4959 C   0  0  0  0  0  0  0  0  0  0  0  0
    4.3040  146.1185   57.2156 H   0  0  0  0  0  0  0  0  0  0  0  0
    3.7601  144.0951   56.7913 C   0  0  0  0  0  0  0  0  0  0  0  0
    4.1461  143.7195   58.0214 N   0  0  0  0  0  0  0  0  0  0  0  0
    4.4943  144.4314   58.6602 H   0  0  0  0  0  0  0  0  0  0  0  0
    4.0642  142.7439   58.2968 H   0  0  0  0  0  0  0  0  0  0  0  0
    3.2912  143.1795   55.8784 C   0  0  0  0  0  0  0  0  0  0  0  0
    3.1579  141.8016   56.2139 C   0  0  0  0  0  0  0  0  0  0  0  0
    3.0354  140.6693   56.4514 N   0  0  0  0  0  0  0  0  0  0  0  0
    1.1195  143.3527   52.4651 S   0  0  0  0  0  0  0  0  0  0  0  0
  1  2  1  0
  2  3  2  0
  3  4  1  0
  4  5  1  0
  4  6  2  0
  6  7  1  0
  7  8  2  0
  8  9  1  0
  9 10  1  0
 10 11  1  0
 10 12  1  0
 12 13  2  0
 12 14  1  0
 14 15  1  0
 14 16  1  0
 14 17  1  0
 17 18  2  0
 18 19  1  0
 18 20  1  0
 20 21  1  0
 21 22  1  0
 22 23  1  0
 22 24  1  0
 22 25  1  0
 20 26  2  0
 26 27  1  0
 26 28  1  0
 28 29  1  0
 28 30  2  0
 30 31  1  0
 31 32  1  0
 32 33  1  0
 32 34  1  0
 32 35  1  0
  9 36  2  0
 36 37  1  0
 36 38  1  0
 38 39  1  0
 39 40  1  0
 39 41  1  0
 38 42  2  0
 42 43  1  0
 43 44  3  0
  6 45  1  0
 45  2  1  0
 42  7  1  0
 30 17  1  0
M  END
>  <score>  (306) 
7.23791

$$$$

     RDKit          3D

 49 51  0  0  0  0  0  0  0  0999 V2000
    0.2468  141.8706   51.7626 H   0  0  0  0  0  0  0  0  0  0  0  0
    1.2137  142.3620   51.7859 C   0  0  0  0  0  0  0  0  0  0  0  0
    1.7990  142.7107   53.0112 C   0  0  0  0  0  0  0  0  0  0  0  0
    1.2637  142.5175   53.9384 H   0  0  0  0  0  0  0  0  0  0  0  0
    3.0400  143.3794   53.0455 C   0  0  0  0  0  0  0  0  0  0  0  0
    3.5538  143.9862   54.3076 C   0  0  0  0  0  0  0  0  0  0  0  0
    3.7963  145.2778   54.1427 N   0  0  0  0  0  0  0  0  0  0  0  0
    3.9825  146.0376   55.1773 C   0  0  0  0  0  0  0  0  0  0  0  0
    4.0418  147.2783   54.6884 N   0  0  0  0  0  0  0  0  0  0  0  0
    3.8987  147.2949   53.6899 H   0  0  0  0  0  0  0  0  0  0  0  0
    3.6792  148.3838   55.3808 C   0  0  0  0  0  0  0  0  0  0  0  0
    3.5480  148.3445   56.5879 O   0  0  0  0  0  0  0  0  0  0  0  0
    3.5563  149.6871   54.6075 C   0  0  0  0  0  0  0  0  0  0  0  0
    4.3382  149.7213   53.8464 H   0  0  0  0  0  0  0  0  0  0  0  0
    3.7137  150.5151   55.2985 H   0  0  0  0  0  0  0  0  0  0  0  0
    2.2148  149.8638   53.9475 C   0  0  0  0  0  0  0  0  0  0  0  0
    1.3545  150.8130   54.5102 C   0  0  0  0  0  0  0  0  0  0  0  0
    1.6572  151.3626   55.3967 H   0  0  0  0  0  0  0  0  0  0  0  0
    0.1031  151.0736   53.9545 C   0  0  0  0  0  0  0  0  0  0  0  0
   -0.7141  151.9876   54.5632 O   0  0  0  0  0  0  0  0  0  0  0  0
   -1.6366  151.3734   55.4692 C   0  0  0  0  0  0  0  0  0  0  0  0
   -1.1301  150.6352   56.1001 H   0  0  0  0  0  0  0  0  0  0  0  0
   -2.0836  152.1340   56.1172 H   0  0  0  0  0  0  0  0  0  0  0  0
   -2.4362  150.8734   54.9132 H   0  0  0  0  0  0  0  0  0  0  0  0
   -0.2929  150.3837   52.7985 C   0  0  0  0  0  0  0  0  0  0  0  0
   -1.9966  150.7294   51.9924 Br  0  0  0  0  0  0  0  0  0  0  0  0
    0.5640  149.4295   52.2316 C   0  0  0  0  0  0  0  0  0  0  0  0
    0.2548  148.8920   51.3415 H   0  0  0  0  0  0  0  0  0  0  0  0
    1.8198  149.1436   52.7977 C   0  0  0  0  0  0  0  0  0  0  0  0
    2.6577  148.1871   52.2624 O   0  0  0  0  0  0  0  0  0  0  0  0
    2.0758  147.3152   51.2783 C   0  0  0  0  0  0  0  0  0  0  0  0
    1.6502  147.8942   50.4520 H   0  0  0  0  0  0  0  0  0  0  0  0
    1.2829  146.7071   51.7271 H   0  0  0  0  0  0  0  0  0  0  0  0
    2.8377  146.6432   50.8717 H   0  0  0  0  0  0  0  0  0  0  0  0
    3.9872  145.6107   56.4692 C   0  0  0  0  0  0  0  0  0  0  0  0
    4.1310  146.3024   57.2838 H   0  0  0  0  0  0  0  0  0  0  0  0
    3.8168  144.2714   56.6665 C   0  0  0  0  0  0  0  0  0  0  0  0
    3.8362  143.8768   57.9623 N   0  0  0  0  0  0  0  0  0  0  0  0
    4.1068  144.6033   58.6245 H   0  0  0  0  0  0  0  0  0  0  0  0
    4.1262  142.9200   58.1490 H   0  0  0  0  0  0  0  0  0  0  0  0
    3.6137  143.4104   55.5938 C   0  0  0  0  0  0  0  0  0  0  0  0
    3.4791  142.0099   55.8081 C   0  0  0  0  0  0  0  0  0  0  0  0
    3.3903  140.8622   55.9940 N   0  0  0  0  0  0  0  0  0  0  0  0
    3.6541  143.6758   51.7974 C   0  0  0  0  0  0  0  0  0  0  0  0
    4.5803  144.2424   51.7576 H   0  0  0  0  0  0  0  0  0  0  0  0
    3.0517  143.3550   50.5777 C   0  0  0  0  0  0  0  0  0  0  0  0
    3.5189  143.6659   49.6436 H   0  0  0  0  0  0  0  0  0  0  0  0
    1.8307  142.6765   50.5633 C   0  0  0  0  0  0  0  0  0  0  0  0
    0.9880  142.2411   48.9061 Br  0  0  0  0  0  0  0  0  0  0  0  0
  1  2  1  0
  2  3  2  0
  3  4  1  0
  3  5  1  0
  5  6  1  0
  6  7  2  0
  7  8  1  0
  8  9  1  0
  9 10  1  0
  9 11  1  0
 11 12  2  0
 11 13  1  0
 13 14  1  0
 13 15  1  0
 13 16  1  0
 16 17  2  0
 17 18  1  0
 17 19  1  0
 19 20  1  0
 20 21  1  0
 21 22  1  0
 21 23  1  0
 21 24  1  0
 19 25  2  0
 25 26  1  0
 25 27  1  0
 27 28  1  0
 27 29  2  0
 29 30  1  0
 30 31  1  0
 31 32  1  0
 31 33  1  0
 31 34  1  0
  8 35  2  0
 35 36  1  0
 35 37  1  0
 37 38  1  0
 38 39  1  0
 38 40  1  0
 37 41  2  0
 41 42  1  0
 42 43  3  0
  5 44  2  0
 44 45  1  0
 44 46  1  0
 46 47  1  0
 46 48  2  0
 48 49  1  0
 48  2  1  0
 41  6  1  0
 29 16  1  0
M  END
>  <score>  (307) 
7.23806

$$$$

     RDKit          3D

 52 54  0  0  0  0  0  0  0  0999 V2000
    5.6444  139.5845   52.5647 H   0  0  0  0  0  0  0  0  0  0  0  0
    5.0864  140.4666   52.2671 C   0  0  0  0  0  0  0  0  0  0  0  0
    5.3403  141.0616   51.0283 C   0  0  0  0  0  0  0  0  0  0  0  0
    6.0764  140.6426   50.3418 H   0  0  0  0  0  0  0  0  0  0  0  0
    4.6673  142.2283   50.6618 C   0  0  0  0  0  0  0  0  0  0  0  0
    4.9329  142.8306   49.4826 F   0  0  0  0  0  0  0  0  0  0  0  0
    3.7347  142.7870   51.5355 C   0  0  0  0  0  0  0  0  0  0  0  0
    3.2555  143.7250   51.2877 H   0  0  0  0  0  0  0  0  0  0  0  0
    3.4132  142.1623   52.7361 C   0  0  0  0  0  0  0  0  0  0  0  0
    2.3754  142.7777   53.6305 C   0  0  0  0  0  0  0  0  0  0  0  0
    1.8091  142.0110   54.1472 H   0  0  0  0  0  0  0  0  0  0  0  0
    1.6618  143.3480   53.0284 H   0  0  0  0  0  0  0  0  0  0  0  0
    2.9946  143.6839   54.6532 C   0  0  0  0  0  0  0  0  0  0  0  0
    3.1404  144.9527   54.2900 N   0  0  0  0  0  0  0  0  0  0  0  0
    3.5973  145.8011   55.1785 C   0  0  0  0  0  0  0  0  0  0  0  0
    3.6904  147.0035   54.5897 N   0  0  0  0  0  0  0  0  0  0  0  0
    3.4361  147.0018   53.6161 H   0  0  0  0  0  0  0  0  0  0  0  0
    3.7218  148.1879   55.2512 C   0  0  0  0  0  0  0  0  0  0  0  0
    3.8146  148.2100   56.4648 O   0  0  0  0  0  0  0  0  0  0  0  0
    3.6918  149.4783   54.4474 C   0  0  0  0  0  0  0  0  0  0  0  0
    4.4441  149.4430   53.6549 H   0  0  0  0  0  0  0  0  0  0  0  0
    3.9291  150.2889   55.1239 H   0  0  0  0  0  0  0  0  0  0  0  0
    2.3447  149.7851   53.8639 C   0  0  0  0  0  0  0  0  0  0  0  0
    1.5405  150.6857   54.5632 C   0  0  0  0  0  0  0  0  0  0  0  0
    1.8927  151.1222   55.4924 H   0  0  0  0  0  0  0  0  0  0  0  0
    0.2886  151.0542   54.0831 C   0  0  0  0  0  0  0  0  0  0  0  0
   -0.4251  151.9876   54.7818 O   0  0  0  0  0  0  0  0  0  0  0  0
   -1.4478  151.4046   55.5875 C   0  0  0  0  0  0  0  0  0  0  0  0
   -1.0136  150.6843   56.2831 H   0  0  0  0  0  0  0  0  0  0  0  0
   -2.1831  150.8915   54.9616 H   0  0  0  0  0  0  0  0  0  0  0  0
   -1.9546  152.1835   56.1645 H   0  0  0  0  0  0  0  0  0  0  0  0
   -0.1901  150.4792   52.8958 C   0  0  0  0  0  0  0  0  0  0  0  0
   -1.9229  150.9396   52.2260 Br  0  0  0  0  0  0  0  0  0  0  0  0
    0.6193  149.5740   52.1892 C   0  0  0  0  0  0  0  0  0  0  0  0
    0.2613  149.1521   51.2585 H   0  0  0  0  0  0  0  0  0  0  0  0
    1.9004  149.2259   52.6555 C   0  0  0  0  0  0  0  0  0  0  0  0
    2.7460  148.3807   51.9751 O   0  0  0  0  0  0  0  0  0  0  0  0
    2.1210  147.3072   51.2669 C   0  0  0  0  0  0  0  0  0  0  0  0
    1.4302  146.7653   51.9203 H   0  0  0  0  0  0  0  0  0  0  0  0
    2.8902  146.6097   50.9254 H   0  0  0  0  0  0  0  0  0  0  0  0
    1.5741  147.6787   50.3963 H   0  0  0  0  0  0  0  0  0  0  0  0
    3.9202  145.4797   56.4731 C   0  0  0  0  0  0  0  0  0  0  0  0
    4.2854  146.2151   57.1727 H   0  0  0  0  0  0  0  0  0  0  0  0
    3.7805  144.1695   56.8357 C   0  0  0  0  0  0  0  0  0  0  0  0
    4.0943  143.8075   58.1049 N   0  0  0  0  0  0  0  0  0  0  0  0
    4.5055  144.4937   58.7314 H   0  0  0  0  0  0  0  0  0  0  0  0
    4.1184  142.8205   58.3477 H   0  0  0  0  0  0  0  0  0  0  0  0
    3.3264  143.2431   55.9269 C   0  0  0  0  0  0  0  0  0  0  0  0
    3.1976  141.8594   56.2560 C   0  0  0  0  0  0  0  0  0  0  0  0
    3.0884  140.7190   56.4417 N   0  0  0  0  0  0  0  0  0  0  0  0
    4.0872  140.9922   53.0922 C   0  0  0  0  0  0  0  0  0  0  0  0
    3.8328  140.4731   54.0032 H   0  0  0  0  0  0  0  0  0  0  0  0
  1  2  1  0
  2  3  2  0
  3  4  1  0
  3  5  1  0
  5  6  1  0
  5  7  2  0
  7  8  1  0
  7  9  1  0
  9 10  1  0
 10 11  1  0
 10 12  1  0
 10 13  1  0
 13 14  2  0
 14 15  1  0
 15 16  1  0
 16 17  1  0
 16 18  1  0
 18 19  2  0
 18 20  1  0
 20 21  1  0
 20 22  1  0
 20 23  1  0
 23 24  2  0
 24 25  1  0
 24 26  1  0
 26 27  1  0
 27 28  1  0
 28 29  1  0
 28 30  1  0
 28 31  1  0
 26 32  2  0
 32 33  1  0
 32 34  1  0
 34 35  1  0
 34 36  2  0
 36 37  1  0
 37 38  1  0
 38 39  1  0
 38 40  1  0
 38 41  1  0
 15 42  2  0
 42 43  1  0
 42 44  1  0
 44 45  1  0
 45 46  1  0
 45 47  1  0
 44 48  2  0
 48 49  1  0
 49 50  3  0
  9 51  2  0
 51 52  1  0
 51  2  1  0
 48 13  1  0
 36 23  1  0
M  END
>  <score>  (308) 
7.23825

$$$$

     RDKit          3D

 55 57  0  0  0  0  0  0  0  0999 V2000
    0.2640  149.0372   51.2785 H   0  0  0  0  0  0  0  0  0  0  0  0
    0.6052  149.5291   52.1823 C   0  0  0  0  0  0  0  0  0  0  0  0
   -0.2274  150.4626   52.8204 C   0  0  0  0  0  0  0  0  0  0  0  0
   -1.9567  150.8327   52.0898 Br  0  0  0  0  0  0  0  0  0  0  0  0
    0.1963  151.0867   54.0039 C   0  0  0  0  0  0  0  0  0  0  0  0
   -0.5797  152.0020   54.6633 O   0  0  0  0  0  0  0  0  0  0  0  0
   -1.5515  151.3907   55.5150 C   0  0  0  0  0  0  0  0  0  0  0  0
   -2.0173  152.1538   56.1453 H   0  0  0  0  0  0  0  0  0  0  0  0
   -2.3299  150.9034   54.9191 H   0  0  0  0  0  0  0  0  0  0  0  0
   -1.0839  150.6460   56.1656 H   0  0  0  0  0  0  0  0  0  0  0  0
    1.4411  150.7568   54.5320 C   0  0  0  0  0  0  0  0  0  0  0  0
    1.7532  151.2145   55.4674 H   0  0  0  0  0  0  0  0  0  0  0  0
    2.2870  149.8474   53.8844 C   0  0  0  0  0  0  0  0  0  0  0  0
    3.6121  149.5906   54.5496 C   0  0  0  0  0  0  0  0  0  0  0  0
    3.7652  150.3634   55.3043 H   0  0  0  0  0  0  0  0  0  0  0  0
    4.4251  149.6429   53.8206 H   0  0  0  0  0  0  0  0  0  0  0  0
    3.6527  148.2348   55.2245 C   0  0  0  0  0  0  0  0  0  0  0  0
    3.7520  148.1345   56.4365 O   0  0  0  0  0  0  0  0  0  0  0  0
    3.6840  147.1383   54.4171 N   0  0  0  0  0  0  0  0  0  0  0  0
    3.4894  147.2466   53.4315 H   0  0  0  0  0  0  0  0  0  0  0  0
    3.6570  145.8732   54.8515 C   0  0  0  0  0  0  0  0  0  0  0  0
    3.3697  145.0583   53.8678 N   0  0  0  0  0  0  0  0  0  0  0  0
    3.2264  143.7606   54.1376 C   0  0  0  0  0  0  0  0  0  0  0  0
    2.7200  142.9056   53.0097 C   0  0  0  0  0  0  0  0  0  0  0  0
    2.9668  141.8634   53.2176 H   0  0  0  0  0  0  0  0  0  0  0  0
    3.3205  143.2504   51.6393 C   0  0  0  0  0  0  0  0  0  0  0  0
    4.4133  143.2688   51.6750 H   0  0  0  0  0  0  0  0  0  0  0  0
    2.9754  144.2559   51.3663 H   0  0  0  0  0  0  0  0  0  0  0  0
    2.8569  142.2159   50.5978 C   0  0  0  0  0  0  0  0  0  0  0  0
    2.8527  142.6824   49.6113 H   0  0  0  0  0  0  0  0  0  0  0  0
    3.5663  141.3832   50.5610 H   0  0  0  0  0  0  0  0  0  0  0  0
    1.4676  141.6616   50.9331 C   0  0  0  0  0  0  0  0  0  0  0  0
    1.5899  140.8547   51.6554 H   0  0  0  0  0  0  0  0  0  0  0  0
    1.0014  141.2347   50.0444 H   0  0  0  0  0  0  0  0  0  0  0  0
    0.6105  142.7530   51.5685 C   0  0  0  0  0  0  0  0  0  0  0  0
   -0.4295  142.4378   51.6520 H   0  0  0  0  0  0  0  0  0  0  0  0
    0.6199  143.6402   50.9290 H   0  0  0  0  0  0  0  0  0  0  0  0
    1.1869  143.0544   52.9587 C   0  0  0  0  0  0  0  0  0  0  0  0
    0.8770  144.0595   53.2741 H   0  0  0  0  0  0  0  0  0  0  0  0
    0.7860  142.3298   53.6615 H   0  0  0  0  0  0  0  0  0  0  0  0
    3.3779  143.2497   55.4224 C   0  0  0  0  0  0  0  0  0  0  0  0
    3.1957  141.8657   55.7170 C   0  0  0  0  0  0  0  0  0  0  0  0
    3.0650  140.7280   55.9369 N   0  0  0  0  0  0  0  0  0  0  0  0
    3.6829  144.1577   56.4027 C   0  0  0  0  0  0  0  0  0  0  0  0
    3.8177  143.7950   57.6849 N   0  0  0  0  0  0  0  0  0  0  0  0
    4.0164  142.8172   57.8571 H   0  0  0  0  0  0  0  0  0  0  0  0
    4.2395  144.4930   58.2899 H   0  0  0  0  0  0  0  0  0  0  0  0
    3.8333  145.4786   56.1415 C   0  0  0  0  0  0  0  0  0  0  0  0
    4.0913  146.1750   56.9227 H   0  0  0  0  0  0  0  0  0  0  0  0
    1.8729  149.2034   52.6938 C   0  0  0  0  0  0  0  0  0  0  0  0
    2.6908  148.2764   52.0747 O   0  0  0  0  0  0  0  0  0  0  0  0
    2.0388  147.2968   51.2430 C   0  0  0  0  0  0  0  0  0  0  0  0
    2.7793  146.5989   50.8380 H   0  0  0  0  0  0  0  0  0  0  0  0
    1.5186  147.7659   50.4000 H   0  0  0  0  0  0  0  0  0  0  0  0
    1.3139  146.7235   51.8316 H   0  0  0  0  0  0  0  0  0  0  0  0
  1  2  1  0
  2  3  2  0
  3  4  1  0
  3  5  1  0
  5  6  1  0
  6  7  1  0
  7  8  1  0
  7  9  1  0
  7 10  1  0
  5 11  2  0
 11 12  1  0
 11 13  1  0
 13 14  1  0
 14 15  1  0
 14 16  1  0
 14 17  1  0
 17 18  2  0
 17 19  1  0
 19 20  1  0
 19 21  1  0
 21 22  2  0
 22 23  1  0
 23 24  1  0
 24 25  1  0
 24 26  1  0
 26 27  1  0
 26 28  1  0
 26 29  1  0
 29 30  1  0
 29 31  1  0
 29 32  1  0
 32 33  1  0
 32 34  1  0
 32 35  1  0
 35 36  1  0
 35 37  1  0
 35 38  1  0
 38 39  1  0
 38 40  1  0
 23 41  2  0
 41 42  1  0
 42 43  3  0
 41 44  1  0
 44 45  1  0
 45 46  1  0
 45 47  1  0
 44 48  2  0
 48 49  1  0
 13 50  2  0
 50 51  1  0
 51 52  1  0
 52 53  1  0
 52 54  1  0
 52 55  1  0
 50  2  1  0
 48 21  1  0
 38 24  1  0
M  END
>  <score>  (309) 
7.23835

$$$$

     RDKit          3D

 49 51  0  0  0  0  0  0  0  0999 V2000
    0.1401  141.2132   52.1177 H   0  0  0  0  0  0  0  0  0  0  0  0
    1.0927  141.7328   52.0257 C   0  0  0  0  0  0  0  0  0  0  0  0
    1.7077  141.8557   50.7754 C   0  0  0  0  0  0  0  0  0  0  0  0
    1.2192  141.4462   49.8973 H   0  0  0  0  0  0  0  0  0  0  0  0
    2.9406  142.5148   50.6563 C   0  0  0  0  0  0  0  0  0  0  0  0
    3.8631  142.5686   48.9775 Br  0  0  0  0  0  0  0  0  0  0  0  0
    3.4842  143.1450   51.7775 C   0  0  0  0  0  0  0  0  0  0  0  0
    4.3836  143.7334   51.6514 H   0  0  0  0  0  0  0  0  0  0  0  0
    2.8860  143.0273   53.0480 C   0  0  0  0  0  0  0  0  0  0  0  0
    3.3696  143.7727   54.2253 C   0  0  0  0  0  0  0  0  0  0  0  0
    3.5830  145.0599   53.9793 N   0  0  0  0  0  0  0  0  0  0  0  0
    3.8151  145.8713   54.9694 C   0  0  0  0  0  0  0  0  0  0  0  0
    3.7974  147.1252   54.4898 N   0  0  0  0  0  0  0  0  0  0  0  0
    3.5722  147.2066   53.5103 H   0  0  0  0  0  0  0  0  0  0  0  0
    3.7042  148.2425   55.2522 C   0  0  0  0  0  0  0  0  0  0  0  0
    3.7889  148.1791   56.4626 O   0  0  0  0  0  0  0  0  0  0  0  0
    3.6422  149.5655   54.5146 C   0  0  0  0  0  0  0  0  0  0  0  0
    4.4301  149.5650   53.7640 H   0  0  0  0  0  0  0  0  0  0  0  0
    3.8344  150.3797   55.2095 H   0  0  0  0  0  0  0  0  0  0  0  0
    2.3063  149.8209   53.8761 C   0  0  0  0  0  0  0  0  0  0  0  0
    1.4733  150.7095   54.5499 C   0  0  0  0  0  0  0  0  0  0  0  0
    1.7927  151.1360   55.4948 H   0  0  0  0  0  0  0  0  0  0  0  0
    0.2366  151.0674   54.0327 C   0  0  0  0  0  0  0  0  0  0  0  0
   -0.4998  151.9983   54.7054 O   0  0  0  0  0  0  0  0  0  0  0  0
   -1.4937  151.4040   55.5397 C   0  0  0  0  0  0  0  0  0  0  0  0
   -1.0346  150.6691   56.2038 H   0  0  0  0  0  0  0  0  0  0  0  0
   -1.9858  152.1682   56.1501 H   0  0  0  0  0  0  0  0  0  0  0  0
   -2.2498  150.9011   54.9317 H   0  0  0  0  0  0  0  0  0  0  0  0
   -0.2186  150.4689   52.8521 C   0  0  0  0  0  0  0  0  0  0  0  0
   -1.9546  150.8818   52.1611 Br  0  0  0  0  0  0  0  0  0  0  0  0
    0.5990  149.5492   52.1851 C   0  0  0  0  0  0  0  0  0  0  0  0
    0.2287  149.0916   51.2767 H   0  0  0  0  0  0  0  0  0  0  0  0
    1.8798  149.2233   52.6710 C   0  0  0  0  0  0  0  0  0  0  0  0
    2.7153  148.3491   52.0130 O   0  0  0  0  0  0  0  0  0  0  0  0
    2.0766  147.3093   51.2530 C   0  0  0  0  0  0  0  0  0  0  0  0
    1.3689  146.7509   51.8723 H   0  0  0  0  0  0  0  0  0  0  0  0
    2.8309  146.6072   50.8877 H   0  0  0  0  0  0  0  0  0  0  0  0
    1.5367  147.7136   50.3921 H   0  0  0  0  0  0  0  0  0  0  0  0
    3.9194  145.4862   56.2732 C   0  0  0  0  0  0  0  0  0  0  0  0
    4.1202  146.2083   57.0438 H   0  0  0  0  0  0  0  0  0  0  0  0
    3.7295  144.1648   56.5383 C   0  0  0  0  0  0  0  0  0  0  0  0
    3.8252  143.7921   57.8316 N   0  0  0  0  0  0  0  0  0  0  0  0
    4.0143  142.8054   57.9729 H   0  0  0  0  0  0  0  0  0  0  0  0
    4.3072  144.4621   58.4291 H   0  0  0  0  0  0  0  0  0  0  0  0
    3.4340  143.2703   55.5309 C   0  0  0  0  0  0  0  0  0  0  0  0
    3.1850  141.8997   55.8286 C   0  0  0  0  0  0  0  0  0  0  0  0
    2.9893  140.7796   56.0773 N   0  0  0  0  0  0  0  0  0  0  0  0
    1.7037  142.3041   53.1435 C   0  0  0  0  0  0  0  0  0  0  0  0
    1.2445  142.2623   54.1164 H   0  0  0  0  0  0  0  0  0  0  0  0
  1  2  1  0
  2  3  2  0
  3  4  1  0
  3  5  1  0
  5  6  1  0
  5  7  2  0
  7  8  1  0
  7  9  1  0
  9 10  1  0
 10 11  2  0
 11 12  1  0
 12 13  1  0
 13 14  1  0
 13 15  1  0
 15 16  2  0
 15 17  1  0
 17 18  1  0
 17 19  1  0
 17 20  1  0
 20 21  2  0
 21 22  1  0
 21 23  1  0
 23 24  1  0
 24 25  1  0
 25 26  1  0
 25 27  1  0
 25 28  1  0
 23 29  2  0
 29 30  1  0
 29 31  1  0
 31 32  1  0
 31 33  2  0
 33 34  1  0
 34 35  1  0
 35 36  1  0
 35 37  1  0
 35 38  1  0
 12 39  2  0
 39 40  1  0
 39 41  1  0
 41 42  1  0
 42 43  1  0
 42 44  1  0
 41 45  2  0
 45 46  1  0
 46 47  3  0
  9 48  2  0
 48 49  1  0
 48  2  1  0
 45 10  1  0
 33 20  1  0
M  END
>  <score>  (310) 
7.24048

$$$$

     RDKit          3D

 50 52  0  0  0  0  0  0  0  0999 V2000
    1.3827  142.2489   49.6425 H   0  0  0  0  0  0  0  0  0  0  0  0
    1.2908  142.9263   50.4823 C   0  0  0  0  0  0  0  0  0  0  0  0
    1.8063  142.5265   51.6496 N   0  0  0  0  0  0  0  0  0  0  0  0
    1.5607  143.2930   52.6925 C   0  0  0  0  0  0  0  0  0  0  0  0
    2.1781  142.8212   53.7876 N   0  0  0  0  0  0  0  0  0  0  0  0
    2.7518  142.0327   53.5656 H   0  0  0  0  0  0  0  0  0  0  0  0
    2.7470  143.6776   54.6570 C   0  0  0  0  0  0  0  0  0  0  0  0
    2.8881  144.9194   54.2511 N   0  0  0  0  0  0  0  0  0  0  0  0
    3.4544  145.7370   55.0920 C   0  0  0  0  0  0  0  0  0  0  0  0
    3.6332  146.9255   54.4938 N   0  0  0  0  0  0  0  0  0  0  0  0
    3.3644  146.9470   53.5217 H   0  0  0  0  0  0  0  0  0  0  0  0
    3.7025  148.0928   55.1770 C   0  0  0  0  0  0  0  0  0  0  0  0
    3.7908  148.0926   56.3951 O   0  0  0  0  0  0  0  0  0  0  0  0
    3.6899  149.4124   54.4269 C   0  0  0  0  0  0  0  0  0  0  0  0
    3.9539  150.1848   55.1356 H   0  0  0  0  0  0  0  0  0  0  0  0
    4.4246  149.3984   53.6178 H   0  0  0  0  0  0  0  0  0  0  0  0
    2.3410  149.7538   53.8712 C   0  0  0  0  0  0  0  0  0  0  0  0
    1.5557  150.6668   54.5745 C   0  0  0  0  0  0  0  0  0  0  0  0
    1.9255  151.1156   55.4921 H   0  0  0  0  0  0  0  0  0  0  0  0
    0.3053  151.0423   54.0953 C   0  0  0  0  0  0  0  0  0  0  0  0
   -0.3953  151.9809   54.7988 O   0  0  0  0  0  0  0  0  0  0  0  0
   -1.4271  151.4051   55.5979 C   0  0  0  0  0  0  0  0  0  0  0  0
   -1.9372  152.1912   56.1619 H   0  0  0  0  0  0  0  0  0  0  0  0
   -2.1560  150.8894   54.9669 H   0  0  0  0  0  0  0  0  0  0  0  0
   -1.0066  150.6874   56.3052 H   0  0  0  0  0  0  0  0  0  0  0  0
   -0.1873  150.4750   52.9060 C   0  0  0  0  0  0  0  0  0  0  0  0
   -1.9207  150.9659   52.2507 Br  0  0  0  0  0  0  0  0  0  0  0  0
    0.6150  149.5733   52.1825 C   0  0  0  0  0  0  0  0  0  0  0  0
    0.2736  149.1682   51.2345 H   0  0  0  0  0  0  0  0  0  0  0  0
    1.8897  149.2170   52.6569 C   0  0  0  0  0  0  0  0  0  0  0  0
    2.7462  148.3939   51.9664 O   0  0  0  0  0  0  0  0  0  0  0  0
    2.1352  147.3063   51.2746 C   0  0  0  0  0  0  0  0  0  0  0  0
    1.4351  146.7965   51.9402 H   0  0  0  0  0  0  0  0  0  0  0  0
    1.6027  147.6601   50.3877 H   0  0  0  0  0  0  0  0  0  0  0  0
    2.9013  146.5901   50.9614 H   0  0  0  0  0  0  0  0  0  0  0  0
    3.8365  145.4055   56.3632 C   0  0  0  0  0  0  0  0  0  0  0  0
    4.2691  146.1121   57.0529 H   0  0  0  0  0  0  0  0  0  0  0  0
    3.7121  144.1008   56.7100 C   0  0  0  0  0  0  0  0  0  0  0  0
    4.1639  143.7384   57.9139 N   0  0  0  0  0  0  0  0  0  0  0  0
    4.4331  144.4687   58.5672 H   0  0  0  0  0  0  0  0  0  0  0  0
    4.0346  142.7748   58.2131 H   0  0  0  0  0  0  0  0  0  0  0  0
    3.1869  143.1873   55.8528 C   0  0  0  0  0  0  0  0  0  0  0  0
    3.1114  141.7992   56.1658 C   0  0  0  0  0  0  0  0  0  0  0  0
    3.0703  140.6570   56.3800 N   0  0  0  0  0  0  0  0  0  0  0  0
    0.8065  144.4617   52.6740 C   0  0  0  0  0  0  0  0  0  0  0  0
    0.6365  144.9691   53.6187 H   0  0  0  0  0  0  0  0  0  0  0  0
    0.3261  144.9303   51.4424 C   0  0  0  0  0  0  0  0  0  0  0  0
   -0.1938  145.8899   51.3694 H   0  0  0  0  0  0  0  0  0  0  0  0
    0.5762  144.1243   50.3287 C   0  0  0  0  0  0  0  0  0  0  0  0
    0.2306  144.4014   49.3397 H   0  0  0  0  0  0  0  0  0  0  0  0
  1  2  1  0
  2  3  2  0
  3  4  1  0
  4  5  1  0
  5  6  1  0
  5  7  1  0
  7  8  2  0
  8  9  1  0
  9 10  1  0
 10 11  1  0
 10 12  1  0
 12 13  2  0
 12 14  1  0
 14 15  1  0
 14 16  1  0
 14 17  1  0
 17 18  2  0
 18 19  1  0
 18 20  1  0
 20 21  1  0
 21 22  1  0
 22 23  1  0
 22 24  1  0
 22 25  1  0
 20 26  2  0
 26 27  1  0
 26 28  1  0
 28 29  1  0
 28 30  2  0
 30 31  1  0
 31 32  1  0
 32 33  1  0
 32 34  1  0
 32 35  1  0
  9 36  2  0
 36 37  1  0
 36 38  1  0
 38 39  1  0
 39 40  1  0
 39 41  1  0
 38 42  2  0
 42 43  1  0
 43 44  3  0
  4 45  2  0
 45 46  1  0
 45 47  1  0
 47 48  1  0
 47 49  2  0
 49 50  1  0
 49  2  1  0
 42  7  1  0
 30 17  1  0
M  END
>  <score>  (311) 
7.24096

$$$$

     RDKit          3D

 50 51  0  0  0  0  0  0  0  0999 V2000
    0.2891  149.1803   51.2295 H   0  0  0  0  0  0  0  0  0  0  0  0
    0.6268  149.5754   52.1823 C   0  0  0  0  0  0  0  0  0  0  0  0
   -0.1736  150.4790   52.9076 C   0  0  0  0  0  0  0  0  0  0  0  0
   -1.9116  150.9825   52.2686 Br  0  0  0  0  0  0  0  0  0  0  0  0
    0.3142  151.0355   54.1086 C   0  0  0  0  0  0  0  0  0  0  0  0
   -0.3807  151.9732   54.8193 O   0  0  0  0  0  0  0  0  0  0  0  0
   -1.4192  151.4055   55.6153 C   0  0  0  0  0  0  0  0  0  0  0  0
   -1.0065  150.6907   56.3286 H   0  0  0  0  0  0  0  0  0  0  0  0
   -2.1439  150.8854   54.9856 H   0  0  0  0  0  0  0  0  0  0  0  0
   -1.9333  152.1970   56.1680 H   0  0  0  0  0  0  0  0  0  0  0  0
    1.5691  150.6751   54.5833 C   0  0  0  0  0  0  0  0  0  0  0  0
    1.9585  151.1270   55.4956 H   0  0  0  0  0  0  0  0  0  0  0  0
    2.3425  149.7620   53.8716 C   0  0  0  0  0  0  0  0  0  0  0  0
    3.6913  149.4300   54.4175 C   0  0  0  0  0  0  0  0  0  0  0  0
    4.4115  149.3913   53.6014 H   0  0  0  0  0  0  0  0  0  0  0  0
    3.9730  150.2299   55.0832 H   0  0  0  0  0  0  0  0  0  0  0  0
    3.7300  148.1291   55.1954 C   0  0  0  0  0  0  0  0  0  0  0  0
    3.8098  148.1531   56.4147 O   0  0  0  0  0  0  0  0  0  0  0  0
    3.6865  146.9506   54.5248 N   0  0  0  0  0  0  0  0  0  0  0  0
    3.4346  146.9528   53.5460 H   0  0  0  0  0  0  0  0  0  0  0  0
    3.5549  145.7538   55.0995 C   0  0  0  0  0  0  0  0  0  0  0  0
    3.0831  144.9244   54.2029 N   0  0  0  0  0  0  0  0  0  0  0  0
    2.9119  143.6738   54.5616 C   0  0  0  0  0  0  0  0  0  0  0  0
    2.3668  142.8501   53.6453 N   0  0  0  0  0  0  0  0  0  0  0  0
    2.0229  141.9649   53.9646 H   0  0  0  0  0  0  0  0  0  0  0  0
    2.3318  143.1209   52.3129 C   0  0  0  0  0  0  0  0  0  0  0  0
    2.8855  144.1126   51.8628 O   0  0  0  0  0  0  0  0  0  0  0  0
    1.6358  142.2058   51.6090 O   0  0  0  0  0  0  0  0  0  0  0  0
    1.5173  142.4088   50.1923 C   0  0  0  0  0  0  0  0  0  0  0  0
    1.3437  143.4647   49.9457 H   0  0  0  0  0  0  0  0  0  0  0  0
    0.6525  141.8325   49.8512 H   0  0  0  0  0  0  0  0  0  0  0  0
    2.7452  141.9039   49.4400 C   0  0  0  0  0  0  0  0  0  0  0  0
    3.6371  142.4691   49.7146 H   0  0  0  0  0  0  0  0  0  0  0  0
    2.9323  140.8482   49.6493 H   0  0  0  0  0  0  0  0  0  0  0  0
    2.5832  142.0115   48.3645 H   0  0  0  0  0  0  0  0  0  0  0  0
    3.2206  143.1886   55.8032 C   0  0  0  0  0  0  0  0  0  0  0  0
    3.1057  141.8043   56.1388 C   0  0  0  0  0  0  0  0  0  0  0  0
    3.0311  140.6768   56.4121 N   0  0  0  0  0  0  0  0  0  0  0  0
    3.7068  144.1040   56.6978 C   0  0  0  0  0  0  0  0  0  0  0  0
    4.0759  143.7420   57.9376 N   0  0  0  0  0  0  0  0  0  0  0  0
    4.0474  142.7675   58.2142 H   0  0  0  0  0  0  0  0  0  0  0  0
    4.4522  144.4453   58.5649 H   0  0  0  0  0  0  0  0  0  0  0  0
    3.8662  145.4179   56.3907 C   0  0  0  0  0  0  0  0  0  0  0  0
    4.2448  146.1111   57.1343 H   0  0  0  0  0  0  0  0  0  0  0  0
    1.8971  149.2161   52.6590 C   0  0  0  0  0  0  0  0  0  0  0  0
    2.7611  148.4079   51.9584 O   0  0  0  0  0  0  0  0  0  0  0  0
    2.1538  147.3065   51.2790 C   0  0  0  0  0  0  0  0  0  0  0  0
    1.4874  146.7661   51.9590 H   0  0  0  0  0  0  0  0  0  0  0  0
    2.9272  146.6146   50.9315 H   0  0  0  0  0  0  0  0  0  0  0  0
    1.5818  147.6510   50.4125 H   0  0  0  0  0  0  0  0  0  0  0  0
  1  2  1  0
  2  3  2  0
  3  4  1  0
  3  5  1  0
  5  6  1  0
  6  7  1  0
  7  8  1  0
  7  9  1  0
  7 10  1  0
  5 11  2  0
 11 12  1  0
 11 13  1  0
 13 14  1  0
 14 15  1  0
 14 16  1  0
 14 17  1  0
 17 18  2  0
 17 19  1  0
 19 20  1  0
 19 21  1  0
 21 22  2  0
 22 23  1  0
 23 24  1  0
 24 25  1  0
 24 26  1  0
 26 27  2  0
 26 28  1  0
 28 29  1  0
 29 30  1  0
 29 31  1  0
 29 32  1  0
 32 33  1  0
 32 34  1  0
 32 35  1  0
 23 36  2  0
 36 37  1  0
 37 38  3  0
 36 39  1  0
 39 40  1  0
 40 41  1  0
 40 42  1  0
 39 43  2  0
 43 44  1  0
 13 45  2  0
 45 46  1  0
 46 47  1  0
 47 48  1  0
 47 49  1  0
 47 50  1  0
 45  2  1  0
 43 21  1  0
M  END
>  <score>  (312) 
7.24128

$$$$

     RDKit          3D

 57 59  0  0  0  0  0  0  0  0999 V2000
    0.3095  149.1982   51.2557 H   0  0  0  0  0  0  0  0  0  0  0  0
    0.6557  149.6024   52.1968 C   0  0  0  0  0  0  0  0  0  0  0  0
   -0.1468  150.4951   52.9318 C   0  0  0  0  0  0  0  0  0  0  0  0
   -1.8735  150.9839   52.2779 Br  0  0  0  0  0  0  0  0  0  0  0  0
    0.3303  151.0531   54.1282 C   0  0  0  0  0  0  0  0  0  0  0  0
   -0.3769  151.9741   54.8521 O   0  0  0  0  0  0  0  0  0  0  0  0
   -1.4243  151.4044   55.6414 C   0  0  0  0  0  0  0  0  0  0  0  0
   -1.0139  150.7011   56.3666 H   0  0  0  0  0  0  0  0  0  0  0  0
   -1.9399  152.1997   56.1875 H   0  0  0  0  0  0  0  0  0  0  0  0
   -2.1511  150.8762   55.0172 H   0  0  0  0  0  0  0  0  0  0  0  0
    1.5927  150.6917   54.5725 C   0  0  0  0  0  0  0  0  0  0  0  0
    1.9843  151.1469   55.4755 H   0  0  0  0  0  0  0  0  0  0  0  0
    2.3713  149.7833   53.8559 C   0  0  0  0  0  0  0  0  0  0  0  0
    3.7176  149.4761   54.3965 C   0  0  0  0  0  0  0  0  0  0  0  0
    4.4146  149.3698   53.5632 H   0  0  0  0  0  0  0  0  0  0  0  0
    3.9711  150.3524   54.9778 H   0  0  0  0  0  0  0  0  0  0  0  0
    3.7546  148.2177   55.2685 C   0  0  0  0  0  0  0  0  0  0  0  0
    3.8456  148.2770   56.4804 O   0  0  0  0  0  0  0  0  0  0  0  0
    3.7261  147.0027   54.6588 N   0  0  0  0  0  0  0  0  0  0  0  0
    3.5094  146.9540   53.6796 H   0  0  0  0  0  0  0  0  0  0  0  0
    3.5336  145.8304   55.2753 C   0  0  0  0  0  0  0  0  0  0  0  0
    3.0288  145.0213   54.3758 N   0  0  0  0  0  0  0  0  0  0  0  0
    2.9263  143.7186   54.6602 C   0  0  0  0  0  0  0  0  0  0  0  0
    2.4047  142.7835   53.5736 C   0  0  0  0  0  0  0  0  0  0  0  0
    1.7491  142.0786   54.0819 H   0  0  0  0  0  0  0  0  0  0  0  0
    1.7820  143.3869   52.9072 H   0  0  0  0  0  0  0  0  0  0  0  0
    3.4171  142.0409   52.7490 N   0  0  0  0  0  0  0  0  0  0  0  0
    4.0331  141.4397   53.3002 H   0  0  0  0  0  0  0  0  0  0  0  0
    2.9669  141.3507   51.5316 C   0  0  0  0  0  0  0  0  0  0  0  0
    2.1279  140.6807   51.7540 H   0  0  0  0  0  0  0  0  0  0  0  0
    4.1141  140.5694   50.9035 C   0  0  0  0  0  0  0  0  0  0  0  0
    4.2041  139.5706   51.3482 H   0  0  0  0  0  0  0  0  0  0  0  0
    5.0503  141.1091   51.0865 H   0  0  0  0  0  0  0  0  0  0  0  0
    3.8573  140.5439   49.3863 C   0  0  0  0  0  0  0  0  0  0  0  0
    3.4037  139.6108   49.0397 H   0  0  0  0  0  0  0  0  0  0  0  0
    4.8023  140.6284   48.8418 H   0  0  0  0  0  0  0  0  0  0  0  0
    2.9259  141.7229   49.1096 C   0  0  0  0  0  0  0  0  0  0  0  0
    2.0263  141.3739   48.5973 H   0  0  0  0  0  0  0  0  0  0  0  0
    3.4289  142.4470   48.4628 H   0  0  0  0  0  0  0  0  0  0  0  0
    2.5635  142.3477   50.4591 C   0  0  0  0  0  0  0  0  0  0  0  0
    1.4983  142.5692   50.5255 H   0  0  0  0  0  0  0  0  0  0  0  0
    3.1158  143.2825   50.5860 H   0  0  0  0  0  0  0  0  0  0  0  0
    3.2595  143.2402   55.9209 C   0  0  0  0  0  0  0  0  0  0  0  0
    3.1445  141.8518   56.2373 C   0  0  0  0  0  0  0  0  0  0  0  0
    3.0486  140.7131   56.4465 N   0  0  0  0  0  0  0  0  0  0  0  0
    3.7455  144.1407   56.8313 C   0  0  0  0  0  0  0  0  0  0  0  0
    4.1551  143.7351   58.0415 N   0  0  0  0  0  0  0  0  0  0  0  0
    4.0645  142.7558   58.2975 H   0  0  0  0  0  0  0  0  0  0  0  0
    4.5055  144.4337   58.6871 H   0  0  0  0  0  0  0  0  0  0  0  0
    3.8991  145.4599   56.5363 C   0  0  0  0  0  0  0  0  0  0  0  0
    4.3371  146.1418   57.2494 H   0  0  0  0  0  0  0  0  0  0  0  0
    1.9290  149.2380   52.6489 C   0  0  0  0  0  0  0  0  0  0  0  0
    2.7756  148.4058   51.9555 O   0  0  0  0  0  0  0  0  0  0  0  0
    2.1641  147.3018   51.2834 C   0  0  0  0  0  0  0  0  0  0  0  0
    1.6205  147.6401   50.3967 H   0  0  0  0  0  0  0  0  0  0  0  0
    1.4721  146.7739   51.9484 H   0  0  0  0  0  0  0  0  0  0  0  0
    2.9443  146.6000   50.9723 H   0  0  0  0  0  0  0  0  0  0  0  0
  1  2  1  0
  2  3  2  0
  3  4  1  0
  3  5  1  0
  5  6  1  0
  6  7  1  0
  7  8  1  0
  7  9  1  0
  7 10  1  0
  5 11  2  0
 11 12  1  0
 11 13  1  0
 13 14  1  0
 14 15  1  0
 14 16  1  0
 14 17  1  0
 17 18  2  0
 17 19  1  0
 19 20  1  0
 19 21  1  0
 21 22  2  0
 22 23  1  0
 23 24  1  0
 24 25  1  0
 24 26  1  0
 24 27  1  0
 27 28  1  0
 27 29  1  0
 29 30  1  0
 29 31  1  0
 31 32  1  0
 31 33  1  0
 31 34  1  0
 34 35  1  0
 34 36  1  0
 34 37  1  0
 37 38  1  0
 37 39  1  0
 37 40  1  0
 40 41  1  0
 40 42  1  0
 23 43  2  0
 43 44  1  0
 44 45  3  0
 43 46  1  0
 46 47  1  0
 47 48  1  0
 47 49  1  0
 46 50  2  0
 50 51  1  0
 13 52  2  0
 52 53  1  0
 53 54  1  0
 54 55  1  0
 54 56  1  0
 54 57  1  0
 52  2  1  0
 50 21  1  0
 40 29  1  0
M  END
>  <score>  (313) 
7.24349

$$$$

     RDKit          3D

 50 52  0  0  0  0  0  0  0  0999 V2000
    0.1570  141.2498   52.2618 H   0  0  0  0  0  0  0  0  0  0  0  0
    1.0807  141.7950   52.0992 C   0  0  0  0  0  0  0  0  0  0  0  0
    1.5430  141.9501   50.8635 N   0  0  0  0  0  0  0  0  0  0  0  0
    2.7168  142.5891   50.6649 C   0  0  0  0  0  0  0  0  0  0  0  0
    3.3221  142.6244   49.2354 C   0  0  0  0  0  0  0  0  0  0  0  0
    2.7089  143.5923   48.4850 F   0  0  0  0  0  0  0  0  0  0  0  0
    4.6658  142.8600   49.2655 F   0  0  0  0  0  0  0  0  0  0  0  0
    3.1727  141.4206   48.5979 F   0  0  0  0  0  0  0  0  0  0  0  0
    3.3613  143.1608   51.7155 N   0  0  0  0  0  0  0  0  0  0  0  0
    2.9057  143.0641   52.9832 C   0  0  0  0  0  0  0  0  0  0  0  0
    3.4585  143.8637   54.1478 C   0  0  0  0  0  0  0  0  0  0  0  0
    3.6889  145.1748   53.9540 N   0  0  0  0  0  0  0  0  0  0  0  0
    3.8872  145.9692   54.9818 C   0  0  0  0  0  0  0  0  0  0  0  0
    3.9134  147.2281   54.5368 N   0  0  0  0  0  0  0  0  0  0  0  0
    3.8081  147.2834   53.5372 H   0  0  0  0  0  0  0  0  0  0  0  0
    3.7350  148.3482   55.2839 C   0  0  0  0  0  0  0  0  0  0  0  0
    3.7573  148.2968   56.5013 O   0  0  0  0  0  0  0  0  0  0  0  0
    3.6256  149.6669   54.5456 C   0  0  0  0  0  0  0  0  0  0  0  0
    3.7641  150.4648   55.2681 H   0  0  0  0  0  0  0  0  0  0  0  0
    4.4247  149.7200   53.8026 H   0  0  0  0  0  0  0  0  0  0  0  0
    2.2841  149.8772   53.9005 C   0  0  0  0  0  0  0  0  0  0  0  0
    1.4306  150.7865   54.5398 C   0  0  0  0  0  0  0  0  0  0  0  0
    1.7448  151.2697   55.4631 H   0  0  0  0  0  0  0  0  0  0  0  0
    0.1786  151.0892   54.0107 C   0  0  0  0  0  0  0  0  0  0  0  0
   -0.6070  152.0034   54.6594 O   0  0  0  0  0  0  0  0  0  0  0  0
   -1.5631  151.3910   55.5287 C   0  0  0  0  0  0  0  0  0  0  0  0
   -2.0273  152.1539   56.1587 H   0  0  0  0  0  0  0  0  0  0  0  0
   -2.3444  150.8941   54.9461 H   0  0  0  0  0  0  0  0  0  0  0  0
   -1.0877  150.6548   56.1827 H   0  0  0  0  0  0  0  0  0  0  0  0
   -0.2353  150.4568   52.8258 C   0  0  0  0  0  0  0  0  0  0  0  0
   -1.9637  150.8219   52.0830 Br  0  0  0  0  0  0  0  0  0  0  0  0
    0.6087  149.5254   52.1964 C   0  0  0  0  0  0  0  0  0  0  0  0
    0.2865  149.0264   51.2879 H   0  0  0  0  0  0  0  0  0  0  0  0
    1.8757  149.2150   52.7186 C   0  0  0  0  0  0  0  0  0  0  0  0
    2.7055  148.2971   52.1024 O   0  0  0  0  0  0  0  0  0  0  0  0
    2.0641  147.3186   51.2588 C   0  0  0  0  0  0  0  0  0  0  0  0
    1.5477  147.7893   50.4137 H   0  0  0  0  0  0  0  0  0  0  0  0
    2.8038  146.6199   50.8524 H   0  0  0  0  0  0  0  0  0  0  0  0
    1.3371  146.7437   51.8429 H   0  0  0  0  0  0  0  0  0  0  0  0
    3.9413  145.5500   56.2735 C   0  0  0  0  0  0  0  0  0  0  0  0
    4.0930  146.2343   57.0925 H   0  0  0  0  0  0  0  0  0  0  0  0
    3.7988  144.2179   56.4921 C   0  0  0  0  0  0  0  0  0  0  0  0
    3.8866  143.8347   57.7938 N   0  0  0  0  0  0  0  0  0  0  0  0
    4.2314  144.5345   58.4468 H   0  0  0  0  0  0  0  0  0  0  0  0
    4.0482  142.8550   58.0095 H   0  0  0  0  0  0  0  0  0  0  0  0
    3.5243  143.3480   55.4556 C   0  0  0  0  0  0  0  0  0  0  0  0
    3.2626  141.9836   55.7689 C   0  0  0  0  0  0  0  0  0  0  0  0
    3.0542  140.8662   56.0179 N   0  0  0  0  0  0  0  0  0  0  0  0
    1.7557  142.3183   53.1779 C   0  0  0  0  0  0  0  0  0  0  0  0
    1.3354  142.2014   54.1586 H   0  0  0  0  0  0  0  0  0  0  0  0
  1  2  1  0
  2  3  2  0
  3  4  1  0
  4  5  1  0
  5  6  1  0
  5  7  1  0
  5  8  1  0
  4  9  2  0
  9 10  1  0
 10 11  1  0
 11 12  2  0
 12 13  1  0
 13 14  1  0
 14 15  1  0
 14 16  1  0
 16 17  2  0
 16 18  1  0
 18 19  1  0
 18 20  1  0
 18 21  1  0
 21 22  2  0
 22 23  1  0
 22 24  1  0
 24 25  1  0
 25 26  1  0
 26 27  1  0
 26 28  1  0
 26 29  1  0
 24 30  2  0
 30 31  1  0
 30 32  1  0
 32 33  1  0
 32 34  2  0
 34 35  1  0
 35 36  1  0
 36 37  1  0
 36 38  1  0
 36 39  1  0
 13 40  2  0
 40 41  1  0
 40 42  1  0
 42 43  1  0
 43 44  1  0
 43 45  1  0
 42 46  2  0
 46 47  1  0
 47 48  3  0
 10 49  2  0
 49 50  1  0
 49  2  1  0
 46 11  1  0
 34 21  1  0
M  END
>  <score>  (314) 
7.2439

$$$$

     RDKit          3D

 51 53  0  0  0  0  0  0  0  0999 V2000
    5.2598  142.9906   49.9102 H   0  0  0  0  0  0  0  0  0  0  0  0
    4.9078  142.4190   50.7697 C   0  0  0  0  0  0  0  0  0  0  0  0
    5.4227  141.1972   50.9879 N   0  0  0  0  0  0  0  0  0  0  0  0
    5.0002  140.4892   52.0526 C   0  0  0  0  0  0  0  0  0  0  0  0
    5.4565  139.5226   52.2618 H   0  0  0  0  0  0  0  0  0  0  0  0
    3.9935  140.9593   52.9080 C   0  0  0  0  0  0  0  0  0  0  0  0
    3.6600  140.3548   53.7466 H   0  0  0  0  0  0  0  0  0  0  0  0
    3.4645  142.2340   52.7009 C   0  0  0  0  0  0  0  0  0  0  0  0
    2.3923  142.8022   53.5901 C   0  0  0  0  0  0  0  0  0  0  0  0
    1.8457  142.0112   54.0957 H   0  0  0  0  0  0  0  0  0  0  0  0
    1.6721  143.3728   52.9998 H   0  0  0  0  0  0  0  0  0  0  0  0
    2.9753  143.6981   54.6267 C   0  0  0  0  0  0  0  0  0  0  0  0
    3.1238  144.9726   54.2928 N   0  0  0  0  0  0  0  0  0  0  0  0
    3.5874  145.8001   55.1925 C   0  0  0  0  0  0  0  0  0  0  0  0
    3.7143  146.9828   54.5882 N   0  0  0  0  0  0  0  0  0  0  0  0
    3.4378  146.9693   53.6163 H   0  0  0  0  0  0  0  0  0  0  0  0
    3.7462  148.1756   55.2302 C   0  0  0  0  0  0  0  0  0  0  0  0
    3.8222  148.2237   56.4416 O   0  0  0  0  0  0  0  0  0  0  0  0
    3.6958  149.4531   54.4166 C   0  0  0  0  0  0  0  0  0  0  0  0
    4.4269  149.4112   53.6096 H   0  0  0  0  0  0  0  0  0  0  0  0
    3.9596  150.2609   55.0787 H   0  0  0  0  0  0  0  0  0  0  0  0
    2.3408  149.7685   53.8683 C   0  0  0  0  0  0  0  0  0  0  0  0
    1.5636  150.6808   54.5786 C   0  0  0  0  0  0  0  0  0  0  0  0
    1.9435  151.1320   55.4972 H   0  0  0  0  0  0  0  0  0  0  0  0
    0.3084  151.0370   54.1014 C   0  0  0  0  0  0  0  0  0  0  0  0
   -0.3871  151.9753   54.8087 O   0  0  0  0  0  0  0  0  0  0  0  0
   -1.4221  151.4060   55.6098 C   0  0  0  0  0  0  0  0  0  0  0  0
   -1.9374  152.1939   56.1682 H   0  0  0  0  0  0  0  0  0  0  0  0
   -1.0074  150.6897   56.3212 H   0  0  0  0  0  0  0  0  0  0  0  0
   -2.1482  150.8861   54.9808 H   0  0  0  0  0  0  0  0  0  0  0  0
   -0.1822  150.4775   52.9049 C   0  0  0  0  0  0  0  0  0  0  0  0
   -1.9175  150.9777   52.2611 Br  0  0  0  0  0  0  0  0  0  0  0  0
    0.6194  149.5766   52.1821 C   0  0  0  0  0  0  0  0  0  0  0  0
    0.2826  149.1761   51.2334 H   0  0  0  0  0  0  0  0  0  0  0  0
    1.8921  149.2232   52.6562 C   0  0  0  0  0  0  0  0  0  0  0  0
    2.7573  148.4076   51.9669 O   0  0  0  0  0  0  0  0  0  0  0  0
    2.1476  147.3134   51.2776 C   0  0  0  0  0  0  0  0  0  0  0  0
    1.4613  146.7843   51.9445 H   0  0  0  0  0  0  0  0  0  0  0  0
    2.9144  146.6068   50.9471 H   0  0  0  0  0  0  0  0  0  0  0  0
    1.5957  147.6589   50.3992 H   0  0  0  0  0  0  0  0  0  0  0  0
    3.9048  145.4579   56.4815 C   0  0  0  0  0  0  0  0  0  0  0  0
    4.2848  146.1555   57.2124 H   0  0  0  0  0  0  0  0  0  0  0  0
    3.7607  144.1415   56.8006 C   0  0  0  0  0  0  0  0  0  0  0  0
    4.1174  143.7630   58.0428 N   0  0  0  0  0  0  0  0  0  0  0  0
    4.0810  142.7795   58.2925 H   0  0  0  0  0  0  0  0  0  0  0  0
    4.4920  144.4537   58.6878 H   0  0  0  0  0  0  0  0  0  0  0  0
    3.2942  143.2288   55.8859 C   0  0  0  0  0  0  0  0  0  0  0  0
    3.1623  141.8414   56.1982 C   0  0  0  0  0  0  0  0  0  0  0  0
    3.0681  140.7058   56.4255 N   0  0  0  0  0  0  0  0  0  0  0  0
    3.9535  142.9775   51.6263 C   0  0  0  0  0  0  0  0  0  0  0  0
    3.5975  143.9863   51.4483 H   0  0  0  0  0  0  0  0  0  0  0  0
  1  2  1  0
  2  3  2  0
  3  4  1  0
  4  5  1  0
  4  6  2  0
  6  7  1  0
  6  8  1  0
  8  9  1  0
  9 10  1  0
  9 11  1  0
  9 12  1  0
 12 13  2  0
 13 14  1  0
 14 15  1  0
 15 16  1  0
 15 17  1  0
 17 18  2  0
 17 19  1  0
 19 20  1  0
 19 21  1  0
 19 22  1  0
 22 23  2  0
 23 24  1  0
 23 25  1  0
 25 26  1  0
 26 27  1  0
 27 28  1  0
 27 29  1  0
 27 30  1  0
 25 31  2  0
 31 32  1  0
 31 33  1  0
 33 34  1  0
 33 35  2  0
 35 36  1  0
 36 37  1  0
 37 38  1  0
 37 39  1  0
 37 40  1  0
 14 41  2  0
 41 42  1  0
 41 43  1  0
 43 44  1  0
 44 45  1  0
 44 46  1  0
 43 47  2  0
 47 48  1  0
 48 49  3  0
  8 50  2  0
 50 51  1  0
 50  2  1  0
 47 12  1  0
 35 22  1  0
M  END
>  <score>  (315) 
7.24546

$$$$

     RDKit          3D

 50 52  0  0  0  0  0  0  0  0999 V2000
    0.1026  144.4118   49.3092 H   0  0  0  0  0  0  0  0  0  0  0  0
    0.5583  144.0443   50.2292 C   0  0  0  0  0  0  0  0  0  0  0  0
    0.3478  144.7806   51.3979 C   0  0  0  0  0  0  0  0  0  0  0  0
   -0.2094  145.7108   51.3771 H   0  0  0  0  0  0  0  0  0  0  0  0
    0.8798  144.3378   52.6157 C   0  0  0  0  0  0  0  0  0  0  0  0
    0.7396  144.9073   53.5317 H   0  0  0  0  0  0  0  0  0  0  0  0
    1.6373  143.1569   52.6580 C   0  0  0  0  0  0  0  0  0  0  0  0
    2.2441  142.7005   53.7924 O   0  0  0  0  0  0  0  0  0  0  0  0
    2.7763  143.6373   54.6442 C   0  0  0  0  0  0  0  0  0  0  0  0
    2.9323  144.9024   54.2499 N   0  0  0  0  0  0  0  0  0  0  0  0
    3.4773  145.7429   55.0982 C   0  0  0  0  0  0  0  0  0  0  0  0
    3.6344  146.9417   54.5089 N   0  0  0  0  0  0  0  0  0  0  0  0
    3.3688  146.9694   53.5382 H   0  0  0  0  0  0  0  0  0  0  0  0
    3.6932  148.1104   55.2023 C   0  0  0  0  0  0  0  0  0  0  0  0
    3.7935  148.1071   56.4179 O   0  0  0  0  0  0  0  0  0  0  0  0
    3.6915  149.4286   54.4362 C   0  0  0  0  0  0  0  0  0  0  0  0
    4.4453  149.4203   53.6362 H   0  0  0  0  0  0  0  0  0  0  0  0
    3.9237  150.2050   55.1577 H   0  0  0  0  0  0  0  0  0  0  0  0
    2.3440  149.7627   53.8624 C   0  0  0  0  0  0  0  0  0  0  0  0
    1.5432  150.6660   54.5658 C   0  0  0  0  0  0  0  0  0  0  0  0
    1.8946  151.1064   55.4921 H   0  0  0  0  0  0  0  0  0  0  0  0
    0.2940  151.0503   54.0872 C   0  0  0  0  0  0  0  0  0  0  0  0
   -0.4159  151.9892   54.7834 O   0  0  0  0  0  0  0  0  0  0  0  0
   -1.4393  151.4030   55.5853 C   0  0  0  0  0  0  0  0  0  0  0  0
   -1.0064  150.6835   56.2857 H   0  0  0  0  0  0  0  0  0  0  0  0
   -2.1742  150.8910   54.9541 H   0  0  0  0  0  0  0  0  0  0  0  0
   -1.9427  152.1862   56.1591 H   0  0  0  0  0  0  0  0  0  0  0  0
   -0.1940  150.4742   52.9032 C   0  0  0  0  0  0  0  0  0  0  0  0
   -1.9256  150.9499   52.2334 Br  0  0  0  0  0  0  0  0  0  0  0  0
    0.6126  149.5733   52.1866 C   0  0  0  0  0  0  0  0  0  0  0  0
    0.2594  149.1584   51.2494 H   0  0  0  0  0  0  0  0  0  0  0  0
    1.8933  149.2218   52.6494 C   0  0  0  0  0  0  0  0  0  0  0  0
    2.7383  148.3800   51.9686 O   0  0  0  0  0  0  0  0  0  0  0  0
    2.1179  147.3005   51.2698 C   0  0  0  0  0  0  0  0  0  0  0  0
    1.4100  146.7842   51.9269 H   0  0  0  0  0  0  0  0  0  0  0  0
    2.8885  146.5882   50.9569 H   0  0  0  0  0  0  0  0  0  0  0  0
    1.5943  147.6667   50.3810 H   0  0  0  0  0  0  0  0  0  0  0  0
    3.8474  145.4291   56.3788 C   0  0  0  0  0  0  0  0  0  0  0  0
    4.2668  146.1587   57.0581 H   0  0  0  0  0  0  0  0  0  0  0  0
    3.7097  144.1313   56.7546 C   0  0  0  0  0  0  0  0  0  0  0  0
    4.1421  143.7765   57.9847 N   0  0  0  0  0  0  0  0  0  0  0  0
    4.4525  144.5014   58.6244 H   0  0  0  0  0  0  0  0  0  0  0  0
    4.0646  142.8011   58.2813 H   0  0  0  0  0  0  0  0  0  0  0  0
    3.1921  143.2095   55.8917 C   0  0  0  0  0  0  0  0  0  0  0  0
    3.1276  141.8313   56.2371 C   0  0  0  0  0  0  0  0  0  0  0  0
    3.0858  140.6881   56.4387 N   0  0  0  0  0  0  0  0  0  0  0  0
    1.8350  142.4261   51.4882 C   0  0  0  0  0  0  0  0  0  0  0  0
    2.4551  141.5382   51.5373 H   0  0  0  0  0  0  0  0  0  0  0  0
    1.2984  142.8537   50.2696 C   0  0  0  0  0  0  0  0  0  0  0  0
    1.4750  142.2666   49.3712 H   0  0  0  0  0  0  0  0  0  0  0  0
  1  2  1  0
  2  3  2  0
  3  4  1  0
  3  5  1  0
  5  6  1  0
  5  7  2  0
  7  8  1  0
  8  9  1  0
  9 10  2  0
 10 11  1  0
 11 12  1  0
 12 13  1  0
 12 14  1  0
 14 15  2  0
 14 16  1  0
 16 17  1  0
 16 18  1  0
 16 19  1  0
 19 20  2  0
 20 21  1  0
 20 22  1  0
 22 23  1  0
 23 24  1  0
 24 25  1  0
 24 26  1  0
 24 27  1  0
 22 28  2  0
 28 29  1  0
 28 30  1  0
 30 31  1  0
 30 32  2  0
 32 33  1  0
 33 34  1  0
 34 35  1  0
 34 36  1  0
 34 37  1  0
 11 38  2  0
 38 39  1  0
 38 40  1  0
 40 41  1  0
 41 42  1  0
 41 43  1  0
 40 44  2  0
 44 45  1  0
 45 46  3  0
  7 47  1  0
 47 48  1  0
 47 49  2  0
 49 50  1  0
 49  2  1  0
 44  9  1  0
 32 19  1  0
M  END
>  <score>  (316) 
7.24651

$$$$

     RDKit          3D

 49 51  0  0  0  0  0  0  0  0999 V2000
    3.7207  142.7005   49.8766 H   0  0  0  0  0  0  0  0  0  0  0  0
    3.1631  142.5492   50.7887 C   0  0  0  0  0  0  0  0  0  0  0  0
    3.6179  143.1135   51.9781 C   0  0  0  0  0  0  0  0  0  0  0  0
    4.5170  143.7149   51.9567 H   0  0  0  0  0  0  0  0  0  0  0  0
    2.9030  142.9722   53.1777 C   0  0  0  0  0  0  0  0  0  0  0  0
    3.2894  143.7412   54.3734 C   0  0  0  0  0  0  0  0  0  0  0  0
    3.4787  145.0320   54.1179 N   0  0  0  0  0  0  0  0  0  0  0  0
    3.7530  145.8581   55.0897 C   0  0  0  0  0  0  0  0  0  0  0  0
    3.7934  147.0885   54.5681 N   0  0  0  0  0  0  0  0  0  0  0  0
    3.5993  147.0794   53.5800 H   0  0  0  0  0  0  0  0  0  0  0  0
    3.7071  148.2554   55.2674 C   0  0  0  0  0  0  0  0  0  0  0  0
    3.7920  148.2407   56.4828 O   0  0  0  0  0  0  0  0  0  0  0  0
    3.6441  149.5642   54.4988 C   0  0  0  0  0  0  0  0  0  0  0  0
    3.8352  150.3771   55.1933 H   0  0  0  0  0  0  0  0  0  0  0  0
    4.4221  149.5656   53.7328 H   0  0  0  0  0  0  0  0  0  0  0  0
    2.3048  149.8235   53.8838 C   0  0  0  0  0  0  0  0  0  0  0  0
    1.4893  150.7375   54.5548 C   0  0  0  0  0  0  0  0  0  0  0  0
    1.8355  151.2040   55.4759 H   0  0  0  0  0  0  0  0  0  0  0  0
    0.2421  151.0730   54.0466 C   0  0  0  0  0  0  0  0  0  0  0  0
   -0.5104  151.9923   54.7243 O   0  0  0  0  0  0  0  0  0  0  0  0
   -1.5048  151.3947   55.5606 C   0  0  0  0  0  0  0  0  0  0  0  0
   -1.0578  150.6629   56.2389 H   0  0  0  0  0  0  0  0  0  0  0  0
   -1.9902  152.1701   56.1610 H   0  0  0  0  0  0  0  0  0  0  0  0
   -2.2657  150.8920   54.9566 H   0  0  0  0  0  0  0  0  0  0  0  0
   -0.2032  150.4684   52.8571 C   0  0  0  0  0  0  0  0  0  0  0  0
   -1.9351  150.8875   52.1594 Br  0  0  0  0  0  0  0  0  0  0  0  0
    0.6182  149.5481   52.1818 C   0  0  0  0  0  0  0  0  0  0  0  0
    0.2837  149.0818   51.2601 H   0  0  0  0  0  0  0  0  0  0  0  0
    1.8848  149.2147   52.6837 C   0  0  0  0  0  0  0  0  0  0  0  0
    2.7265  148.3327   52.0396 O   0  0  0  0  0  0  0  0  0  0  0  0
    2.0884  147.3089   51.2590 C   0  0  0  0  0  0  0  0  0  0  0  0
    1.5562  147.7331   50.4011 H   0  0  0  0  0  0  0  0  0  0  0  0
    1.3759  146.7558   51.8790 H   0  0  0  0  0  0  0  0  0  0  0  0
    2.8352  146.6015   50.8828 H   0  0  0  0  0  0  0  0  0  0  0  0
    3.8956  145.4855   56.3902 C   0  0  0  0  0  0  0  0  0  0  0  0
    4.1078  146.1942   57.1752 H   0  0  0  0  0  0  0  0  0  0  0  0
    3.7330  144.1598   56.6597 C   0  0  0  0  0  0  0  0  0  0  0  0
    3.9040  143.8093   57.9495 N   0  0  0  0  0  0  0  0  0  0  0  0
    4.0502  142.8232   58.1487 H   0  0  0  0  0  0  0  0  0  0  0  0
    4.3522  144.5039   58.5473 H   0  0  0  0  0  0  0  0  0  0  0  0
    3.4000  143.2494   55.6732 C   0  0  0  0  0  0  0  0  0  0  0  0
    3.2158  141.8709   55.9838 C   0  0  0  0  0  0  0  0  0  0  0  0
    3.0694  140.7437   56.2293 N   0  0  0  0  0  0  0  0  0  0  0  0
    1.6931  142.2709   53.1203 C   0  0  0  0  0  0  0  0  0  0  0  0
    1.0316  142.2112   53.9708 H   0  0  0  0  0  0  0  0  0  0  0  0
    1.2237  141.6992   51.9333 C   0  0  0  0  0  0  0  0  0  0  0  0
   -0.3197  140.8654   51.9499 Cl  0  0  0  0  0  0  0  0  0  0  0  0
    1.9597  141.8510   50.7521 C   0  0  0  0  0  0  0  0  0  0  0  0
    1.3601  141.2611   49.2290 Cl  0  0  0  0  0  0  0  0  0  0  0  0
  1  2  1  0
  2  3  2  0
  3  4  1  0
  3  5  1  0
  5  6  1  0
  6  7  2  0
  7  8  1  0
  8  9  1  0
  9 10  1  0
  9 11  1  0
 11 12  2  0
 11 13  1  0
 13 14  1  0
 13 15  1  0
 13 16  1  0
 16 17  2  0
 17 18  1  0
 17 19  1  0
 19 20  1  0
 20 21  1  0
 21 22  1  0
 21 23  1  0
 21 24  1  0
 19 25  2  0
 25 26  1  0
 25 27  1  0
 27 28  1  0
 27 29  2  0
 29 30  1  0
 30 31  1  0
 31 32  1  0
 31 33  1  0
 31 34  1  0
  8 35  2  0
 35 36  1  0
 35 37  1  0
 37 38  1  0
 38 39  1  0
 38 40  1  0
 37 41  2  0
 41 42  1  0
 42 43  3  0
  5 44  2  0
 44 45  1  0
 44 46  1  0
 46 47  1  0
 46 48  2  0
 48 49  1  0
 48  2  1  0
 41  6  1  0
 29 16  1  0
M  END
>  <score>  (317) 
7.25074

$$$$

     RDKit          3D

 60 62  0  0  0  0  0  0  0  0999 V2000
    0.2480  149.0972   51.2528 H   0  0  0  0  0  0  0  0  0  0  0  0
    0.6068  149.5496   52.1735 C   0  0  0  0  0  0  0  0  0  0  0  0
   -0.2057  150.4691   52.8545 C   0  0  0  0  0  0  0  0  0  0  0  0
   -1.9424  150.8942   52.1667 Br  0  0  0  0  0  0  0  0  0  0  0  0
    0.2560  151.0609   54.0428 C   0  0  0  0  0  0  0  0  0  0  0  0
   -0.4836  151.9920   54.7196 O   0  0  0  0  0  0  0  0  0  0  0  0
   -1.4870  151.3985   55.5470 C   0  0  0  0  0  0  0  0  0  0  0  0
   -1.9769  152.1686   56.1498 H   0  0  0  0  0  0  0  0  0  0  0  0
   -2.2447  150.9021   54.9342 H   0  0  0  0  0  0  0  0  0  0  0  0
   -1.0442  150.6623   56.2230 H   0  0  0  0  0  0  0  0  0  0  0  0
    1.4943  150.6874   54.5563 C   0  0  0  0  0  0  0  0  0  0  0  0
    1.8292  151.1211   55.4941 H   0  0  0  0  0  0  0  0  0  0  0  0
    2.3119  149.7841   53.8767 C   0  0  0  0  0  0  0  0  0  0  0  0
    3.6421  149.4731   54.4955 C   0  0  0  0  0  0  0  0  0  0  0  0
    3.8498  150.2521   55.2307 H   0  0  0  0  0  0  0  0  0  0  0  0
    4.4236  149.4908   53.7334 H   0  0  0  0  0  0  0  0  0  0  0  0
    3.6557  148.1265   55.1965 C   0  0  0  0  0  0  0  0  0  0  0  0
    3.7753  148.0861   56.4080 O   0  0  0  0  0  0  0  0  0  0  0  0
    3.6428  146.9715   54.4645 N   0  0  0  0  0  0  0  0  0  0  0  0
    3.3985  147.0268   53.4862 H   0  0  0  0  0  0  0  0  0  0  0  0
    3.6028  145.7316   54.9962 C   0  0  0  0  0  0  0  0  0  0  0  0
    3.1794  144.8420   54.1237 N   0  0  0  0  0  0  0  0  0  0  0  0
    3.0551  143.5695   54.5106 C   0  0  0  0  0  0  0  0  0  0  0  0
    2.3483  142.6268   53.5805 C   0  0  0  0  0  0  0  0  0  0  0  0
    1.2841  142.6863   53.7839 H   0  0  0  0  0  0  0  0  0  0  0  0
    2.6673  141.5998   53.7618 H   0  0  0  0  0  0  0  0  0  0  0  0
    2.5564  142.9848   52.1217 C   0  0  0  0  0  0  0  0  0  0  0  0
    1.7416  142.5784   51.5129 H   0  0  0  0  0  0  0  0  0  0  0  0
    2.5435  144.0701   52.0011 H   0  0  0  0  0  0  0  0  0  0  0  0
    3.8386  142.4569   51.6518 N   0  0  0  0  0  0  0  0  0  0  0  0
    4.2830  141.0866   51.9453 C   0  0  0  0  0  0  0  0  0  0  0  0
    4.5010  140.9817   53.0132 H   0  0  0  0  0  0  0  0  0  0  0  0
    3.5252  140.3415   51.6748 H   0  0  0  0  0  0  0  0  0  0  0  0
    5.5472  140.8861   51.1096 C   0  0  0  0  0  0  0  0  0  0  0  0
    6.4378  140.9865   51.7444 H   0  0  0  0  0  0  0  0  0  0  0  0
    5.5659  139.8894   50.6485 H   0  0  0  0  0  0  0  0  0  0  0  0
    5.5260  141.9865   50.0331 C   0  0  0  0  0  0  0  0  0  0  0  0
    6.5049  142.4504   49.9175 H   0  0  0  0  0  0  0  0  0  0  0  0
    5.2777  141.5611   49.0575 H   0  0  0  0  0  0  0  0  0  0  0  0
    4.4646  143.0229   50.4477 C   0  0  1  0  0  0  0  0  0  0  0  0
    4.9233  143.9834   50.7208 H   0  0  0  0  0  0  0  0  0  0  0  0
    3.4501  143.2728   49.3134 C   0  0  0  0  0  0  0  0  0  0  0  0
    3.0408  142.3305   48.9192 H   0  0  0  0  0  0  0  0  0  0  0  0
    2.6133  143.8825   49.6840 H   0  0  0  0  0  0  0  0  0  0  0  0
    3.9500  143.8097   48.4943 H   0  0  0  0  0  0  0  0  0  0  0  0
    3.3726  143.1695   55.8014 C   0  0  0  0  0  0  0  0  0  0  0  0
    3.2300  141.8051   56.1888 C   0  0  0  0  0  0  0  0  0  0  0  0
    3.1095  140.6749   56.4404 N   0  0  0  0  0  0  0  0  0  0  0  0
    3.7730  144.1368   56.6927 C   0  0  0  0  0  0  0  0  0  0  0  0
    3.9986  143.8545   57.9936 N   0  0  0  0  0  0  0  0  0  0  0  0
    4.4509  144.5775   58.5503 H   0  0  0  0  0  0  0  0  0  0  0  0
    4.1446  142.8746   58.2313 H   0  0  0  0  0  0  0  0  0  0  0  0
    3.9081  145.4332   56.3017 C   0  0  0  0  0  0  0  0  0  0  0  0
    4.2233  146.1921   56.9975 H   0  0  0  0  0  0  0  0  0  0  0  0
    1.8791  149.2097   52.6646 C   0  0  0  0  0  0  0  0  0  0  0  0
    2.7150  148.3376   52.0035 O   0  0  0  0  0  0  0  0  0  0  0  0
    2.0808  147.2964   51.2450 C   0  0  0  0  0  0  0  0  0  0  0  0
    1.5310  147.7013   50.3894 H   0  0  0  0  0  0  0  0  0  0  0  0
    2.8348  146.5953   50.8702 H   0  0  0  0  0  0  0  0  0  0  0  0
    1.3849  146.7407   51.8798 H   0  0  0  0  0  0  0  0  0  0  0  0
  1  2  1  0
  2  3  2  0
  3  4  1  0
  3  5  1  0
  5  6  1  0
  6  7  1  0
  7  8  1  0
  7  9  1  0
  7 10  1  0
  5 11  2  0
 11 12  1  0
 11 13  1  0
 13 14  1  0
 14 15  1  0
 14 16  1  0
 14 17  1  0
 17 18  2  0
 17 19  1  0
 19 20  1  0
 19 21  1  0
 21 22  2  0
 22 23  1  0
 23 24  1  0
 24 25  1  0
 24 26  1  0
 24 27  1  0
 27 28  1  0
 27 29  1  0
 27 30  1  0
 30 31  1  0
 31 32  1  0
 31 33  1  0
 31 34  1  0
 34 35  1  0
 34 36  1  0
 34 37  1  0
 37 38  1  0
 37 39  1  0
 37 40  1  0
 40 41  1  1
 40 42  1  0
 42 43  1  0
 42 44  1  0
 42 45  1  0
 23 46  2  0
 46 47  1  0
 47 48  3  0
 46 49  1  0
 49 50  1  0
 50 51  1  0
 50 52  1  0
 49 53  2  0
 53 54  1  0
 13 55  2  0
 55 56  1  0
 56 57  1  0
 57 58  1  0
 57 59  1  0
 57 60  1  0
 55  2  1  0
 53 21  1  0
 40 30  1  0
M  END
>  <score>  (318) 
7.25144

$$$$

     RDKit          3D

 56 58  0  0  0  0  0  0  0  0999 V2000
    0.2755  149.1591   51.2250 H   0  0  0  0  0  0  0  0  0  0  0  0
    0.6017  149.5641   52.1783 C   0  0  0  0  0  0  0  0  0  0  0  0
   -0.2004  150.4654   52.9001 C   0  0  0  0  0  0  0  0  0  0  0  0
   -1.9321  150.9713   52.2577 Br  0  0  0  0  0  0  0  0  0  0  0  0
    0.2997  151.0299   54.0865 C   0  0  0  0  0  0  0  0  0  0  0  0
   -0.3889  151.9767   54.7831 O   0  0  0  0  0  0  0  0  0  0  0  0
   -1.4194  151.4048   55.5856 C   0  0  0  0  0  0  0  0  0  0  0  0
   -1.0029  150.6821   56.2914 H   0  0  0  0  0  0  0  0  0  0  0  0
   -1.9282  152.1914   56.1505 H   0  0  0  0  0  0  0  0  0  0  0  0
   -2.1485  150.8905   54.9544 H   0  0  0  0  0  0  0  0  0  0  0  0
    1.5448  150.6585   54.5766 C   0  0  0  0  0  0  0  0  0  0  0  0
    1.9163  151.1171   55.4918 H   0  0  0  0  0  0  0  0  0  0  0  0
    2.3215  149.7392   53.8792 C   0  0  0  0  0  0  0  0  0  0  0  0
    3.6723  149.4107   54.4293 C   0  0  0  0  0  0  0  0  0  0  0  0
    3.9290  150.1755   55.1497 H   0  0  0  0  0  0  0  0  0  0  0  0
    4.4075  149.4154   53.6248 H   0  0  0  0  0  0  0  0  0  0  0  0
    3.7084  148.0969   55.1775 C   0  0  0  0  0  0  0  0  0  0  0  0
    3.7933  148.1055   56.3901 O   0  0  0  0  0  0  0  0  0  0  0  0
    3.6624  146.9124   54.5191 N   0  0  0  0  0  0  0  0  0  0  0  0
    3.3400  146.8900   53.5647 H   0  0  0  0  0  0  0  0  0  0  0  0
    3.5115  145.7450   55.1438 C   0  0  0  0  0  0  0  0  0  0  0  0
    2.9896  144.9273   54.2768 N   0  0  0  0  0  0  0  0  0  0  0  0
    2.8673  143.6672   54.6419 C   0  0  0  0  0  0  0  0  0  0  0  0
    2.3143  142.8147   53.6907 N   0  0  0  0  0  0  0  0  0  0  0  0
    3.1364  141.6841   53.1729 C   0  0  0  0  0  0  0  0  0  0  0  0
    4.1619  141.7420   53.5497 H   0  0  0  0  0  0  0  0  0  0  0  0
    2.7145  140.7611   53.5765 H   0  0  0  0  0  0  0  0  0  0  0  0
    3.2021  141.5490   51.6127 C   0  0  0  0  0  0  0  0  0  0  0  0
    4.1021  142.0543   51.2503 H   0  0  0  0  0  0  0  0  0  0  0  0
    3.3099  140.4863   51.3815 H   0  0  0  0  0  0  0  0  0  0  0  0
    2.0272  142.0861   50.8713 N   0  0  0  0  0  0  0  0  0  0  0  0
    1.7701  141.6959   49.4660 C   0  0  0  0  0  0  0  0  0  0  0  0
    1.0212  142.3695   49.0220 H   0  0  0  0  0  0  0  0  0  0  0  0
    1.3832  140.6709   49.4183 H   0  0  0  0  0  0  0  0  0  0  0  0
    2.6850  141.7588   48.8635 H   0  0  0  0  0  0  0  0  0  0  0  0
    0.8475  142.2955   51.7233 C   0  0  0  0  0  0  0  0  0  0  0  0
    0.0235  142.7163   51.1469 H   0  0  0  0  0  0  0  0  0  0  0  0
    0.5291  141.3331   52.1392 H   0  0  0  0  0  0  0  0  0  0  0  0
    1.1545  143.2623   52.8723 C   0  0  0  0  0  0  0  0  0  0  0  0
    1.3516  144.2663   52.4850 H   0  0  0  0  0  0  0  0  0  0  0  0
    0.2259  143.3111   53.4413 H   0  0  0  0  0  0  0  0  0  0  0  0
    3.2703  143.2008   55.8689 C   0  0  0  0  0  0  0  0  0  0  0  0
    3.1659  141.8144   56.1705 C   0  0  0  0  0  0  0  0  0  0  0  0
    3.0953  140.6780   56.4000 N   0  0  0  0  0  0  0  0  0  0  0  0
    3.7515  144.1159   56.7624 C   0  0  0  0  0  0  0  0  0  0  0  0
    4.1620  143.7649   57.9893 N   0  0  0  0  0  0  0  0  0  0  0  0
    4.0701  142.7906   58.2707 H   0  0  0  0  0  0  0  0  0  0  0  0
    4.4570  144.4907   58.6394 H   0  0  0  0  0  0  0  0  0  0  0  0
    3.8705  145.4233   56.4244 C   0  0  0  0  0  0  0  0  0  0  0  0
    4.2698  146.1406   57.1236 H   0  0  0  0  0  0  0  0  0  0  0  0
    1.8734  149.2096   52.6621 C   0  0  0  0  0  0  0  0  0  0  0  0
    2.7422  148.4033   51.9700 O   0  0  0  0  0  0  0  0  0  0  0  0
    2.1345  147.3169   51.2760 C   0  0  0  0  0  0  0  0  0  0  0  0
    1.5887  147.6729   50.3992 H   0  0  0  0  0  0  0  0  0  0  0  0
    2.8994  146.6078   50.9477 H   0  0  0  0  0  0  0  0  0  0  0  0
    1.4428  146.7945   51.9409 H   0  0  0  0  0  0  0  0  0  0  0  0
  1  2  1  0
  2  3  2  0
  3  4  1  0
  3  5  1  0
  5  6  1  0
  6  7  1  0
  7  8  1  0
  7  9  1  0
  7 10  1  0
  5 11  2  0
 11 12  1  0
 11 13  1  0
 13 14  1  0
 14 15  1  0
 14 16  1  0
 14 17  1  0
 17 18  2  0
 17 19  1  0
 19 20  1  0
 19 21  1  0
 21 22  2  0
 22 23  1  0
 23 24  1  0
 24 25  1  0
 25 26  1  0
 25 27  1  0
 25 28  1  0
 28 29  1  0
 28 30  1  0
 28 31  1  0
 31 32  1  0
 32 33  1  0
 32 34  1  0
 32 35  1  0
 31 36  1  0
 36 37  1  0
 36 38  1  0
 36 39  1  0
 39 40  1  0
 39 41  1  0
 23 42  2  0
 42 43  1  0
 43 44  3  0
 42 45  1  0
 45 46  1  0
 46 47  1  0
 46 48  1  0
 45 49  2  0
 49 50  1  0
 13 51  2  0
 51 52  1  0
 52 53  1  0
 53 54  1  0
 53 55  1  0
 53 56  1  0
 51  2  1  0
 49 21  1  0
 39 24  1  0
M  END
>  <score>  (319) 
7.25268

$$$$

     RDKit          3D

 57 59  0  0  0  0  0  0  0  0999 V2000
    0.3077  149.1996   51.2499 H   0  0  0  0  0  0  0  0  0  0  0  0
    0.6574  149.6035   52.1954 C   0  0  0  0  0  0  0  0  0  0  0  0
   -0.1458  150.4974   52.9339 C   0  0  0  0  0  0  0  0  0  0  0  0
   -1.8733  150.9858   52.2784 Br  0  0  0  0  0  0  0  0  0  0  0  0
    0.3322  151.0560   54.1312 C   0  0  0  0  0  0  0  0  0  0  0  0
   -0.3786  151.9752   54.8568 O   0  0  0  0  0  0  0  0  0  0  0  0
   -1.4250  151.4033   55.6447 C   0  0  0  0  0  0  0  0  0  0  0  0
   -1.0121  150.7015   56.3700 H   0  0  0  0  0  0  0  0  0  0  0  0
   -1.9384  152.2015   56.1875 H   0  0  0  0  0  0  0  0  0  0  0  0
   -2.1511  150.8755   55.0188 H   0  0  0  0  0  0  0  0  0  0  0  0
    1.5941  150.6860   54.5754 C   0  0  0  0  0  0  0  0  0  0  0  0
    1.9901  151.1406   55.4729 H   0  0  0  0  0  0  0  0  0  0  0  0
    2.3776  149.7839   53.8607 C   0  0  0  0  0  0  0  0  0  0  0  0
    3.7226  149.4768   54.4031 C   0  0  0  0  0  0  0  0  0  0  0  0
    3.9900  150.3492   54.9811 H   0  0  0  0  0  0  0  0  0  0  0  0
    4.4087  149.3639   53.5628 H   0  0  0  0  0  0  0  0  0  0  0  0
    3.7483  148.2149   55.2672 C   0  0  0  0  0  0  0  0  0  0  0  0
    3.8478  148.2706   56.4825 O   0  0  0  0  0  0  0  0  0  0  0  0
    3.7211  147.0006   54.6444 N   0  0  0  0  0  0  0  0  0  0  0  0
    3.5117  146.9505   53.6600 H   0  0  0  0  0  0  0  0  0  0  0  0
    3.5578  145.8109   55.2415 C   0  0  0  0  0  0  0  0  0  0  0  0
    3.0804  144.9871   54.3345 N   0  0  0  0  0  0  0  0  0  0  0  0
    2.9281  143.6988   54.6429 C   0  0  0  0  0  0  0  0  0  0  0  0
    2.3966  142.7546   53.5711 C   0  0  0  0  0  0  0  0  0  0  0  0
    1.8856  141.9674   54.1232 H   0  0  0  0  0  0  0  0  0  0  0  0
    3.5504  142.1333   52.7465 C   0  0  0  0  0  0  0  0  0  0  0  0
    4.1983  141.5466   53.4081 H   0  0  0  0  0  0  0  0  0  0  0  0
    4.1435  142.9329   52.2849 H   0  0  0  0  0  0  0  0  0  0  0  0
    3.0445  141.2169   51.6303 C   0  0  0  0  0  0  0  0  0  0  0  0
    2.5481  140.3513   52.0790 H   0  0  0  0  0  0  0  0  0  0  0  0
    3.8942  140.8488   51.0472 H   0  0  0  0  0  0  0  0  0  0  0  0
    2.1061  141.9366   50.7526 N   0  0  0  0  0  0  0  0  0  0  0  0
    1.7274  141.1630   49.5707 C   0  0  0  0  0  0  0  0  0  0  0  0
    2.5952  140.8045   49.0145 H   0  0  0  0  0  0  0  0  0  0  0  0
    1.1770  140.3189   49.9381 H   0  0  0  0  0  0  0  0  0  0  0  0
    1.0829  141.7239   48.8925 H   0  0  0  0  0  0  0  0  0  0  0  0
    0.9432  142.4578   51.4881 C   0  0  0  0  0  0  0  0  0  0  0  0
    0.3650  141.6341   51.9224 H   0  0  0  0  0  0  0  0  0  0  0  0
    0.2907  142.9921   50.7992 H   0  0  0  0  0  0  0  0  0  0  0  0
    1.3915  143.4185   52.5921 C   0  0  0  0  0  0  0  0  0  0  0  0
    0.5082  143.7680   53.1380 H   0  0  0  0  0  0  0  0  0  0  0  0
    1.8655  144.2864   52.1167 H   0  0  0  0  0  0  0  0  0  0  0  0
    3.2652  143.2175   55.9048 C   0  0  0  0  0  0  0  0  0  0  0  0
    3.1429  141.8334   56.2283 C   0  0  0  0  0  0  0  0  0  0  0  0
    3.0422  140.6940   56.4483 N   0  0  0  0  0  0  0  0  0  0  0  0
    3.7464  144.1247   56.8162 C   0  0  0  0  0  0  0  0  0  0  0  0
    4.1484  143.7271   58.0345 N   0  0  0  0  0  0  0  0  0  0  0  0
    4.0639  142.7497   58.2977 H   0  0  0  0  0  0  0  0  0  0  0  0
    4.5011  144.4296   58.6763 H   0  0  0  0  0  0  0  0  0  0  0  0
    3.8967  145.4455   56.5151 C   0  0  0  0  0  0  0  0  0  0  0  0
    4.3159  146.1341   57.2371 H   0  0  0  0  0  0  0  0  0  0  0  0
    1.9334  149.2362   52.6518 C   0  0  0  0  0  0  0  0  0  0  0  0
    2.7742  148.4029   51.9482 O   0  0  0  0  0  0  0  0  0  0  0  0
    2.1628  147.2965   51.2809 C   0  0  0  0  0  0  0  0  0  0  0  0
    1.4566  146.7838   51.9436 H   0  0  0  0  0  0  0  0  0  0  0  0
    1.6382  147.6364   50.3834 H   0  0  0  0  0  0  0  0  0  0  0  0
    2.9450  146.5873   50.9904 H   0  0  0  0  0  0  0  0  0  0  0  0
  1  2  1  0
  2  3  2  0
  3  4  1  0
  3  5  1  0
  5  6  1  0
  6  7  1  0
  7  8  1  0
  7  9  1  0
  7 10  1  0
  5 11  2  0
 11 12  1  0
 11 13  1  0
 13 14  1  0
 14 15  1  0
 14 16  1  0
 14 17  1  0
 17 18  2  0
 17 19  1  0
 19 20  1  0
 19 21  1  0
 21 22  2  0
 22 23  1  0
 23 24  1  0
 24 25  1  0
 24 26  1  0
 26 27  1  0
 26 28  1  0
 26 29  1  0
 29 30  1  0
 29 31  1  0
 29 32  1  0
 32 33  1  0
 33 34  1  0
 33 35  1  0
 33 36  1  0
 32 37  1  0
 37 38  1  0
 37 39  1  0
 37 40  1  0
 40 41  1  0
 40 42  1  0
 23 43  2  0
 43 44  1  0
 44 45  3  0
 43 46  1  0
 46 47  1  0
 47 48  1  0
 47 49  1  0
 46 50  2  0
 50 51  1  0
 13 52  2  0
 52 53  1  0
 53 54  1  0
 54 55  1  0
 54 56  1  0
 54 57  1  0
 52  2  1  0
 50 21  1  0
 40 24  1  0
M  END
>  <score>  (320) 
7.25357

$$$$

     RDKit          3D

 58 60  0  0  0  0  0  0  0  0999 V2000
    0.2546  149.1382   51.2434 H   0  0  0  0  0  0  0  0  0  0  0  0
    0.6052  149.5553   52.1806 C   0  0  0  0  0  0  0  0  0  0  0  0
   -0.2000  150.4657   52.8851 C   0  0  0  0  0  0  0  0  0  0  0  0
   -1.9366  150.9408   52.2285 Br  0  0  0  0  0  0  0  0  0  0  0  0
    0.2836  151.0380   54.0718 C   0  0  0  0  0  0  0  0  0  0  0  0
   -0.4175  151.9837   54.7615 O   0  0  0  0  0  0  0  0  0  0  0  0
   -1.4393  151.4017   55.5647 C   0  0  0  0  0  0  0  0  0  0  0  0
   -2.1768  150.8955   54.9351 H   0  0  0  0  0  0  0  0  0  0  0  0
   -1.0075  150.6734   56.2552 H   0  0  0  0  0  0  0  0  0  0  0  0
   -1.9396  152.1821   56.1445 H   0  0  0  0  0  0  0  0  0  0  0  0
    1.5247  150.6583   54.5663 C   0  0  0  0  0  0  0  0  0  0  0  0
    1.8785  151.0933   55.4959 H   0  0  0  0  0  0  0  0  0  0  0  0
    2.3248  149.7536   53.8723 C   0  0  0  0  0  0  0  0  0  0  0  0
    3.6653  149.4291   54.4594 C   0  0  0  0  0  0  0  0  0  0  0  0
    4.4251  149.4497   53.6783 H   0  0  0  0  0  0  0  0  0  0  0  0
    3.9043  150.1888   55.1972 H   0  0  0  0  0  0  0  0  0  0  0  0
    3.6889  148.0978   55.1845 C   0  0  0  0  0  0  0  0  0  0  0  0
    3.7778  148.0804   56.3978 O   0  0  0  0  0  0  0  0  0  0  0  0
    3.6646  146.9331   54.4857 N   0  0  0  0  0  0  0  0  0  0  0  0
    3.3418  146.9380   53.5280 H   0  0  0  0  0  0  0  0  0  0  0  0
    3.5498  145.7468   55.0944 C   0  0  0  0  0  0  0  0  0  0  0  0
    3.0526  144.8885   54.2525 N   0  0  0  0  0  0  0  0  0  0  0  0
    2.8928  143.6364   54.6702 C   0  0  0  0  0  0  0  0  0  0  0  0
    2.3315  142.7193   53.8242 O   0  0  0  0  0  0  0  0  0  0  0  0
    1.9743  143.1854   52.5079 C   0  0  0  0  0  0  0  0  0  0  0  0
    1.4960  144.1696   52.5594 H   0  0  0  0  0  0  0  0  0  0  0  0
    1.2570  142.4897   52.0663 H   0  0  0  0  0  0  0  0  0  0  0  0
    3.2174  143.2758   51.6210 C   0  0  0  0  0  0  0  0  0  0  0  0
    3.7568  142.3254   51.6625 H   0  0  0  0  0  0  0  0  0  0  0  0
    3.8826  144.0439   52.0260 H   0  0  0  0  0  0  0  0  0  0  0  0
    2.8946  143.6008   50.2166 N   0  0  0  0  0  0  0  0  0  0  0  0
    4.0532  143.9712   49.4047 C   0  0  0  0  0  0  0  0  0  0  0  0
    4.3031  145.0270   49.5458 H   0  0  0  0  0  0  0  0  0  0  0  0
    4.9195  143.3683   49.6818 H   0  0  0  0  0  0  0  0  0  0  0  0
    3.6571  143.6637   47.9760 C   0  0  0  0  0  0  0  0  0  0  0  0
    3.6323  144.5858   47.3861 H   0  0  0  0  0  0  0  0  0  0  0  0
    4.3669  142.9371   47.5714 H   0  0  0  0  0  0  0  0  0  0  0  0
    2.2734  143.0476   48.0035 C   0  0  0  0  0  0  0  0  0  0  0  0
    1.5459  143.7951   47.6803 H   0  0  0  0  0  0  0  0  0  0  0  0
    2.1992  142.1848   47.3351 H   0  0  0  0  0  0  0  0  0  0  0  0
    2.0364  142.6769   49.4603 C   0  0  0  0  0  0  0  0  0  0  0  0
    0.9783  142.7835   49.7233 H   0  0  0  0  0  0  0  0  0  0  0  0
    2.3398  141.6420   49.6473 H   0  0  0  0  0  0  0  0  0  0  0  0
    3.2611  143.2253   55.9254 C   0  0  0  0  0  0  0  0  0  0  0  0
    3.1637  141.8483   56.2727 C   0  0  0  0  0  0  0  0  0  0  0  0
    3.0937  140.7054   56.4737 N   0  0  0  0  0  0  0  0  0  0  0  0
    3.7465  144.1675   56.7794 C   0  0  0  0  0  0  0  0  0  0  0  0
    4.1202  143.8269   58.0261 N   0  0  0  0  0  0  0  0  0  0  0  0
    4.4637  144.5407   58.6608 H   0  0  0  0  0  0  0  0  0  0  0  0
    4.0908  142.8498   58.3037 H   0  0  0  0  0  0  0  0  0  0  0  0
    3.8856  145.4603   56.3888 C   0  0  0  0  0  0  0  0  0  0  0  0
    4.2710  146.2010   57.0698 H   0  0  0  0  0  0  0  0  0  0  0  0
    1.8826  149.2051   52.6568 C   0  0  0  0  0  0  0  0  0  0  0  0
    2.7354  148.3747   51.9702 O   0  0  0  0  0  0  0  0  0  0  0  0
    2.1106  147.3027   51.2627 C   0  0  0  0  0  0  0  0  0  0  0  0
    2.8768  146.5958   50.9303 H   0  0  0  0  0  0  0  0  0  0  0  0
    1.5738  147.6799   50.3871 H   0  0  0  0  0  0  0  0  0  0  0  0
    1.4089  146.7731   51.9163 H   0  0  0  0  0  0  0  0  0  0  0  0
  1  2  1  0
  2  3  2  0
  3  4  1  0
  3  5  1  0
  5  6  1  0
  6  7  1  0
  7  8  1  0
  7  9  1  0
  7 10  1  0
  5 11  2  0
 11 12  1  0
 11 13  1  0
 13 14  1  0
 14 15  1  0
 14 16  1  0
 14 17  1  0
 17 18  2  0
 17 19  1  0
 19 20  1  0
 19 21  1  0
 21 22  2  0
 22 23  1  0
 23 24  1  0
 24 25  1  0
 25 26  1  0
 25 27  1  0
 25 28  1  0
 28 29  1  0
 28 30  1  0
 28 31  1  0
 31 32  1  0
 32 33  1  0
 32 34  1  0
 32 35  1  0
 35 36  1  0
 35 37  1  0
 35 38  1  0
 38 39  1  0
 38 40  1  0
 38 41  1  0
 41 42  1  0
 41 43  1  0
 23 44  2  0
 44 45  1  0
 45 46  3  0
 44 47  1  0
 47 48  1  0
 48 49  1  0
 48 50  1  0
 47 51  2  0
 51 52  1  0
 13 53  2  0
 53 54  1  0
 54 55  1  0
 55 56  1  0
 55 57  1  0
 55 58  1  0
 53  2  1  0
 51 21  1  0
 41 31  1  0
M  END
>  <score>  (321) 
7.2536

$$$$

     RDKit          3D

 56 58  0  0  0  0  0  0  0  0999 V2000
    5.5981  142.6219   49.2843 H   0  0  0  0  0  0  0  0  0  0  0  0
    4.9012  142.5960   50.1155 C   0  0  0  0  0  0  0  0  0  0  0  0
    3.7911  143.4428   50.1183 C   0  0  0  0  0  0  0  0  0  0  0  0
    3.6163  144.1073   49.2787 H   0  0  0  0  0  0  0  0  0  0  0  0
    2.9412  143.4715   51.2251 C   0  0  0  0  0  0  0  0  0  0  0  0
    2.0962  144.1513   51.2403 H   0  0  0  0  0  0  0  0  0  0  0  0
    3.1975  142.6654   52.3373 C   0  0  0  0  0  0  0  0  0  0  0  0
    2.3362  142.7972   53.5755 C   0  0  0  0  0  0  0  0  0  0  0  0
    1.3572  143.1920   53.2961 H   0  0  0  0  0  0  0  0  0  0  0  0
    2.2182  141.8093   54.0220 H   0  0  0  0  0  0  0  0  0  0  0  0
    2.9162  143.7036   54.6311 C   0  0  0  0  0  0  0  0  0  0  0  0
    3.0483  144.9921   54.3248 N   0  0  0  0  0  0  0  0  0  0  0  0
    3.5470  145.8078   55.2264 C   0  0  0  0  0  0  0  0  0  0  0  0
    3.7197  146.9877   54.6224 N   0  0  0  0  0  0  0  0  0  0  0  0
    3.4821  146.9356   53.6428 H   0  0  0  0  0  0  0  0  0  0  0  0
    3.7454  148.1953   55.2523 C   0  0  0  0  0  0  0  0  0  0  0  0
    3.8350  148.2516   56.4702 O   0  0  0  0  0  0  0  0  0  0  0  0
    3.7094  149.4678   54.4105 C   0  0  0  0  0  0  0  0  0  0  0  0
    4.4015  149.3778   53.5733 H   0  0  0  0  0  0  0  0  0  0  0  0
    3.9814  150.3249   55.0124 H   0  0  0  0  0  0  0  0  0  0  0  0
    2.3602  149.7701   53.8649 C   0  0  0  0  0  0  0  0  0  0  0  0
    1.5824  150.6796   54.5778 C   0  0  0  0  0  0  0  0  0  0  0  0
    1.9801  151.1364   55.4775 H   0  0  0  0  0  0  0  0  0  0  0  0
    0.3240  151.0499   54.1239 C   0  0  0  0  0  0  0  0  0  0  0  0
   -0.3796  151.9757   54.8459 O   0  0  0  0  0  0  0  0  0  0  0  0
   -1.4225  151.4028   55.6343 C   0  0  0  0  0  0  0  0  0  0  0  0
   -1.9338  152.2022   56.1781 H   0  0  0  0  0  0  0  0  0  0  0  0
   -1.0081  150.6960   56.3556 H   0  0  0  0  0  0  0  0  0  0  0  0
   -2.1478  150.8782   55.0048 H   0  0  0  0  0  0  0  0  0  0  0  0
   -0.1561  150.4897   52.9257 C   0  0  0  0  0  0  0  0  0  0  0  0
   -1.8869  150.9866   52.2778 Br  0  0  0  0  0  0  0  0  0  0  0  0
    0.6452  149.5920   52.1881 C   0  0  0  0  0  0  0  0  0  0  0  0
    0.3019  149.1914   51.2390 H   0  0  0  0  0  0  0  0  0  0  0  0
    1.9195  149.2264   52.6511 C   0  0  0  0  0  0  0  0  0  0  0  0
    2.7708  148.4053   51.9477 O   0  0  0  0  0  0  0  0  0  0  0  0
    2.1605  147.3008   51.2797 C   0  0  0  0  0  0  0  0  0  0  0  0
    1.4807  146.7703   51.9569 H   0  0  0  0  0  0  0  0  0  0  0  0
    1.6052  147.6473   50.4026 H   0  0  0  0  0  0  0  0  0  0  0  0
    2.9438  146.6070   50.9560 H   0  0  0  0  0  0  0  0  0  0  0  0
    3.8947  145.4475   56.5000 C   0  0  0  0  0  0  0  0  0  0  0  0
    4.3142  146.1306   57.2282 H   0  0  0  0  0  0  0  0  0  0  0  0
    3.7450  144.1263   56.7985 C   0  0  0  0  0  0  0  0  0  0  0  0
    4.1462  143.7340   58.0221 N   0  0  0  0  0  0  0  0  0  0  0  0
    4.4936  144.4357   58.6680 H   0  0  0  0  0  0  0  0  0  0  0  0
    4.0667  142.7586   58.2912 H   0  0  0  0  0  0  0  0  0  0  0  0
    3.2619  143.2148   55.8865 C   0  0  0  0  0  0  0  0  0  0  0  0
    3.1445  141.8283   56.2086 C   0  0  0  0  0  0  0  0  0  0  0  0
    3.0508  140.6910   56.4481 N   0  0  0  0  0  0  0  0  0  0  0  0
    4.2704  141.7656   52.3166 C   0  0  0  0  0  0  0  0  0  0  0  0
    4.4191  140.9895   53.4384 O   0  0  0  0  0  0  0  0  0  0  0  0
    5.6023  140.2024   53.4978 C   0  0  0  0  0  0  0  0  0  0  0  0
    5.7368  139.8073   54.5117 H   0  0  0  0  0  0  0  0  0  0  0  0
    6.4795  140.8023   53.2321 H   0  0  0  0  0  0  0  0  0  0  0  0
    5.4925  139.3692   52.7989 H   0  0  0  0  0  0  0  0  0  0  0  0
    5.1292  141.7420   51.2001 C   0  0  0  0  0  0  0  0  0  0  0  0
    6.0178  141.1183   51.2246 H   0  0  0  0  0  0  0  0  0  0  0  0
  1  2  1  0
  2  3  2  0
  3  4  1  0
  3  5  1  0
  5  6  1  0
  5  7  2  0
  7  8  1  0
  8  9  1  0
  8 10  1  0
  8 11  1  0
 11 12  2  0
 12 13  1  0
 13 14  1  0
 14 15  1  0
 14 16  1  0
 16 17  2  0
 16 18  1  0
 18 19  1  0
 18 20  1  0
 18 21  1  0
 21 22  2  0
 22 23  1  0
 22 24  1  0
 24 25  1  0
 25 26  1  0
 26 27  1  0
 26 28  1  0
 26 29  1  0
 24 30  2  0
 30 31  1  0
 30 32  1  0
 32 33  1  0
 32 34  2  0
 34 35  1  0
 35 36  1  0
 36 37  1  0
 36 38  1  0
 36 39  1  0
 13 40  2  0
 40 41  1  0
 40 42  1  0
 42 43  1  0
 43 44  1  0
 43 45  1  0
 42 46  2  0
 46 47  1  0
 47 48  3  0
  7 49  1  0
 49 50  1  0
 50 51  1  0
 51 52  1  0
 51 53  1  0
 51 54  1  0
 49 55  2  0
 55 56  1  0
 55  2  1  0
 46 11  1  0
 34 21  1  0
M  END
>  <score>  (322) 
7.25568

$$$$

     RDKit          3D

 51 53  0  0  0  0  0  0  0  0999 V2000
   -0.8846  145.0551   49.3140 H   0  0  0  0  0  0  0  0  0  0  0  0
   -0.0613  144.5964   49.0684 O   0  0  0  0  0  0  0  0  0  0  0  0
    0.5500  144.1531   50.2058 C   0  0  0  0  0  0  0  0  0  0  0  0
    1.3047  142.9773   50.2274 C   0  0  0  0  0  0  0  0  0  0  0  0
    1.4734  142.4295   49.3086 H   0  0  0  0  0  0  0  0  0  0  0  0
    1.8409  142.4998   51.4353 C   0  0  0  0  0  0  0  0  0  0  0  0
    2.4311  141.5886   51.4770 H   0  0  0  0  0  0  0  0  0  0  0  0
    1.6491  143.2012   52.6265 C   0  0  0  0  0  0  0  0  0  0  0  0
    2.2329  142.7183   53.7720 O   0  0  0  0  0  0  0  0  0  0  0  0
    2.7671  143.6479   54.6284 C   0  0  0  0  0  0  0  0  0  0  0  0
    2.9257  144.9160   54.2424 N   0  0  0  0  0  0  0  0  0  0  0  0
    3.4734  145.7478   55.0886 C   0  0  0  0  0  0  0  0  0  0  0  0
    3.6447  146.9365   54.4982 N   0  0  0  0  0  0  0  0  0  0  0  0
    3.3488  146.9625   53.5372 H   0  0  0  0  0  0  0  0  0  0  0  0
    3.6934  148.1043   55.1872 C   0  0  0  0  0  0  0  0  0  0  0  0
    3.7825  148.0890   56.4021 O   0  0  0  0  0  0  0  0  0  0  0  0
    3.6780  149.4273   54.4392 C   0  0  0  0  0  0  0  0  0  0  0  0
    4.4319  149.4312   53.6448 H   0  0  0  0  0  0  0  0  0  0  0  0
    3.9108  150.1983   55.1650 H   0  0  0  0  0  0  0  0  0  0  0  0
    2.3350  149.7614   53.8661 C   0  0  0  0  0  0  0  0  0  0  0  0
    1.5363  150.6653   54.5645 C   0  0  0  0  0  0  0  0  0  0  0  0
    1.8887  151.1078   55.4888 H   0  0  0  0  0  0  0  0  0  0  0  0
    0.2901  151.0424   54.0812 C   0  0  0  0  0  0  0  0  0  0  0  0
   -0.4131  151.9851   54.7737 O   0  0  0  0  0  0  0  0  0  0  0  0
   -1.4369  151.4041   55.5769 C   0  0  0  0  0  0  0  0  0  0  0  0
   -2.1725  150.8928   54.9495 H   0  0  0  0  0  0  0  0  0  0  0  0
   -1.9404  152.1842   56.1530 H   0  0  0  0  0  0  0  0  0  0  0  0
   -1.0083  150.6826   56.2752 H   0  0  0  0  0  0  0  0  0  0  0  0
   -0.1971  150.4697   52.8977 C   0  0  0  0  0  0  0  0  0  0  0  0
   -1.9302  150.9484   52.2348 Br  0  0  0  0  0  0  0  0  0  0  0  0
    0.6096  149.5663   52.1876 C   0  0  0  0  0  0  0  0  0  0  0  0
    0.2613  149.1529   51.2499 H   0  0  0  0  0  0  0  0  0  0  0  0
    1.8869  149.2162   52.6569 C   0  0  0  0  0  0  0  0  0  0  0  0
    2.7362  148.3807   51.9749 O   0  0  0  0  0  0  0  0  0  0  0  0
    2.1159  147.3052   51.2699 C   0  0  0  0  0  0  0  0  0  0  0  0
    1.5911  147.6715   50.3832 H   0  0  0  0  0  0  0  0  0  0  0  0
    1.4071  146.7877   51.9222 H   0  0  0  0  0  0  0  0  0  0  0  0
    2.8810  146.5902   50.9534 H   0  0  0  0  0  0  0  0  0  0  0  0
    3.8394  145.4304   56.3660 C   0  0  0  0  0  0  0  0  0  0  0  0
    4.2640  146.1456   57.0515 H   0  0  0  0  0  0  0  0  0  0  0  0
    3.6956  144.1368   56.7298 C   0  0  0  0  0  0  0  0  0  0  0  0
    4.1255  143.7758   57.9505 N   0  0  0  0  0  0  0  0  0  0  0  0
    4.4396  144.5008   58.5886 H   0  0  0  0  0  0  0  0  0  0  0  0
    4.0554  142.8051   58.2461 H   0  0  0  0  0  0  0  0  0  0  0  0
    3.1790  143.2222   55.8668 C   0  0  0  0  0  0  0  0  0  0  0  0
    3.1142  141.8430   56.1998 C   0  0  0  0  0  0  0  0  0  0  0  0
    3.0803  140.7018   56.4069 N   0  0  0  0  0  0  0  0  0  0  0  0
    0.8832  144.3780   52.5996 C   0  0  0  0  0  0  0  0  0  0  0  0
    0.7178  144.9265   53.5280 H   0  0  0  0  0  0  0  0  0  0  0  0
    0.3527  144.8523   51.3893 C   0  0  0  0  0  0  0  0  0  0  0  0
   -0.1968  145.7874   51.3660 H   0  0  0  0  0  0  0  0  0  0  0  0
  1  2  1  0
  2  3  1  0
  3  4  2  0
  4  5  1  0
  4  6  1  0
  6  7  1  0
  6  8  2  0
  8  9  1  0
  9 10  1  0
 10 11  2  0
 11 12  1  0
 12 13  1  0
 13 14  1  0
 13 15  1  0
 15 16  2  0
 15 17  1  0
 17 18  1  0
 17 19  1  0
 17 20  1  0
 20 21  2  0
 21 22  1  0
 21 23  1  0
 23 24  1  0
 24 25  1  0
 25 26  1  0
 25 27  1  0
 25 28  1  0
 23 29  2  0
 29 30  1  0
 29 31  1  0
 31 32  1  0
 31 33  2  0
 33 34  1  0
 34 35  1  0
 35 36  1  0
 35 37  1  0
 35 38  1  0
 12 39  2  0
 39 40  1  0
 39 41  1  0
 41 42  1  0
 42 43  1  0
 42 44  1  0
 41 45  2  0
 45 46  1  0
 46 47  3  0
  8 48  1  0
 48 49  1  0
 48 50  2  0
 50 51  1  0
 50  3  1  0
 45 10  1  0
 33 20  1  0
M  END
>  <score>  (323) 
7.25663

$$$$

     RDKit          3D

 49 51  0  0  0  0  0  0  0  0999 V2000
    1.4512  141.3421   49.7361 H   0  0  0  0  0  0  0  0  0  0  0  0
    1.8450  141.8097   50.6316 C   0  0  0  0  0  0  0  0  0  0  0  0
    3.0408  142.5281   50.5894 C   0  0  0  0  0  0  0  0  0  0  0  0
    3.7028  142.6685   49.4143 F   0  0  0  0  0  0  0  0  0  0  0  0
    3.5110  143.1328   51.7630 C   0  0  0  0  0  0  0  0  0  0  0  0
    4.4134  143.7325   51.7065 H   0  0  0  0  0  0  0  0  0  0  0  0
    2.8257  143.0106   52.9921 C   0  0  0  0  0  0  0  0  0  0  0  0
    3.2621  143.7644   54.2022 C   0  0  0  0  0  0  0  0  0  0  0  0
    3.4702  145.0576   53.9718 N   0  0  0  0  0  0  0  0  0  0  0  0
    3.7515  145.8629   54.9583 C   0  0  0  0  0  0  0  0  0  0  0  0
    3.7808  147.1169   54.4781 N   0  0  0  0  0  0  0  0  0  0  0  0
    3.5550  147.2036   53.4946 H   0  0  0  0  0  0  0  0  0  0  0  0
    3.6969  148.2313   55.2460 C   0  0  0  0  0  0  0  0  0  0  0  0
    3.7796  148.1724   56.4608 O   0  0  0  0  0  0  0  0  0  0  0  0
    3.6396  149.5560   54.5170 C   0  0  0  0  0  0  0  0  0  0  0  0
    4.4229  149.5555   53.7628 H   0  0  0  0  0  0  0  0  0  0  0  0
    3.8417  150.3691   55.2115 H   0  0  0  0  0  0  0  0  0  0  0  0
    2.3036  149.8092   53.8797 C   0  0  0  0  0  0  0  0  0  0  0  0
    1.4757  150.7000   54.5570 C   0  0  0  0  0  0  0  0  0  0  0  0
    1.8010  151.1228   55.5033 H   0  0  0  0  0  0  0  0  0  0  0  0
    0.2416  151.0634   54.0373 C   0  0  0  0  0  0  0  0  0  0  0  0
   -0.4932  151.9953   54.7113 O   0  0  0  0  0  0  0  0  0  0  0  0
   -1.4896  151.4030   55.5427 C   0  0  0  0  0  0  0  0  0  0  0  0
   -2.2449  150.9017   54.9321 H   0  0  0  0  0  0  0  0  0  0  0  0
   -1.9807  152.1717   56.1490 H   0  0  0  0  0  0  0  0  0  0  0  0
   -1.0336  150.6668   56.2084 H   0  0  0  0  0  0  0  0  0  0  0  0
   -0.2151  150.4688   52.8537 C   0  0  0  0  0  0  0  0  0  0  0  0
   -1.9496  150.8890   52.1651 Br  0  0  0  0  0  0  0  0  0  0  0  0
    0.6002  149.5491   52.1812 C   0  0  0  0  0  0  0  0  0  0  0  0
    0.2336  149.0944   51.2683 H   0  0  0  0  0  0  0  0  0  0  0  0
    1.8791  149.2179   52.6689 C   0  0  0  0  0  0  0  0  0  0  0  0
    2.7184  148.3491   52.0056 O   0  0  0  0  0  0  0  0  0  0  0  0
    2.0804  147.3069   51.2510 C   0  0  0  0  0  0  0  0  0  0  0  0
    1.3743  146.7521   51.8755 H   0  0  0  0  0  0  0  0  0  0  0  0
    1.5389  147.7099   50.3906 H   0  0  0  0  0  0  0  0  0  0  0  0
    2.8351  146.6045   50.8871 H   0  0  0  0  0  0  0  0  0  0  0  0
    3.8899  145.4699   56.2542 C   0  0  0  0  0  0  0  0  0  0  0  0
    4.1381  146.1831   57.0249 H   0  0  0  0  0  0  0  0  0  0  0  0
    3.6780  144.1517   56.5145 C   0  0  0  0  0  0  0  0  0  0  0  0
    3.8209  143.7860   57.8056 N   0  0  0  0  0  0  0  0  0  0  0  0
    4.3058  144.4606   58.4005 H   0  0  0  0  0  0  0  0  0  0  0  0
    3.9980  142.7965   57.9555 H   0  0  0  0  0  0  0  0  0  0  0  0
    3.3504  143.2588   55.5062 C   0  0  0  0  0  0  0  0  0  0  0  0
    3.1327  141.8835   55.8171 C   0  0  0  0  0  0  0  0  0  0  0  0
    2.9810  140.7632   56.0916 N   0  0  0  0  0  0  0  0  0  0  0  0
    1.6302  142.2806   52.9865 C   0  0  0  0  0  0  0  0  0  0  0  0
    1.0328  142.2613   53.8826 H   0  0  0  0  0  0  0  0  0  0  0  0
    1.1419  141.6738   51.8277 C   0  0  0  0  0  0  0  0  0  0  0  0
   -0.0229  140.9882   51.8464 F   0  0  0  0  0  0  0  0  0  0  0  0
  1  2  1  0
  2  3  2  0
  3  4  1  0
  3  5  1  0
  5  6  1  0
  5  7  2  0
  7  8  1  0
  8  9  2  0
  9 10  1  0
 10 11  1  0
 11 12  1  0
 11 13  1  0
 13 14  2  0
 13 15  1  0
 15 16  1  0
 15 17  1  0
 15 18  1  0
 18 19  2  0
 19 20  1  0
 19 21  1  0
 21 22  1  0
 22 23  1  0
 23 24  1  0
 23 25  1  0
 23 26  1  0
 21 27  2  0
 27 28  1  0
 27 29  1  0
 29 30  1  0
 29 31  2  0
 31 32  1  0
 32 33  1  0
 33 34  1  0
 33 35  1  0
 33 36  1  0
 10 37  2  0
 37 38  1  0
 37 39  1  0
 39 40  1  0
 40 41  1  0
 40 42  1  0
 39 43  2  0
 43 44  1  0
 44 45  3  0
  7 46  1  0
 46 47  1  0
 46 48  2  0
 48 49  1  0
 48  2  1  0
 43  8  1  0
 31 18  1  0
M  END
>  <score>  (324) 
7.25673

$$$$

     RDKit          3D

 51 53  0  0  0  0  0  0  0  0999 V2000
    6.2163  142.5616   49.7062 H   0  0  0  0  0  0  0  0  0  0  0  0
    5.2953  142.4004   50.2617 C   0  0  0  0  0  0  0  0  0  0  0  0
    4.2654  143.7267   50.8076 S   0  0  0  0  0  0  0  0  0  0  0  0
    3.1625  142.5844   51.5741 C   0  0  0  0  0  0  0  0  0  0  0  0
    1.9646  143.0163   52.3909 C   0  0  0  0  0  0  0  0  0  0  0  0
    1.7099  144.0738   52.2249 H   0  0  0  0  0  0  0  0  0  0  0  0
    1.0916  142.4232   52.0958 H   0  0  0  0  0  0  0  0  0  0  0  0
    2.2735  142.7468   53.8006 N   0  0  0  0  0  0  0  0  0  0  0  0
    2.4200  141.7857   54.0692 H   0  0  0  0  0  0  0  0  0  0  0  0
    2.8894  143.6323   54.6351 C   0  0  0  0  0  0  0  0  0  0  0  0
    3.0194  144.8616   54.1939 N   0  0  0  0  0  0  0  0  0  0  0  0
    3.5204  145.7230   55.0394 C   0  0  0  0  0  0  0  0  0  0  0  0
    3.6326  146.9411   54.4756 N   0  0  0  0  0  0  0  0  0  0  0  0
    3.3900  146.9891   53.4995 H   0  0  0  0  0  0  0  0  0  0  0  0
    3.6808  148.1010   55.1905 C   0  0  0  0  0  0  0  0  0  0  0  0
    3.7725  148.0709   56.4050 O   0  0  0  0  0  0  0  0  0  0  0  0
    3.6682  149.4412   54.4716 C   0  0  0  0  0  0  0  0  0  0  0  0
    4.4353  149.4379   53.6979 H   0  0  0  0  0  0  0  0  0  0  0  0
    3.8998  150.2284   55.1854 H   0  0  0  0  0  0  0  0  0  0  0  0
    2.3339  149.7686   53.8697 C   0  0  0  0  0  0  0  0  0  0  0  0
    1.5267  150.6722   54.5635 C   0  0  0  0  0  0  0  0  0  0  0  0
    1.8679  151.0963   55.5017 H   0  0  0  0  0  0  0  0  0  0  0  0
    0.2838  151.0531   54.0682 C   0  0  0  0  0  0  0  0  0  0  0  0
   -0.4411  151.9846   54.7584 O   0  0  0  0  0  0  0  0  0  0  0  0
   -1.4623  151.4021   55.5687 C   0  0  0  0  0  0  0  0  0  0  0  0
   -1.0270  150.6728   56.2544 H   0  0  0  0  0  0  0  0  0  0  0  0
   -2.2078  150.8976   54.9480 H   0  0  0  0  0  0  0  0  0  0  0  0
   -1.9629  152.1781   56.1569 H   0  0  0  0  0  0  0  0  0  0  0  0
   -0.1881  150.4774   52.8799 C   0  0  0  0  0  0  0  0  0  0  0  0
   -1.9227  150.9220   52.2031 Br  0  0  0  0  0  0  0  0  0  0  0  0
    0.6187  149.5673   52.1827 C   0  0  0  0  0  0  0  0  0  0  0  0
    0.2511  149.1347   51.2607 H   0  0  0  0  0  0  0  0  0  0  0  0
    1.8949  149.2145   52.6549 C   0  0  0  0  0  0  0  0  0  0  0  0
    2.7319  148.3594   51.9755 O   0  0  0  0  0  0  0  0  0  0  0  0
    2.1016  147.2947   51.2535 C   0  0  0  0  0  0  0  0  0  0  0  0
    1.4164  146.7384   51.9002 H   0  0  0  0  0  0  0  0  0  0  0  0
    1.5427  147.6762   50.3946 H   0  0  0  0  0  0  0  0  0  0  0  0
    2.8672  146.6022   50.8921 H   0  0  0  0  0  0  0  0  0  0  0  0
    3.8803  145.4293   56.3293 C   0  0  0  0  0  0  0  0  0  0  0  0
    4.2777  146.1849   56.9851 H   0  0  0  0  0  0  0  0  0  0  0  0
    3.7322  144.1446   56.7386 C   0  0  0  0  0  0  0  0  0  0  0  0
    4.0319  143.8280   58.0113 N   0  0  0  0  0  0  0  0  0  0  0  0
    4.0996  142.8444   58.2531 H   0  0  0  0  0  0  0  0  0  0  0  0
    4.4749  144.5326   58.5969 H   0  0  0  0  0  0  0  0  0  0  0  0
    3.2650  143.1977   55.8793 C   0  0  0  0  0  0  0  0  0  0  0  0
    3.1492  141.8225   56.2227 C   0  0  0  0  0  0  0  0  0  0  0  0
    3.0606  140.6776   56.4097 N   0  0  0  0  0  0  0  0  0  0  0  0
    3.5711  141.2714   51.3996 C   0  0  0  0  0  0  0  0  0  0  0  0
    3.0513  140.4021   51.8016 H   0  0  0  0  0  0  0  0  0  0  0  0
    4.8249  141.1646   50.6455 C   0  0  0  0  0  0  0  0  0  0  0  0
    5.3474  140.2259   50.4380 H   0  0  0  0  0  0  0  0  0  0  0  0
  1  2  1  0
  2  3  1  0
  3  4  1  0
  4  5  1  0
  5  6  1  0
  5  7  1  0
  5  8  1  0
  8  9  1  0
  8 10  1  0
 10 11  2  0
 11 12  1  0
 12 13  1  0
 13 14  1  0
 13 15  1  0
 15 16  2  0
 15 17  1  0
 17 18  1  0
 17 19  1  0
 17 20  1  0
 20 21  2  0
 21 22  1  0
 21 23  1  0
 23 24  1  0
 24 25  1  0
 25 26  1  0
 25 27  1  0
 25 28  1  0
 23 29  2  0
 29 30  1  0
 29 31  1  0
 31 32  1  0
 31 33  2  0
 33 34  1  0
 34 35  1  0
 35 36  1  0
 35 37  1  0
 35 38  1  0
 12 39  2  0
 39 40  1  0
 39 41  1  0
 41 42  1  0
 42 43  1  0
 42 44  1  0
 41 45  2  0
 45 46  1  0
 46 47  3  0
  4 48  2  0
 48 49  1  0
 48 50  1  0
 50 51  1  0
 50  2  2  0
 45 10  1  0
 33 20  1  0
M  END
>  <score>  (325) 
7.25814

$$$$

     RDKit          3D

 49 51  0  0  0  0  0  0  0  0999 V2000
    3.5196  142.8520   49.7485 H   0  0  0  0  0  0  0  0  0  0  0  0
    2.9922  142.6708   50.6801 C   0  0  0  0  0  0  0  0  0  0  0  0
    3.5200  143.1902   51.8726 C   0  0  0  0  0  0  0  0  0  0  0  0
    4.4376  143.7728   51.8188 H   0  0  0  0  0  0  0  0  0  0  0  0
    2.8184  143.0510   53.0907 C   0  0  0  0  0  0  0  0  0  0  0  0
    3.2245  143.7838   54.3150 C   0  0  0  0  0  0  0  0  0  0  0  0
    3.4161  145.0700   54.0742 N   0  0  0  0  0  0  0  0  0  0  0  0
    3.7406  145.8610   55.0536 C   0  0  0  0  0  0  0  0  0  0  0  0
    3.7928  147.0784   54.5266 N   0  0  0  0  0  0  0  0  0  0  0  0
    3.4763  147.0969   53.5676 H   0  0  0  0  0  0  0  0  0  0  0  0
    3.7206  148.2154   55.2537 C   0  0  0  0  0  0  0  0  0  0  0  0
    3.7867  148.1861   56.4736 O   0  0  0  0  0  0  0  0  0  0  0  0
    3.6551  149.5117   54.4777 C   0  0  0  0  0  0  0  0  0  0  0  0
    3.8661  150.3125   55.1752 H   0  0  0  0  0  0  0  0  0  0  0  0
    4.4177  149.5081   53.6942 H   0  0  0  0  0  0  0  0  0  0  0  0
    2.3072  149.7766   53.8748 C   0  0  0  0  0  0  0  0  0  0  0  0
    1.4930  150.6731   54.5609 C   0  0  0  0  0  0  0  0  0  0  0  0
    1.8341  151.1132   55.4921 H   0  0  0  0  0  0  0  0  0  0  0  0
    0.2557  151.0470   54.0602 C   0  0  0  0  0  0  0  0  0  0  0  0
   -0.4497  151.9950   54.7407 O   0  0  0  0  0  0  0  0  0  0  0  0
   -1.4556  151.4036   55.5528 C   0  0  0  0  0  0  0  0  0  0  0  0
   -1.9476  152.1825   56.1396 H   0  0  0  0  0  0  0  0  0  0  0  0
   -2.1974  150.8976   54.9270 H   0  0  0  0  0  0  0  0  0  0  0  0
   -1.0087  150.6749   56.2343 H   0  0  0  0  0  0  0  0  0  0  0  0
   -0.2184  150.4626   52.8770 C   0  0  0  0  0  0  0  0  0  0  0  0
   -1.9537  150.9262   52.2080 Br  0  0  0  0  0  0  0  0  0  0  0  0
    0.5941  149.5483   52.1849 C   0  0  0  0  0  0  0  0  0  0  0  0
    0.2409  149.1221   51.2534 H   0  0  0  0  0  0  0  0  0  0  0  0
    1.8747  149.2089   52.6630 C   0  0  0  0  0  0  0  0  0  0  0  0
    2.7275  148.3717   51.9843 O   0  0  0  0  0  0  0  0  0  0  0  0
    2.0957  147.3139   51.2622 C   0  0  0  0  0  0  0  0  0  0  0  0
    2.8647  146.6170   50.9173 H   0  0  0  0  0  0  0  0  0  0  0  0
    1.5563  147.7070   50.3945 H   0  0  0  0  0  0  0  0  0  0  0  0
    1.3951  146.7730   51.9097 H   0  0  0  0  0  0  0  0  0  0  0  0
    3.9196  145.4764   56.3525 C   0  0  0  0  0  0  0  0  0  0  0  0
    4.1930  146.1595   57.1431 H   0  0  0  0  0  0  0  0  0  0  0  0
    3.6889  144.1628   56.6250 C   0  0  0  0  0  0  0  0  0  0  0  0
    3.8764  143.7848   57.9146 N   0  0  0  0  0  0  0  0  0  0  0  0
    4.3855  144.4483   58.4889 H   0  0  0  0  0  0  0  0  0  0  0  0
    4.0442  142.7971   58.0928 H   0  0  0  0  0  0  0  0  0  0  0  0
    3.3242  143.2804   55.6215 C   0  0  0  0  0  0  0  0  0  0  0  0
    3.1317  141.9043   55.9286 C   0  0  0  0  0  0  0  0  0  0  0  0
    2.9989  140.7828   56.2112 N   0  0  0  0  0  0  0  0  0  0  0  0
    1.6127  142.3413   53.0580 C   0  0  0  0  0  0  0  0  0  0  0  0
    1.0276  142.2503   53.9558 H   0  0  0  0  0  0  0  0  0  0  0  0
    1.1028  141.7822   51.8808 C   0  0  0  0  0  0  0  0  0  0  0  0
   -0.0768  141.1190   51.8854 F   0  0  0  0  0  0  0  0  0  0  0  0
    1.7798  141.9771   50.6742 C   0  0  0  0  0  0  0  0  0  0  0  0
    1.2220  141.5674   49.5086 F   0  0  0  0  0  0  0  0  0  0  0  0
  1  2  1  0
  2  3  2  0
  3  4  1  0
  3  5  1  0
  5  6  1  0
  6  7  2  0
  7  8  1  0
  8  9  1  0
  9 10  1  0
  9 11  1  0
 11 12  2  0
 11 13  1  0
 13 14  1  0
 13 15  1  0
 13 16  1  0
 16 17  2  0
 17 18  1  0
 17 19  1  0
 19 20  1  0
 20 21  1  0
 21 22  1  0
 21 23  1  0
 21 24  1  0
 19 25  2  0
 25 26  1  0
 25 27  1  0
 27 28  1  0
 27 29  2  0
 29 30  1  0
 30 31  1  0
 31 32  1  0
 31 33  1  0
 31 34  1  0
  8 35  2  0
 35 36  1  0
 35 37  1  0
 37 38  1  0
 38 39  1  0
 38 40  1  0
 37 41  2  0
 41 42  1  0
 42 43  3  0
  5 44  2  0
 44 45  1  0
 44 46  1  0
 46 47  1  0
 46 48  2  0
 48 49  1  0
 48  2  1  0
 41  6  1  0
 29 16  1  0
M  END
>  <score>  (326) 
7.26286

$$$$

     RDKit          3D

 53 54  0  0  0  0  0  0  0  0999 V2000
    0.2474  149.1335   51.2587 H   0  0  0  0  0  0  0  0  0  0  0  0
    0.6021  149.5591   52.1925 C   0  0  0  0  0  0  0  0  0  0  0  0
   -0.2119  150.4709   52.8889 C   0  0  0  0  0  0  0  0  0  0  0  0
   -1.9467  150.9297   52.2118 Br  0  0  0  0  0  0  0  0  0  0  0  0
    0.2627  151.0555   54.0725 C   0  0  0  0  0  0  0  0  0  0  0  0
   -0.4477  151.9994   54.7590 O   0  0  0  0  0  0  0  0  0  0  0  0
   -1.4541  151.4045   55.5702 C   0  0  0  0  0  0  0  0  0  0  0  0
   -1.9533  152.1796   56.1548 H   0  0  0  0  0  0  0  0  0  0  0  0
   -2.1919  150.8937   54.9440 H   0  0  0  0  0  0  0  0  0  0  0  0
   -1.0086  150.6819   56.2583 H   0  0  0  0  0  0  0  0  0  0  0  0
    1.5083  150.6833   54.5617 C   0  0  0  0  0  0  0  0  0  0  0  0
    1.8480  151.1310   55.4876 H   0  0  0  0  0  0  0  0  0  0  0  0
    2.3359  149.7991   53.8684 C   0  0  0  0  0  0  0  0  0  0  0  0
    3.6988  149.5553   54.4566 C   0  0  0  0  0  0  0  0  0  0  0  0
    3.8942  150.3949   55.1140 H   0  0  0  0  0  0  0  0  0  0  0  0
    4.4546  149.5102   53.6600 H   0  0  0  0  0  0  0  0  0  0  0  0
    3.7640  148.2940   55.3006 C   0  0  0  0  0  0  0  0  0  0  0  0
    3.8097  148.3270   56.5182 O   0  0  0  0  0  0  0  0  0  0  0  0
    3.8003  147.1184   54.6328 N   0  0  0  0  0  0  0  0  0  0  0  0
    3.5268  147.1467   53.6629 H   0  0  0  0  0  0  0  0  0  0  0  0
    3.6906  145.9028   55.2024 C   0  0  0  0  0  0  0  0  0  0  0  0
    3.2901  145.0518   54.2825 N   0  0  0  0  0  0  0  0  0  0  0  0
    3.1360  143.7442   54.5595 C   0  0  0  0  0  0  0  0  0  0  0  0
    2.7006  142.8207   53.4226 C   0  0  0  0  0  0  0  0  0  0  0  0
    2.6777  141.6004   53.5732 O   0  0  0  0  0  0  0  0  0  0  0  0
    2.2983  143.3142   52.1753 N   0  0  0  0  0  0  0  0  0  0  0  0
    2.5115  144.2899   51.9710 H   0  0  0  0  0  0  0  0  0  0  0  0
    1.6370  142.5070   51.1432 C   0  0  0  0  0  0  0  0  0  0  0  0
    2.1190  141.5295   51.0681 H   0  0  0  0  0  0  0  0  0  0  0  0
    0.5913  142.3365   51.4153 H   0  0  0  0  0  0  0  0  0  0  0  0
    1.6916  143.1997   49.7819 C   0  0  0  0  0  0  0  0  0  0  0  0
    1.2565  144.1997   49.8588 H   0  0  0  0  0  0  0  0  0  0  0  0
    2.7342  143.3091   49.4725 H   0  0  0  0  0  0  0  0  0  0  0  0
    0.9687  142.4435   48.8016 O   0  0  0  0  0  0  0  0  0  0  0  0
    1.0273  143.0634   47.5120 C   0  0  0  0  0  0  0  0  0  0  0  0
    0.4936  142.4562   46.7761 H   0  0  0  0  0  0  0  0  0  0  0  0
    2.0643  143.1759   47.1860 H   0  0  0  0  0  0  0  0  0  0  0  0
    0.5731  144.0568   47.5425 H   0  0  0  0  0  0  0  0  0  0  0  0
    3.3755  143.3146   55.8765 C   0  0  0  0  0  0  0  0  0  0  0  0
    3.2082  141.9405   56.2269 C   0  0  0  0  0  0  0  0  0  0  0  0
    3.0859  140.8054   56.4385 N   0  0  0  0  0  0  0  0  0  0  0  0
    3.7831  144.2348   56.8308 C   0  0  0  0  0  0  0  0  0  0  0  0
    4.0218  143.8441   58.1158 N   0  0  0  0  0  0  0  0  0  0  0  0
    4.4980  144.5024   58.7263 H   0  0  0  0  0  0  0  0  0  0  0  0
    4.1186  142.8470   58.3085 H   0  0  0  0  0  0  0  0  0  0  0  0
    3.9594  145.5556   56.5017 C   0  0  0  0  0  0  0  0  0  0  0  0
    4.3057  146.2698   57.2383 H   0  0  0  0  0  0  0  0  0  0  0  0
    1.8881  149.2232   52.6655 C   0  0  0  0  0  0  0  0  0  0  0  0
    2.7337  148.3799   51.9860 O   0  0  0  0  0  0  0  0  0  0  0  0
    2.1087  147.3156   51.2665 C   0  0  0  0  0  0  0  0  0  0  0  0
    2.8790  146.6203   50.9166 H   0  0  0  0  0  0  0  0  0  0  0  0
    1.4171  146.7732   51.9210 H   0  0  0  0  0  0  0  0  0  0  0  0
    1.5633  147.7042   50.4007 H   0  0  0  0  0  0  0  0  0  0  0  0
  1  2  1  0
  2  3  2  0
  3  4  1  0
  3  5  1  0
  5  6  1  0
  6  7  1  0
  7  8  1  0
  7  9  1  0
  7 10  1  0
  5 11  2  0
 11 12  1  0
 11 13  1  0
 13 14  1  0
 14 15  1  0
 14 16  1  0
 14 17  1  0
 17 18  2  0
 17 19  1  0
 19 20  1  0
 19 21  1  0
 21 22  2  0
 22 23  1  0
 23 24  1  0
 24 25  2  0
 24 26  1  0
 26 27  1  0
 26 28  1  0
 28 29  1  0
 28 30  1  0
 28 31  1  0
 31 32  1  0
 31 33  1  0
 31 34  1  0
 34 35  1  0
 35 36  1  0
 35 37  1  0
 35 38  1  0
 23 39  2  0
 39 40  1  0
 40 41  3  0
 39 42  1  0
 42 43  1  0
 43 44  1  0
 43 45  1  0
 42 46  2  0
 46 47  1  0
 13 48  2  0
 48 49  1  0
 49 50  1  0
 50 51  1  0
 50 52  1  0
 50 53  1  0
 48  2  1  0
 46 21  1  0
M  END
>  <score>  (327) 
7.26346

$$$$

     RDKit          3D

 60 62  0  0  0  0  0  0  0  0999 V2000
    1.3065  139.6504   48.5581 H   0  0  0  0  0  0  0  0  0  0  0  0
    1.2824  140.6288   48.4820 O   0  0  0  0  0  0  0  0  0  0  0  0
    2.5941  141.2035   48.6377 C   0  0  0  0  0  0  0  0  0  0  0  0
    3.0068  141.3765   47.6408 H   0  0  0  0  0  0  0  0  0  0  0  0
    3.2697  140.5216   49.1730 H   0  0  0  0  0  0  0  0  0  0  0  0
    2.5070  142.5509   49.3662 C   0  0  0  0  0  0  0  0  0  0  0  0
    1.6555  143.0991   48.9446 H   0  0  0  0  0  0  0  0  0  0  0  0
    3.4046  143.1457   49.1611 H   0  0  0  0  0  0  0  0  0  0  0  0
    2.3339  142.3948   50.8338 N   0  0  0  0  0  0  0  0  0  0  0  0
    3.5304  141.9927   51.6365 C   0  0  0  0  0  0  0  0  0  0  0  0
    3.9722  141.0817   51.2196 H   0  0  0  0  0  0  0  0  0  0  0  0
    4.2908  142.7803   51.5870 H   0  0  0  0  0  0  0  0  0  0  0  0
    3.2052  141.7349   53.1325 C   0  0  0  0  0  0  0  0  0  0  0  0
    2.6361  140.8055   53.2205 H   0  0  0  0  0  0  0  0  0  0  0  0
    4.1336  141.5970   53.6970 H   0  0  0  0  0  0  0  0  0  0  0  0
    2.3994  142.8280   53.7075 N   0  0  0  0  0  0  0  0  0  0  0  0
    2.9239  143.6790   54.6599 C   0  0  0  0  0  0  0  0  0  0  0  0
    3.0297  144.9366   54.2841 N   0  0  0  0  0  0  0  0  0  0  0  0
    3.5262  145.7613   55.1567 C   0  0  0  0  0  0  0  0  0  0  0  0
    3.6590  146.9443   54.5464 N   0  0  0  0  0  0  0  0  0  0  0  0
    3.3770  146.9366   53.5798 H   0  0  0  0  0  0  0  0  0  0  0  0
    3.7090  148.1266   55.2056 C   0  0  0  0  0  0  0  0  0  0  0  0
    3.8020  148.1437   56.4189 O   0  0  0  0  0  0  0  0  0  0  0  0
    3.6907  149.4259   54.4257 C   0  0  0  0  0  0  0  0  0  0  0  0
    3.9442  150.2036   55.1345 H   0  0  0  0  0  0  0  0  0  0  0  0
    4.4349  149.4055   53.6228 H   0  0  0  0  0  0  0  0  0  0  0  0
    2.3412  149.7594   53.8693 C   0  0  0  0  0  0  0  0  0  0  0  0
    1.5513  150.6665   54.5727 C   0  0  0  0  0  0  0  0  0  0  0  0
    1.9137  151.1154   55.4920 H   0  0  0  0  0  0  0  0  0  0  0  0
    0.3019  151.0423   54.0918 C   0  0  0  0  0  0  0  0  0  0  0  0
   -0.4001  151.9824   54.7913 O   0  0  0  0  0  0  0  0  0  0  0  0
   -1.4293  151.4051   55.5932 C   0  0  0  0  0  0  0  0  0  0  0  0
   -1.9388  152.1887   56.1612 H   0  0  0  0  0  0  0  0  0  0  0  0
   -1.0068  150.6867   56.2991 H   0  0  0  0  0  0  0  0  0  0  0  0
   -2.1602  150.8895   54.9639 H   0  0  0  0  0  0  0  0  0  0  0  0
   -0.1915  150.4735   52.9043 C   0  0  0  0  0  0  0  0  0  0  0  0
   -1.9245  150.9626   52.2459 Br  0  0  0  0  0  0  0  0  0  0  0  0
    0.6126  149.5731   52.1841 C   0  0  0  0  0  0  0  0  0  0  0  0
    0.2698  149.1650   51.2383 H   0  0  0  0  0  0  0  0  0  0  0  0
    1.8888  149.2200   52.6578 C   0  0  0  0  0  0  0  0  0  0  0  0
    2.7429  148.3949   51.9686 O   0  0  0  0  0  0  0  0  0  0  0  0
    2.1326  147.3080   51.2722 C   0  0  0  0  0  0  0  0  0  0  0  0
    1.4489  146.7746   51.9385 H   0  0  0  0  0  0  0  0  0  0  0  0
    2.9034  146.6075   50.9345 H   0  0  0  0  0  0  0  0  0  0  0  0
    1.5805  147.6671   50.3994 H   0  0  0  0  0  0  0  0  0  0  0  0
    3.8857  145.4332   56.4397 C   0  0  0  0  0  0  0  0  0  0  0  0
    4.2799  146.1574   57.1315 H   0  0  0  0  0  0  0  0  0  0  0  0
    3.7708  144.1245   56.7893 C   0  0  0  0  0  0  0  0  0  0  0  0
    4.1701  143.7597   58.0230 N   0  0  0  0  0  0  0  0  0  0  0  0
    4.0772  142.7859   58.3081 H   0  0  0  0  0  0  0  0  0  0  0  0
    4.4663  144.4843   58.6760 H   0  0  0  0  0  0  0  0  0  0  0  0
    3.2980  143.2110   55.8950 C   0  0  0  0  0  0  0  0  0  0  0  0
    3.1802  141.8294   56.2002 C   0  0  0  0  0  0  0  0  0  0  0  0
    3.0955  140.6881   56.4087 N   0  0  0  0  0  0  0  0  0  0  0  0
    1.2143  143.2099   52.9194 C   0  0  0  0  0  0  0  0  0  0  0  0
    0.5249  142.3679   52.9498 H   0  0  0  0  0  0  0  0  0  0  0  0
    0.7110  144.0772   53.3602 H   0  0  0  0  0  0  0  0  0  0  0  0
    1.5366  143.4870   51.4441 C   0  0  0  0  0  0  0  0  0  0  0  0
    2.0741  144.4371   51.3671 H   0  0  0  0  0  0  0  0  0  0  0  0
    0.5903  143.5904   50.9009 H   0  0  0  0  0  0  0  0  0  0  0  0
  1  2  1  0
  2  3  1  0
  3  4  1  0
  3  5  1  0
  3  6  1  0
  6  7  1  0
  6  8  1  0
  6  9  1  0
  9 10  1  0
 10 11  1  0
 10 12  1  0
 10 13  1  0
 13 14  1  0
 13 15  1  0
 13 16  1  0
 16 17  1  0
 17 18  2  0
 18 19  1  0
 19 20  1  0
 20 21  1  0
 20 22  1  0
 22 23  2  0
 22 24  1  0
 24 25  1  0
 24 26  1  0
 24 27  1  0
 27 28  2  0
 28 29  1  0
 28 30  1  0
 30 31  1  0
 31 32  1  0
 32 33  1  0
 32 34  1  0
 32 35  1  0
 30 36  2  0
 36 37  1  0
 36 38  1  0
 38 39  1  0
 38 40  2  0
 40 41  1  0
 41 42  1  0
 42 43  1  0
 42 44  1  0
 42 45  1  0
 19 46  2  0
 46 47  1  0
 46 48  1  0
 48 49  1  0
 49 50  1  0
 49 51  1  0
 48 52  2  0
 52 53  1  0
 53 54  3  0
 16 55  1  0
 55 56  1  0
 55 57  1  0
 55 58  1  0
 58 59  1  0
 58 60  1  0
 58  9  1  0
 52 17  1  0
 40 27  1  0
M  END
>  <score>  (328) 
7.26445

$$$$

     RDKit          3D

 60 61  0  0  0  0  0  0  0  0999 V2000
    0.2524  149.1495   51.2538 H   0  0  0  0  0  0  0  0  0  0  0  0
    0.6069  149.5654   52.1865 C   0  0  0  0  0  0  0  0  0  0  0  0
   -0.1999  150.4723   52.8893 C   0  0  0  0  0  0  0  0  0  0  0  0
   -1.9371  150.9385   52.2193 Br  0  0  0  0  0  0  0  0  0  0  0  0
    0.2813  151.0486   54.0757 C   0  0  0  0  0  0  0  0  0  0  0  0
   -0.4258  151.9886   54.7683 O   0  0  0  0  0  0  0  0  0  0  0  0
   -1.4453  151.4058   55.5771 C   0  0  0  0  0  0  0  0  0  0  0  0
   -1.0095  150.6836   56.2706 H   0  0  0  0  0  0  0  0  0  0  0  0
   -2.1810  150.8946   54.9498 H   0  0  0  0  0  0  0  0  0  0  0  0
   -1.9514  152.1812   56.1590 H   0  0  0  0  0  0  0  0  0  0  0  0
    1.5305  150.6761   54.5620 C   0  0  0  0  0  0  0  0  0  0  0  0
    1.8772  151.1096   55.4958 H   0  0  0  0  0  0  0  0  0  0  0  0
    2.3361  149.7756   53.8630 C   0  0  0  0  0  0  0  0  0  0  0  0
    3.6893  149.4567   54.4467 C   0  0  0  0  0  0  0  0  0  0  0  0
    3.9250  150.2358   55.1646 H   0  0  0  0  0  0  0  0  0  0  0  0
    4.4513  149.4425   53.6566 H   0  0  0  0  0  0  0  0  0  0  0  0
    3.7098  148.1492   55.2229 C   0  0  0  0  0  0  0  0  0  0  0  0
    3.8064  148.1580   56.4377 O   0  0  0  0  0  0  0  0  0  0  0  0
    3.6901  146.9844   54.5324 N   0  0  0  0  0  0  0  0  0  0  0  0
    3.4119  147.0150   53.5639 H   0  0  0  0  0  0  0  0  0  0  0  0
    3.6105  145.7698   55.1078 C   0  0  0  0  0  0  0  0  0  0  0  0
    3.1334  144.9277   54.2294 N   0  0  0  0  0  0  0  0  0  0  0  0
    2.9578  143.6671   54.6049 C   0  0  0  0  0  0  0  0  0  0  0  0
    2.2431  142.7806   53.6197 C   0  0  0  0  0  0  0  0  0  0  0  0
    1.5279  142.1766   54.1682 H   0  0  0  0  0  0  0  0  0  0  0  0
    1.6742  143.3904   52.9097 H   0  0  0  0  0  0  0  0  0  0  0  0
    3.1966  141.8697   52.8495 C   0  0  0  0  0  0  0  0  0  0  0  0
    2.6438  141.0612   52.3629 H   0  0  0  0  0  0  0  0  0  0  0  0
    3.9204  141.4104   53.5339 H   0  0  0  0  0  0  0  0  0  0  0  0
    3.9469  142.6826   51.8069 C   0  0  0  0  0  0  0  0  0  0  0  0
    4.7634  142.0768   51.4041 H   0  0  0  0  0  0  0  0  0  0  0  0
    4.3817  143.5539   52.2933 H   0  0  0  0  0  0  0  0  0  0  0  0
    3.1213  143.2029   50.6345 C   0  0  0  0  0  0  0  0  0  0  0  0
    2.3010  143.8524   50.9693 H   0  0  0  0  0  0  0  0  0  0  0  0
    2.7020  142.3736   50.0559 H   0  0  0  0  0  0  0  0  0  0  0  0
    4.1658  143.9653   49.8179 C   0  0  0  0  0  0  0  0  0  0  0  0
    4.5926  144.7531   50.4533 H   0  0  0  0  0  0  0  0  0  0  0  0
    4.9516  143.2389   49.5525 H   0  0  0  0  0  0  0  0  0  0  0  0
    3.6638  144.6207   48.5381 C   0  0  0  0  0  0  0  0  0  0  0  0
    2.8209  145.2934   48.7362 H   0  0  0  0  0  0  0  0  0  0  0  0
    4.4783  145.2223   48.1206 H   0  0  0  0  0  0  0  0  0  0  0  0
    3.2784  143.5418   47.5338 C   0  0  0  0  0  0  0  0  0  0  0  0
    4.1013  142.8269   47.4231 H   0  0  0  0  0  0  0  0  0  0  0  0
    3.0698  143.9902   46.5557 H   0  0  0  0  0  0  0  0  0  0  0  0
    2.3956  142.9990   47.8849 H   0  0  0  0  0  0  0  0  0  0  0  0
    3.3184  143.2181   55.8722 C   0  0  0  0  0  0  0  0  0  0  0  0
    3.1829  141.8414   56.2176 C   0  0  0  0  0  0  0  0  0  0  0  0
    3.0814  140.7035   56.4307 N   0  0  0  0  0  0  0  0  0  0  0  0
    3.7856  144.1408   56.7754 C   0  0  0  0  0  0  0  0  0  0  0  0
    4.0761  143.7916   58.0602 N   0  0  0  0  0  0  0  0  0  0  0  0
    4.1105  142.8064   58.3172 H   0  0  0  0  0  0  0  0  0  0  0  0
    4.4781  144.4925   58.6772 H   0  0  0  0  0  0  0  0  0  0  0  0
    3.9222  145.4482   56.4061 C   0  0  0  0  0  0  0  0  0  0  0  0
    4.2542  146.1860   57.1155 H   0  0  0  0  0  0  0  0  0  0  0  0
    1.8879  149.2204   52.6535 C   0  0  0  0  0  0  0  0  0  0  0  0
    2.7377  148.3808   51.9783 O   0  0  0  0  0  0  0  0  0  0  0  0
    2.1190  147.3062   51.2652 C   0  0  0  0  0  0  0  0  0  0  0  0
    1.5819  147.6762   50.3862 H   0  0  0  0  0  0  0  0  0  0  0  0
    1.4194  146.7704   51.9158 H   0  0  0  0  0  0  0  0  0  0  0  0
    2.8874  146.6015   50.9323 H   0  0  0  0  0  0  0  0  0  0  0  0
  1  2  1  0
  2  3  2  0
  3  4  1  0
  3  5  1  0
  5  6  1  0
  6  7  1  0
  7  8  1  0
  7  9  1  0
  7 10  1  0
  5 11  2  0
 11 12  1  0
 11 13  1  0
 13 14  1  0
 14 15  1  0
 14 16  1  0
 14 17  1  0
 17 18  2  0
 17 19  1  0
 19 20  1  0
 19 21  1  0
 21 22  2  0
 22 23  1  0
 23 24  1  0
 24 25  1  0
 24 26  1  0
 24 27  1  0
 27 28  1  0
 27 29  1  0
 27 30  1  0
 30 31  1  0
 30 32  1  0
 30 33  1  0
 33 34  1  0
 33 35  1  0
 33 36  1  0
 36 37  1  0
 36 38  1  0
 36 39  1  0
 39 40  1  0
 39 41  1  0
 39 42  1  0
 42 43  1  0
 42 44  1  0
 42 45  1  0
 23 46  2  0
 46 47  1  0
 47 48  3  0
 46 49  1  0
 49 50  1  0
 50 51  1  0
 50 52  1  0
 49 53  2  0
 53 54  1  0
 13 55  2  0
 55 56  1  0
 56 57  1  0
 57 58  1  0
 57 59  1  0
 57 60  1  0
 55  2  1  0
 53 21  1  0
M  END
>  <score>  (329) 
7.26469

$$$$

     RDKit          3D

 56 57  0  0  0  0  0  0  0  0999 V2000
    2.6899  138.6109   47.7738 H   0  0  0  0  0  0  0  0  0  0  0  0
    2.8353  139.5504   47.5344 O   0  0  0  0  0  0  0  0  0  0  0  0
    3.0689  140.3697   48.7008 N   0  0  0  0  0  0  0  0  0  0  0  0
    4.0283  140.6645   48.9035 H   0  0  0  0  0  0  0  0  0  0  0  0
    2.0879  141.1430   49.3213 C   0  0  0  0  0  0  0  0  0  0  0  0
    0.9299  141.1748   48.9212 O   0  0  0  0  0  0  0  0  0  0  0  0
    2.4436  141.9811   50.5473 C   0  0  0  0  0  0  0  0  0  0  0  0
    3.1700  142.7159   50.2003 H   0  0  0  0  0  0  0  0  0  0  0  0
    1.5448  142.5046   50.8934 H   0  0  0  0  0  0  0  0  0  0  0  0
    3.0417  141.1692   51.7115 C   0  0  0  0  0  0  0  0  0  0  0  0
    2.2898  140.4920   52.1336 H   0  0  0  0  0  0  0  0  0  0  0  0
    3.8703  140.5645   51.3324 H   0  0  0  0  0  0  0  0  0  0  0  0
    3.5737  142.0947   52.8032 C   0  0  0  0  0  0  0  0  0  0  0  0
    4.1710  141.5060   53.5071 H   0  0  0  0  0  0  0  0  0  0  0  0
    4.2276  142.8475   52.3506 H   0  0  0  0  0  0  0  0  0  0  0  0
    2.4337  142.7898   53.5517 C   0  0  0  0  0  0  0  0  0  0  0  0
    1.7931  142.0555   54.0284 H   0  0  0  0  0  0  0  0  0  0  0  0
    1.8175  143.3658   52.8535 H   0  0  0  0  0  0  0  0  0  0  0  0
    2.9714  143.6995   54.6117 C   0  0  0  0  0  0  0  0  0  0  0  0
    3.1277  144.9624   54.2499 N   0  0  0  0  0  0  0  0  0  0  0  0
    3.5966  145.7971   55.1399 C   0  0  0  0  0  0  0  0  0  0  0  0
    3.7024  146.9877   54.5402 N   0  0  0  0  0  0  0  0  0  0  0  0
    3.3835  146.9975   53.5859 H   0  0  0  0  0  0  0  0  0  0  0  0
    3.7088  148.1584   55.2251 C   0  0  0  0  0  0  0  0  0  0  0  0
    3.7987  148.1588   56.4382 O   0  0  0  0  0  0  0  0  0  0  0  0
    3.6781  149.4595   54.4479 C   0  0  0  0  0  0  0  0  0  0  0  0
    4.4412  149.4620   53.6588 H   0  0  0  0  0  0  0  0  0  0  0  0
    3.8973  150.2357   55.1708 H   0  0  0  0  0  0  0  0  0  0  0  0
    2.3288  149.7698   53.8677 C   0  0  0  0  0  0  0  0  0  0  0  0
    1.5236  150.6694   54.5644 C   0  0  0  0  0  0  0  0  0  0  0  0
    1.8702  151.1114   55.4921 H   0  0  0  0  0  0  0  0  0  0  0  0
    0.2797  151.0460   54.0744 C   0  0  0  0  0  0  0  0  0  0  0  0
   -0.4248  151.9905   54.7630 O   0  0  0  0  0  0  0  0  0  0  0  0
   -1.4415  151.4037   55.5689 C   0  0  0  0  0  0  0  0  0  0  0  0
   -1.0062  150.6796   56.2616 H   0  0  0  0  0  0  0  0  0  0  0  0
   -1.9427  152.1818   56.1492 H   0  0  0  0  0  0  0  0  0  0  0  0
   -2.1769  150.8950   54.9390 H   0  0  0  0  0  0  0  0  0  0  0  0
   -0.2071  150.4669   52.8926 C   0  0  0  0  0  0  0  0  0  0  0  0
   -1.9424  150.9422   52.2260 Br  0  0  0  0  0  0  0  0  0  0  0  0
    0.6023  149.5615   52.1866 C   0  0  0  0  0  0  0  0  0  0  0  0
    0.2532  149.1434   51.2498 H   0  0  0  0  0  0  0  0  0  0  0  0
    1.8828  149.2185   52.6582 C   0  0  0  0  0  0  0  0  0  0  0  0
    2.7345  148.3837   51.9788 O   0  0  0  0  0  0  0  0  0  0  0  0
    2.1121  147.3142   51.2669 C   0  0  0  0  0  0  0  0  0  0  0  0
    2.8796  146.6123   50.9278 H   0  0  0  0  0  0  0  0  0  0  0  0
    1.5706  147.6917   50.3944 H   0  0  0  0  0  0  0  0  0  0  0  0
    1.4167  146.7801   51.9223 H   0  0  0  0  0  0  0  0  0  0  0  0
    3.9057  145.4737   56.4377 C   0  0  0  0  0  0  0  0  0  0  0  0
    4.2646  146.2001   57.1490 H   0  0  0  0  0  0  0  0  0  0  0  0
    3.7575  144.1681   56.7965 C   0  0  0  0  0  0  0  0  0  0  0  0
    4.0893  143.8031   58.0587 N   0  0  0  0  0  0  0  0  0  0  0  0
    4.0942  142.8166   58.3124 H   0  0  0  0  0  0  0  0  0  0  0  0
    4.4708  144.5047   58.6905 H   0  0  0  0  0  0  0  0  0  0  0  0
    3.2945  143.2485   55.8863 C   0  0  0  0  0  0  0  0  0  0  0  0
    3.1805  141.8684   56.2165 C   0  0  0  0  0  0  0  0  0  0  0  0
    3.0942  140.7248   56.4092 N   0  0  0  0  0  0  0  0  0  0  0  0
  1  2  1  0
  2  3  1  0
  3  4  1  0
  3  5  1  0
  5  6  2  0
  5  7  1  0
  7  8  1  0
  7  9  1  0
  7 10  1  0
 10 11  1  0
 10 12  1  0
 10 13  1  0
 13 14  1  0
 13 15  1  0
 13 16  1  0
 16 17  1  0
 16 18  1  0
 16 19  1  0
 19 20  2  0
 20 21  1  0
 21 22  1  0
 22 23  1  0
 22 24  1  0
 24 25  2  0
 24 26  1  0
 26 27  1  0
 26 28  1  0
 26 29  1  0
 29 30  2  0
 30 31  1  0
 30 32  1  0
 32 33  1  0
 33 34  1  0
 34 35  1  0
 34 36  1  0
 34 37  1  0
 32 38  2  0
 38 39  1  0
 38 40  1  0
 40 41  1  0
 40 42  2  0
 42 43  1  0
 43 44  1  0
 44 45  1  0
 44 46  1  0
 44 47  1  0
 21 48  2  0
 48 49  1  0
 48 50  1  0
 50 51  1  0
 51 52  1  0
 51 53  1  0
 50 54  2  0
 54 55  1  0
 55 56  3  0
 54 19  1  0
 42 29  1  0
M  END
>  <score>  (330) 
7.26629

$$$$

     RDKit          3D

 51 53  0  0  0  0  0  0  0  0999 V2000
    2.8809  143.5838   48.1711 H   0  0  0  0  0  0  0  0  0  0  0  0
    2.7702  143.4465   49.2416 C   0  0  0  0  0  0  0  0  0  0  0  0
    3.7429  143.9272   50.1190 C   0  0  0  0  0  0  0  0  0  0  0  0
    4.6062  144.4367   49.7205 H   0  0  0  0  0  0  0  0  0  0  0  0
    3.5989  143.7840   51.4963 C   0  0  0  0  0  0  0  0  0  0  0  0
    4.3774  144.1474   52.1515 H   0  0  0  0  0  0  0  0  0  0  0  0
    2.4590  143.1740   52.0170 C   0  0  0  0  0  0  0  0  0  0  0  0
    2.3032  143.0249   53.4776 C   0  0  0  0  0  0  0  0  0  0  0  0
    1.3650  142.3355   53.8229 O   0  0  0  0  0  0  0  0  0  0  0  0
    3.0746  143.8033   54.5167 C   0  0  0  0  0  0  0  0  0  0  0  0
    3.3845  145.0646   54.2006 N   0  0  0  0  0  0  0  0  0  0  0  0
    3.8303  145.8807   55.1218 C   0  0  0  0  0  0  0  0  0  0  0  0
    3.8997  147.0931   54.5587 N   0  0  0  0  0  0  0  0  0  0  0  0
    3.5207  147.1016   53.6278 H   0  0  0  0  0  0  0  0  0  0  0  0
    3.7626  148.2422   55.2605 C   0  0  0  0  0  0  0  0  0  0  0  0
    3.8268  148.2324   56.4753 O   0  0  0  0  0  0  0  0  0  0  0  0
    3.6683  149.5368   54.4750 C   0  0  0  0  0  0  0  0  0  0  0  0
    4.4375  149.5441   53.6959 H   0  0  0  0  0  0  0  0  0  0  0  0
    3.8494  150.3444   55.1755 H   0  0  0  0  0  0  0  0  0  0  0  0
    2.3155  149.7919   53.8689 C   0  0  0  0  0  0  0  0  0  0  0  0
    1.4866  150.6777   54.5530 C   0  0  0  0  0  0  0  0  0  0  0  0
    1.8181  151.1194   55.4847 H   0  0  0  0  0  0  0  0  0  0  0  0
    0.2476  151.0515   54.0543 C   0  0  0  0  0  0  0  0  0  0  0  0
   -0.4605  152.0003   54.7329 O   0  0  0  0  0  0  0  0  0  0  0  0
   -1.4588  151.4029   55.5489 C   0  0  0  0  0  0  0  0  0  0  0  0
   -1.9518  152.1743   56.1428 H   0  0  0  0  0  0  0  0  0  0  0  0
   -2.2018  150.8960   54.9261 H   0  0  0  0  0  0  0  0  0  0  0  0
   -1.0067  150.6748   56.2266 H   0  0  0  0  0  0  0  0  0  0  0  0
   -0.2238  150.4648   52.8726 C   0  0  0  0  0  0  0  0  0  0  0  0
   -1.9617  150.9185   52.2013 Br  0  0  0  0  0  0  0  0  0  0  0  0
    0.5912  149.5486   52.1861 C   0  0  0  0  0  0  0  0  0  0  0  0
    0.2333  149.1181   51.2569 H   0  0  0  0  0  0  0  0  0  0  0  0
    1.8763  149.2166   52.6621 C   0  0  0  0  0  0  0  0  0  0  0  0
    2.7250  148.3769   51.9847 O   0  0  0  0  0  0  0  0  0  0  0  0
    2.0963  147.3143   51.2647 C   0  0  0  0  0  0  0  0  0  0  0  0
    2.8664  146.6217   50.9103 H   0  0  0  0  0  0  0  0  0  0  0  0
    1.4060  146.7671   51.9176 H   0  0  0  0  0  0  0  0  0  0  0  0
    1.5467  147.7063   50.4029 H   0  0  0  0  0  0  0  0  0  0  0  0
    4.0239  145.5364   56.4350 C   0  0  0  0  0  0  0  0  0  0  0  0
    4.3071  146.2576   57.1833 H   0  0  0  0  0  0  0  0  0  0  0  0
    3.8176  144.2239   56.7700 C   0  0  0  0  0  0  0  0  0  0  0  0
    4.0063  143.8557   58.0723 N   0  0  0  0  0  0  0  0  0  0  0  0
    4.4761  144.5251   58.6714 H   0  0  0  0  0  0  0  0  0  0  0  0
    4.1324  142.8702   58.2929 H   0  0  0  0  0  0  0  0  0  0  0  0
    3.3555  143.3306   55.8179 C   0  0  0  0  0  0  0  0  0  0  0  0
    3.1677  141.9595   56.1684 C   0  0  0  0  0  0  0  0  0  0  0  0
    3.0798  140.8291   56.4216 N   0  0  0  0  0  0  0  0  0  0  0  0
    1.4725  142.6939   51.1251 C   0  0  0  0  0  0  0  0  0  0  0  0
    0.5753  142.2142   51.5094 H   0  0  0  0  0  0  0  0  0  0  0  0
    1.6274  142.8250   49.7457 C   0  0  0  0  0  0  0  0  0  0  0  0
    0.8529  142.4586   49.0797 H   0  0  0  0  0  0  0  0  0  0  0  0
  1  2  1  0
  2  3  2  0
  3  4  1  0
  3  5  1  0
  5  6  1  0
  5  7  2  0
  7  8  1  0
  8  9  2  0
  8 10  1  0
 10 11  2  0
 11 12  1  0
 12 13  1  0
 13 14  1  0
 13 15  1  0
 15 16  2  0
 15 17  1  0
 17 18  1  0
 17 19  1  0
 17 20  1  0
 20 21  2  0
 21 22  1  0
 21 23  1  0
 23 24  1  0
 24 25  1  0
 25 26  1  0
 25 27  1  0
 25 28  1  0
 23 29  2  0
 29 30  1  0
 29 31  1  0
 31 32  1  0
 31 33  2  0
 33 34  1  0
 34 35  1  0
 35 36  1  0
 35 37  1  0
 35 38  1  0
 12 39  2  0
 39 40  1  0
 39 41  1  0
 41 42  1  0
 42 43  1  0
 42 44  1  0
 41 45  2  0
 45 46  1  0
 46 47  3  0
  7 48  1  0
 48 49  1  0
 48 50  2  0
 50 51  1  0
 50  2  1  0
 45 10  1  0
 33 20  1  0
M  END
>  <score>  (331) 
7.26667

$$$$

     RDKit          3D

 61 64  0  0  0  0  0  0  0  0999 V2000
    3.4812  140.9753   46.8948 H   0  0  0  0  0  0  0  0  0  0  0  0
    2.6393  141.2397   47.5243 C   0  0  0  0  0  0  0  0  0  0  0  0
    2.8430  141.4641   48.8099 N   0  0  0  0  0  0  0  0  0  0  0  0
    1.7765  141.7104   49.5504 C   0  0  0  0  0  0  0  0  0  0  0  0
    1.9137  141.7917   50.9223 N   0  0  0  0  0  0  0  0  0  0  0  0
    3.2256  141.6304   51.5934 C   0  0  0  0  0  0  0  0  0  0  0  0
    3.8863  142.4354   51.2613 H   0  0  0  0  0  0  0  0  0  0  0  0
    3.6838  140.6792   51.3042 H   0  0  0  0  0  0  0  0  0  0  0  0
    3.1207  141.6661   53.1531 C   0  0  0  0  0  0  0  0  0  0  0  0
    2.6784  140.7218   53.4933 H   0  0  0  0  0  0  0  0  0  0  0  0
    4.1320  141.7186   53.5605 H   0  0  0  0  0  0  0  0  0  0  0  0
    2.3047  142.8006   53.6671 N   0  0  0  0  0  0  0  0  0  0  0  0
    2.8361  143.6652   54.6310 C   0  0  0  0  0  0  0  0  0  0  0  0
    2.9636  144.9333   54.2773 N   0  0  0  0  0  0  0  0  0  0  0  0
    3.5000  145.7489   55.1463 C   0  0  0  0  0  0  0  0  0  0  0  0
    3.6695  146.9248   54.5365 N   0  0  0  0  0  0  0  0  0  0  0  0
    3.3787  146.9001   53.5733 H   0  0  0  0  0  0  0  0  0  0  0  0
    3.7244  148.1136   55.1928 C   0  0  0  0  0  0  0  0  0  0  0  0
    3.8002  148.1412   56.4092 O   0  0  0  0  0  0  0  0  0  0  0  0
    3.6850  149.4237   54.4283 C   0  0  0  0  0  0  0  0  0  0  0  0
    3.9586  150.2108   55.1155 H   0  0  0  0  0  0  0  0  0  0  0  0
    4.4066  149.4086   53.6144 H   0  0  0  0  0  0  0  0  0  0  0  0
    2.3328  149.7511   53.8783 C   0  0  0  0  0  0  0  0  0  0  0  0
    1.5561  150.6684   54.5797 C   0  0  0  0  0  0  0  0  0  0  0  0
    1.9374  151.1262   55.4916 H   0  0  0  0  0  0  0  0  0  0  0  0
    0.3052  151.0333   54.0971 C   0  0  0  0  0  0  0  0  0  0  0  0
   -0.3848  151.9750   54.8022 O   0  0  0  0  0  0  0  0  0  0  0  0
   -1.4191  151.4045   55.6002 C   0  0  0  0  0  0  0  0  0  0  0  0
   -1.0043  150.6853   56.3094 H   0  0  0  0  0  0  0  0  0  0  0  0
   -2.1450  150.8877   54.9682 H   0  0  0  0  0  0  0  0  0  0  0  0
   -1.9298  152.1948   56.1576 H   0  0  0  0  0  0  0  0  0  0  0  0
   -0.1875  150.4714   52.9031 C   0  0  0  0  0  0  0  0  0  0  0  0
   -1.9233  150.9772   52.2645 Br  0  0  0  0  0  0  0  0  0  0  0  0
    0.6134  149.5682   52.1790 C   0  0  0  0  0  0  0  0  0  0  0  0
    0.2820  149.1677   51.2247 H   0  0  0  0  0  0  0  0  0  0  0  0
    1.8856  149.2126   52.6621 C   0  0  0  0  0  0  0  0  0  0  0  0
    2.7511  148.4054   51.9657 O   0  0  0  0  0  0  0  0  0  0  0  0
    2.1419  147.3140   51.2771 C   0  0  0  0  0  0  0  0  0  0  0  0
    1.5991  147.6664   50.3960 H   0  0  0  0  0  0  0  0  0  0  0  0
    1.4478  146.7936   51.9432 H   0  0  0  0  0  0  0  0  0  0  0  0
    2.9099  146.6043   50.9555 H   0  0  0  0  0  0  0  0  0  0  0  0
    3.8681  145.4204   56.4205 C   0  0  0  0  0  0  0  0  0  0  0  0
    4.2740  146.1238   57.1348 H   0  0  0  0  0  0  0  0  0  0  0  0
    3.7399  144.1107   56.7483 C   0  0  0  0  0  0  0  0  0  0  0  0
    4.1565  143.7527   57.9760 N   0  0  0  0  0  0  0  0  0  0  0  0
    4.4609  144.4696   58.6301 H   0  0  0  0  0  0  0  0  0  0  0  0
    4.0671  142.7869   58.2678 H   0  0  0  0  0  0  0  0  0  0  0  0
    3.2439  143.1913   55.8575 C   0  0  0  0  0  0  0  0  0  0  0  0
    3.1443  141.8032   56.1609 C   0  0  0  0  0  0  0  0  0  0  0  0
    3.0838  140.6696   56.4166 N   0  0  0  0  0  0  0  0  0  0  0  0
    1.1641  143.2222   52.8094 C   0  0  0  0  0  0  0  0  0  0  0  0
    1.4385  144.1159   52.2507 H   0  0  0  0  0  0  0  0  0  0  0  0
    0.2969  143.4817   53.4174 H   0  0  0  0  0  0  0  0  0  0  0  0
    0.7658  142.1226   51.7890 C   0  0  0  0  0  0  0  0  0  0  0  0
    0.4428  141.2228   52.3261 H   0  0  0  0  0  0  0  0  0  0  0  0
   -0.0717  142.4700   51.1781 H   0  0  0  0  0  0  0  0  0  0  0  0
    0.5455  141.8515   49.0838 N   0  0  0  0  0  0  0  0  0  0  0  0
    0.3306  141.6202   47.8034 C   0  0  0  0  0  0  0  0  0  0  0  0
   -0.6866  141.6771   47.4163 H   0  0  0  0  0  0  0  0  0  0  0  0
    1.3725  141.2706   46.9813 C   0  0  0  0  0  0  0  0  0  0  0  0
    1.1998  141.0173   45.9470 H   0  0  0  0  0  0  0  0  0  0  0  0
  1  2  1  0
  2  3  2  0
  3  4  1  0
  4  5  1  0
  5  6  1  0
  6  7  1  0
  6  8  1  0
  6  9  1  0
  9 10  1  0
  9 11  1  0
  9 12  1  0
 12 13  1  0
 13 14  2  0
 14 15  1  0
 15 16  1  0
 16 17  1  0
 16 18  1  0
 18 19  2  0
 18 20  1  0
 20 21  1  0
 20 22  1  0
 20 23  1  0
 23 24  2  0
 24 25  1  0
 24 26  1  0
 26 27  1  0
 27 28  1  0
 28 29  1  0
 28 30  1  0
 28 31  1  0
 26 32  2  0
 32 33  1  0
 32 34  1  0
 34 35  1  0
 34 36  2  0
 36 37  1  0
 37 38  1  0
 38 39  1  0
 38 40  1  0
 38 41  1  0
 15 42  2  0
 42 43  1  0
 42 44  1  0
 44 45  1  0
 45 46  1  0
 45 47  1  0
 44 48  2  0
 48 49  1  0
 49 50  3  0
 12 51  1  0
 51 52  1  0
 51 53  1  0
 51 54  1  0
 54 55  1  0
 54 56  1  0
  4 57  2  0
 57 58  1  0
 58 59  1  0
 58 60  2  0
 60 61  1  0
 60  2  1  0
 54  5  1  0
 48 13  1  0
 36 23  1  0
M  END
>  <score>  (332) 
7.26674

$$$$

     RDKit          3D

 57 59  0  0  0  0  0  0  0  0999 V2000
    4.3425  144.0774   48.2591 H   0  0  0  0  0  0  0  0  0  0  0  0
    3.6999  143.8754   49.1061 C   0  0  0  0  0  0  0  0  0  0  0  0
    4.2827  143.3831   50.2802 C   0  0  0  0  0  0  0  0  0  0  0  0
    5.3408  143.1485   50.3346 H   0  0  0  0  0  0  0  0  0  0  0  0
    3.4962  143.1771   51.4026 C   0  0  0  0  0  0  0  0  0  0  0  0
    3.9363  142.7993   52.3185 H   0  0  0  0  0  0  0  0  0  0  0  0
    2.1311  143.4304   51.3630 C   0  0  0  0  0  0  0  0  0  0  0  0
    1.3818  143.1789   52.5108 N   0  0  0  0  0  0  0  0  0  0  0  0
    0.0284  143.7307   52.5555 C   0  0  0  0  0  0  0  0  0  0  0  0
    0.0059  144.6461   51.9573 H   0  0  0  0  0  0  0  0  0  0  0  0
   -0.6672  143.0170   52.1185 H   0  0  0  0  0  0  0  0  0  0  0  0
   -0.2883  143.9737   53.5730 H   0  0  0  0  0  0  0  0  0  0  0  0
    2.0706  142.6913   53.7478 C   0  0  0  0  0  0  0  0  0  0  0  0
    2.8116  141.9370   53.4646 H   0  0  0  0  0  0  0  0  0  0  0  0
    1.3562  142.1673   54.3796 H   0  0  0  0  0  0  0  0  0  0  0  0
    2.7792  143.7155   54.6507 C   0  0  0  0  0  0  0  0  0  0  0  0
    3.0085  144.9779   54.2449 N   0  0  0  0  0  0  0  0  0  0  0  0
    3.5652  145.8317   55.0811 C   0  0  0  0  0  0  0  0  0  0  0  0
    3.7247  147.0432   54.5110 N   0  0  0  0  0  0  0  0  0  0  0  0
    3.4525  147.0847   53.5410 H   0  0  0  0  0  0  0  0  0  0  0  0
    3.6897  148.1921   55.2458 C   0  0  0  0  0  0  0  0  0  0  0  0
    3.7514  148.1585   56.4616 O   0  0  0  0  0  0  0  0  0  0  0  0
    3.6178  149.5355   54.5460 C   0  0  0  0  0  0  0  0  0  0  0  0
    3.7855  150.3090   55.2949 H   0  0  0  0  0  0  0  0  0  0  0  0
    4.4204  149.6009   53.8142 H   0  0  0  0  0  0  0  0  0  0  0  0
    2.2862  149.7992   53.8922 C   0  0  0  0  0  0  0  0  0  0  0  0
    1.4480  150.7201   54.5318 C   0  0  0  0  0  0  0  0  0  0  0  0
    1.7619  151.1878   55.4598 H   0  0  0  0  0  0  0  0  0  0  0  0
    0.2051  151.0608   54.0064 C   0  0  0  0  0  0  0  0  0  0  0  0
   -0.5552  151.9893   54.6650 O   0  0  0  0  0  0  0  0  0  0  0  0
   -1.5339  151.3855   55.5092 C   0  0  0  0  0  0  0  0  0  0  0  0
   -2.3074  150.8978   54.9067 H   0  0  0  0  0  0  0  0  0  0  0  0
   -1.9990  152.1548   56.1342 H   0  0  0  0  0  0  0  0  0  0  0  0
   -1.0644  150.6381   56.1557 H   0  0  0  0  0  0  0  0  0  0  0  0
   -0.2292  150.4366   52.8276 C   0  0  0  0  0  0  0  0  0  0  0  0
   -1.9547  150.8319   52.1006 Br  0  0  0  0  0  0  0  0  0  0  0  0
    0.6020  149.5067   52.1833 C   0  0  0  0  0  0  0  0  0  0  0  0
    0.2635  149.0334   51.2688 H   0  0  0  0  0  0  0  0  0  0  0  0
    1.8702  149.1765   52.6949 C   0  0  0  0  0  0  0  0  0  0  0  0
    2.6993  148.2734   52.0646 O   0  0  0  0  0  0  0  0  0  0  0  0
    2.0488  147.2852   51.2516 C   0  0  0  0  0  0  0  0  0  0  0  0
    1.5000  147.7584   50.4305 H   0  0  0  0  0  0  0  0  0  0  0  0
    1.3506  146.6940   51.8566 H   0  0  0  0  0  0  0  0  0  0  0  0
    2.7988  146.6110   50.8257 H   0  0  0  0  0  0  0  0  0  0  0  0
    3.9046  145.5287   56.3734 C   0  0  0  0  0  0  0  0  0  0  0  0
    4.3483  146.2485   57.0451 H   0  0  0  0  0  0  0  0  0  0  0  0
    3.6915  144.2501   56.7824 C   0  0  0  0  0  0  0  0  0  0  0  0
    4.0046  143.9464   58.0603 N   0  0  0  0  0  0  0  0  0  0  0  0
    4.5083  144.6537   58.5862 H   0  0  0  0  0  0  0  0  0  0  0  0
    4.1701  142.9670   58.2729 H   0  0  0  0  0  0  0  0  0  0  0  0
    3.1840  143.3030   55.9246 C   0  0  0  0  0  0  0  0  0  0  0  0
    3.1054  141.9242   56.2977 C   0  0  0  0  0  0  0  0  0  0  0  0
    3.0726  140.7796   56.5063 N   0  0  0  0  0  0  0  0  0  0  0  0
    1.5500  143.9440   50.1897 C   0  0  0  0  0  0  0  0  0  0  0  0
    0.4884  144.1611   50.1699 H   0  0  0  0  0  0  0  0  0  0  0  0
    2.3253  144.1412   49.0413 C   0  0  0  0  0  0  0  0  0  0  0  0
    1.8786  144.5142   48.1192 H   0  0  0  0  0  0  0  0  0  0  0  0
  1  2  1  0
  2  3  2  0
  3  4  1  0
  3  5  1  0
  5  6  1  0
  5  7  2  0
  7  8  1  0
  8  9  1  0
  9 10  1  0
  9 11  1  0
  9 12  1  0
  8 13  1  0
 13 14  1  0
 13 15  1  0
 13 16  1  0
 16 17  2  0
 17 18  1  0
 18 19  1  0
 19 20  1  0
 19 21  1  0
 21 22  2  0
 21 23  1  0
 23 24  1  0
 23 25  1  0
 23 26  1  0
 26 27  2  0
 27 28  1  0
 27 29  1  0
 29 30  1  0
 30 31  1  0
 31 32  1  0
 31 33  1  0
 31 34  1  0
 29 35  2  0
 35 36  1  0
 35 37  1  0
 37 38  1  0
 37 39  2  0
 39 40  1  0
 40 41  1  0
 41 42  1  0
 41 43  1  0
 41 44  1  0
 18 45  2  0
 45 46  1  0
 45 47  1  0
 47 48  1  0
 48 49  1  0
 48 50  1  0
 47 51  2  0
 51 52  1  0
 52 53  3  0
  7 54  1  0
 54 55  1  0
 54 56  2  0
 56 57  1  0
 56  2  1  0
 51 16  1  0
 39 26  1  0
M  END
>  <score>  (333) 
7.26734

$$$$

     RDKit          3D

 47 48  0  0  0  0  0  0  0  0999 V2000
    0.2564  149.1566   51.2517 H   0  0  0  0  0  0  0  0  0  0  0  0
    0.6149  149.5732   52.1860 C   0  0  0  0  0  0  0  0  0  0  0  0
   -0.1891  150.4765   52.9009 C   0  0  0  0  0  0  0  0  0  0  0  0
   -1.9251  150.9496   52.2303 Br  0  0  0  0  0  0  0  0  0  0  0  0
    0.2931  151.0511   54.0865 C   0  0  0  0  0  0  0  0  0  0  0  0
   -0.4165  151.9897   54.7829 O   0  0  0  0  0  0  0  0  0  0  0  0
   -1.4407  151.4032   55.5816 C   0  0  0  0  0  0  0  0  0  0  0  0
   -1.9427  152.1845   56.1559 H   0  0  0  0  0  0  0  0  0  0  0  0
   -1.0086  150.6839   56.2794 H   0  0  0  0  0  0  0  0  0  0  0  0
   -2.1760  150.8920   54.9526 H   0  0  0  0  0  0  0  0  0  0  0  0
    1.5413  150.6652   54.5639 C   0  0  0  0  0  0  0  0  0  0  0  0
    1.8912  151.1000   55.4895 H   0  0  0  0  0  0  0  0  0  0  0  0
    2.3438  149.7644   53.8612 C   0  0  0  0  0  0  0  0  0  0  0  0
    3.6839  149.4149   54.4364 C   0  0  0  0  0  0  0  0  0  0  0  0
    4.4405  149.4273   53.6444 H   0  0  0  0  0  0  0  0  0  0  0  0
    3.9270  150.1626   55.1814 H   0  0  0  0  0  0  0  0  0  0  0  0
    3.6856  148.0786   55.1505 C   0  0  0  0  0  0  0  0  0  0  0  0
    3.7910  148.0330   56.3647 O   0  0  0  0  0  0  0  0  0  0  0  0
    3.6492  146.9295   54.4233 N   0  0  0  0  0  0  0  0  0  0  0  0
    3.3543  146.9603   53.4592 H   0  0  0  0  0  0  0  0  0  0  0  0
    3.5438  145.7211   54.9903 C   0  0  0  0  0  0  0  0  0  0  0  0
    3.1460  144.8503   54.1092 N   0  0  0  0  0  0  0  0  0  0  0  0
    3.0395  143.6206   54.5383 C   0  0  0  0  0  0  0  0  0  0  0  0
    2.7769  142.6887   53.6328 N   0  0  0  0  0  0  0  0  0  0  0  0
    2.1548  141.9830   53.9573 H   0  0  0  0  0  0  0  0  0  0  0  0
    2.2396  143.2944   52.2243 S   0  0  0  0  0  0  0  0  0  0  0  0
    1.6216  142.1325   51.5869 O   0  0  0  0  0  0  0  0  0  0  0  0
    1.3108  144.3919   52.5003 O   0  0  0  0  0  0  0  0  0  0  0  0
    3.7932  143.7693   51.4916 C   0  0  0  0  0  0  0  0  0  0  0  0
    4.1872  144.6250   52.0347 H   0  0  0  0  0  0  0  0  0  0  0  0
    3.6476  144.0182   50.4422 H   0  0  0  0  0  0  0  0  0  0  0  0
    4.4692  142.9197   51.5815 H   0  0  0  0  0  0  0  0  0  0  0  0
    3.2590  143.2095   55.8174 C   0  0  0  0  0  0  0  0  0  0  0  0
    3.1447  141.8357   56.1821 C   0  0  0  0  0  0  0  0  0  0  0  0
    3.0566  140.6951   56.3493 N   0  0  0  0  0  0  0  0  0  0  0  0
    3.6799  144.1478   56.6942 C   0  0  0  0  0  0  0  0  0  0  0  0
    3.9872  143.8098   57.9643 N   0  0  0  0  0  0  0  0  0  0  0  0
    4.4432  144.4986   58.5581 H   0  0  0  0  0  0  0  0  0  0  0  0
    4.0586  142.8197   58.1846 H   0  0  0  0  0  0  0  0  0  0  0  0
    3.8381  145.4304   56.2928 C   0  0  0  0  0  0  0  0  0  0  0  0
    4.1877  146.1636   56.9958 H   0  0  0  0  0  0  0  0  0  0  0  0
    1.8931  149.2179   52.6517 C   0  0  0  0  0  0  0  0  0  0  0  0
    2.7324  148.3718   51.9683 O   0  0  0  0  0  0  0  0  0  0  0  0
    2.1081  147.2939   51.2679 C   0  0  0  0  0  0  0  0  0  0  0  0
    1.5775  147.6681   50.3866 H   0  0  0  0  0  0  0  0  0  0  0  0
    2.8814  146.5893   50.9442 H   0  0  0  0  0  0  0  0  0  0  0  0
    1.4062  146.7641   51.9229 H   0  0  0  0  0  0  0  0  0  0  0  0
  1  2  1  0
  2  3  2  0
  3  4  1  0
  3  5  1  0
  5  6  1  0
  6  7  1  0
  7  8  1  0
  7  9  1  0
  7 10  1  0
  5 11  2  0
 11 12  1  0
 11 13  1  0
 13 14  1  0
 14 15  1  0
 14 16  1  0
 14 17  1  0
 17 18  2  0
 17 19  1  0
 19 20  1  0
 19 21  1  0
 21 22  2  0
 22 23  1  0
 23 24  1  0
 24 25  1  0
 24 26  1  0
 26 27  2  0
 26 28  2  0
 26 29  1  0
 29 30  1  0
 29 31  1  0
 29 32  1  0
 23 33  2  0
 33 34  1  0
 34 35  3  0
 33 36  1  0
 36 37  1  0
 37 38  1  0
 37 39  1  0
 36 40  2  0
 40 41  1  0
 13 42  2  0
 42 43  1  0
 43 44  1  0
 44 45  1  0
 44 46  1  0
 44 47  1  0
 42  2  1  0
 40 21  1  0
M  END
>  <score>  (334) 
7.26768

$$$$

     RDKit          3D

 58 60  0  0  0  0  0  0  0  0999 V2000
    0.2855  149.1709   51.2277 H   0  0  0  0  0  0  0  0  0  0  0  0
    0.6168  149.5721   52.1808 C   0  0  0  0  0  0  0  0  0  0  0  0
   -0.1847  150.4738   52.9059 C   0  0  0  0  0  0  0  0  0  0  0  0
   -1.9170  150.9788   52.2666 Br  0  0  0  0  0  0  0  0  0  0  0  0
    0.3080  151.0339   54.0994 C   0  0  0  0  0  0  0  0  0  0  0  0
   -0.3828  151.9747   54.8063 O   0  0  0  0  0  0  0  0  0  0  0  0
   -1.4189  151.4045   55.6042 C   0  0  0  0  0  0  0  0  0  0  0  0
   -1.0049  150.6863   56.3161 H   0  0  0  0  0  0  0  0  0  0  0  0
   -2.1459  150.8860   54.9729 H   0  0  0  0  0  0  0  0  0  0  0  0
   -1.9306  152.1961   56.1608 H   0  0  0  0  0  0  0  0  0  0  0  0
    1.5607  150.6703   54.5784 C   0  0  0  0  0  0  0  0  0  0  0  0
    1.9427  151.1285   55.4912 H   0  0  0  0  0  0  0  0  0  0  0  0
    2.3368  149.7515   53.8764 C   0  0  0  0  0  0  0  0  0  0  0  0
    3.6881  149.4247   54.4250 C   0  0  0  0  0  0  0  0  0  0  0  0
    3.9592  150.2180   55.1059 H   0  0  0  0  0  0  0  0  0  0  0  0
    4.4070  149.4010   53.6087 H   0  0  0  0  0  0  0  0  0  0  0  0
    3.7253  148.1176   55.1966 C   0  0  0  0  0  0  0  0  0  0  0  0
    3.8045  148.1449   56.4130 O   0  0  0  0  0  0  0  0  0  0  0  0
    3.6737  146.9267   54.5428 N   0  0  0  0  0  0  0  0  0  0  0  0
    3.3859  146.9006   53.5778 H   0  0  0  0  0  0  0  0  0  0  0  0
    3.5034  145.7497   55.1520 C   0  0  0  0  0  0  0  0  0  0  0  0
    2.9699  144.9319   54.2829 N   0  0  0  0  0  0  0  0  0  0  0  0
    2.8440  143.6648   54.6371 C   0  0  0  0  0  0  0  0  0  0  0  0
    2.3083  142.8017   53.6811 N   0  0  0  0  0  0  0  0  0  0  0  0
    1.1623  143.2202   52.8416 C   0  0  0  0  0  0  0  0  0  0  0  0
    0.3046  143.4918   53.4527 H   0  0  0  0  0  0  0  0  0  0  0  0
    1.4319  144.1081   52.2742 H   0  0  0  0  0  0  0  0  0  0  0  0
    0.7462  142.1002   51.8627 C   0  0  0  0  0  0  0  0  0  0  0  0
    0.4274  141.2201   52.4271 H   0  0  0  0  0  0  0  0  0  0  0  0
   -0.0993  142.4430   51.2570 H   0  0  0  0  0  0  0  0  0  0  0  0
    1.8652  141.7189   50.9972 N   0  0  0  0  0  0  0  0  0  0  0  0
    1.6903  141.6989   49.6118 C   0  0  0  0  0  0  0  0  0  0  0  0
    0.5857  141.9368   49.1324 O   0  0  0  0  0  0  0  0  0  0  0  0
    2.8438  141.4559   48.6548 C   0  0  0  0  0  0  0  0  0  0  0  0
    3.5795  142.2527   48.7839 H   0  0  0  0  0  0  0  0  0  0  0  0
    2.5004  141.4467   47.6111 H   0  0  0  0  0  0  0  0  0  0  0  0
    3.3179  140.4977   48.8826 H   0  0  0  0  0  0  0  0  0  0  0  0
    3.1898  141.6089   51.6367 C   0  0  0  0  0  0  0  0  0  0  0  0
    3.8072  142.4390   51.2858 H   0  0  0  0  0  0  0  0  0  0  0  0
    3.6835  140.6773   51.3426 H   0  0  0  0  0  0  0  0  0  0  0  0
    3.1177  141.6601   53.1906 C   0  0  0  0  0  0  0  0  0  0  0  0
    2.6888  140.7230   53.5572 H   0  0  0  0  0  0  0  0  0  0  0  0
    4.1312  141.7202   53.5852 H   0  0  0  0  0  0  0  0  0  0  0  0
    3.2502  143.1937   55.8631 C   0  0  0  0  0  0  0  0  0  0  0  0
    3.1477  141.8064   56.1684 C   0  0  0  0  0  0  0  0  0  0  0  0
    3.0782  140.6707   56.4100 N   0  0  0  0  0  0  0  0  0  0  0  0
    3.7439  144.1119   56.7527 C   0  0  0  0  0  0  0  0  0  0  0  0
    4.1578  143.7494   57.9760 N   0  0  0  0  0  0  0  0  0  0  0  0
    4.0604  142.7809   58.2609 H   0  0  0  0  0  0  0  0  0  0  0  0
    4.4613  144.4681   58.6298 H   0  0  0  0  0  0  0  0  0  0  0  0
    3.8703  145.4215   56.4278 C   0  0  0  0  0  0  0  0  0  0  0  0
    4.2752  146.1251   57.1411 H   0  0  0  0  0  0  0  0  0  0  0  0
    1.8894  149.2152   52.6601 C   0  0  0  0  0  0  0  0  0  0  0  0
    2.7542  148.4055   51.9655 O   0  0  0  0  0  0  0  0  0  0  0  0
    2.1438  147.3135   51.2781 C   0  0  0  0  0  0  0  0  0  0  0  0
    1.6007  147.6641   50.3961 H   0  0  0  0  0  0  0  0  0  0  0  0
    1.4494  146.7926   51.9439 H   0  0  0  0  0  0  0  0  0  0  0  0
    2.9123  146.6038   50.9575 H   0  0  0  0  0  0  0  0  0  0  0  0
  1  2  1  0
  2  3  2  0
  3  4  1  0
  3  5  1  0
  5  6  1  0
  6  7  1  0
  7  8  1  0
  7  9  1  0
  7 10  1  0
  5 11  2  0
 11 12  1  0
 11 13  1  0
 13 14  1  0
 14 15  1  0
 14 16  1  0
 14 17  1  0
 17 18  2  0
 17 19  1  0
 19 20  1  0
 19 21  1  0
 21 22  2  0
 22 23  1  0
 23 24  1  0
 24 25  1  0
 25 26  1  0
 25 27  1  0
 25 28  1  0
 28 29  1  0
 28 30  1  0
 28 31  1  0
 31 32  1  0
 32 33  2  0
 32 34  1  0
 34 35  1  0
 34 36  1  0
 34 37  1  0
 31 38  1  0
 38 39  1  0
 38 40  1  0
 38 41  1  0
 41 42  1  0
 41 43  1  0
 23 44  2  0
 44 45  1  0
 45 46  3  0
 44 47  1  0
 47 48  1  0
 48 49  1  0
 48 50  1  0
 47 51  2  0
 51 52  1  0
 13 53  2  0
 53 54  1  0
 54 55  1  0
 55 56  1  0
 55 57  1  0
 55 58  1  0
 53  2  1  0
 51 21  1  0
 41 24  1  0
M  END
>  <score>  (335) 
7.26811

$$$$

     RDKit          3D

 50 52  0  0  0  0  0  0  0  0999 V2000
    0.2297  141.2519   52.0490 H   0  0  0  0  0  0  0  0  0  0  0  0
    1.1776  141.7760   51.9510 C   0  0  0  0  0  0  0  0  0  0  0  0
    1.7734  141.8959   50.6893 C   0  0  0  0  0  0  0  0  0  0  0  0
    1.2653  141.4583   49.8317 H   0  0  0  0  0  0  0  0  0  0  0  0
    3.0040  142.5555   50.5521 C   0  0  0  0  0  0  0  0  0  0  0  0
    3.6548  142.5996   49.2764 C   0  0  0  0  0  0  0  0  0  0  0  0
    4.2020  142.6042   48.2462 N   0  0  0  0  0  0  0  0  0  0  0  0
    3.5892  143.1474   51.6797 C   0  0  0  0  0  0  0  0  0  0  0  0
    4.5182  143.6959   51.5625 H   0  0  0  0  0  0  0  0  0  0  0  0
    2.9901  143.0426   52.9477 C   0  0  0  0  0  0  0  0  0  0  0  0
    3.4773  143.8132   54.0925 C   0  0  0  0  0  0  0  0  0  0  0  0
    3.6753  145.1107   53.8541 N   0  0  0  0  0  0  0  0  0  0  0  0
    3.8626  145.9122   54.8700 C   0  0  0  0  0  0  0  0  0  0  0  0
    3.8546  147.1817   54.4398 N   0  0  0  0  0  0  0  0  0  0  0  0
    3.7417  147.2695   53.4406 H   0  0  0  0  0  0  0  0  0  0  0  0
    3.7067  148.2824   55.2267 C   0  0  0  0  0  0  0  0  0  0  0  0
    3.7560  148.2012   56.4435 O   0  0  0  0  0  0  0  0  0  0  0  0
    3.6116  149.6378   54.5482 C   0  0  0  0  0  0  0  0  0  0  0  0
    3.7471  150.4112   55.3064 H   0  0  0  0  0  0  0  0  0  0  0  0
    4.4198  149.7199   53.8161 H   0  0  0  0  0  0  0  0  0  0  0  0
    2.2772  149.8665   53.8911 C   0  0  0  0  0  0  0  0  0  0  0  0
    1.4282  150.7782   54.5307 C   0  0  0  0  0  0  0  0  0  0  0  0
    1.7400  151.2523   55.4596 H   0  0  0  0  0  0  0  0  0  0  0  0
    0.1805  151.0878   53.9999 C   0  0  0  0  0  0  0  0  0  0  0  0
   -0.6025  152.0005   54.6517 O   0  0  0  0  0  0  0  0  0  0  0  0
   -1.5648  151.3905   55.5181 C   0  0  0  0  0  0  0  0  0  0  0  0
   -1.0899  150.6485   56.1676 H   0  0  0  0  0  0  0  0  0  0  0  0
   -2.0282  152.1534   56.1530 H   0  0  0  0  0  0  0  0  0  0  0  0
   -2.3479  150.8978   54.9315 H   0  0  0  0  0  0  0  0  0  0  0  0
   -0.2368  150.4562   52.8190 C   0  0  0  0  0  0  0  0  0  0  0  0
   -1.9609  150.8240   52.0771 Br  0  0  0  0  0  0  0  0  0  0  0  0
    0.6042  149.5259   52.1900 C   0  0  0  0  0  0  0  0  0  0  0  0
    0.2791  149.0282   51.2860 H   0  0  0  0  0  0  0  0  0  0  0  0
    1.8700  149.2083   52.7073 C   0  0  0  0  0  0  0  0  0  0  0  0
    2.6957  148.2820   52.0973 O   0  0  0  0  0  0  0  0  0  0  0  0
    2.0465  147.3121   51.2501 C   0  0  0  0  0  0  0  0  0  0  0  0
    1.5294  147.7900   50.4100 H   0  0  0  0  0  0  0  0  0  0  0  0
    2.7818  146.6142   50.8370 H   0  0  0  0  0  0  0  0  0  0  0  0
    1.3175  146.7345   51.8290 H   0  0  0  0  0  0  0  0  0  0  0  0
    3.9178  145.5076   56.1678 C   0  0  0  0  0  0  0  0  0  0  0  0
    4.0233  146.2125   56.9723 H   0  0  0  0  0  0  0  0  0  0  0  0
    3.7670  144.1822   56.4049 C   0  0  0  0  0  0  0  0  0  0  0  0
    3.8109  143.8103   57.7018 N   0  0  0  0  0  0  0  0  0  0  0  0
    4.1697  144.5071   58.3501 H   0  0  0  0  0  0  0  0  0  0  0  0
    3.9720  142.8268   57.8978 H   0  0  0  0  0  0  0  0  0  0  0  0
    3.5169  143.3002   55.3861 C   0  0  0  0  0  0  0  0  0  0  0  0
    3.2627  141.9263   55.6685 C   0  0  0  0  0  0  0  0  0  0  0  0
    3.0663  140.8018   55.8893 N   0  0  0  0  0  0  0  0  0  0  0  0
    1.8079  142.3057   53.0839 C   0  0  0  0  0  0  0  0  0  0  0  0
    1.3455  142.2277   54.0670 H   0  0  0  0  0  0  0  0  0  0  0  0
  1  2  1  0
  2  3  2  0
  3  4  1  0
  3  5  1  0
  5  6  1  0
  6  7  3  0
  5  8  2  0
  8  9  1  0
  8 10  1  0
 10 11  1  0
 11 12  2  0
 12 13  1  0
 13 14  1  0
 14 15  1  0
 14 16  1  0
 16 17  2  0
 16 18  1  0
 18 19  1  0
 18 20  1  0
 18 21  1  0
 21 22  2  0
 22 23  1  0
 22 24  1  0
 24 25  1  0
 25 26  1  0
 26 27  1  0
 26 28  1  0
 26 29  1  0
 24 30  2  0
 30 31  1  0
 30 32  1  0
 32 33  1  0
 32 34  2  0
 34 35  1  0
 35 36  1  0
 36 37  1  0
 36 38  1  0
 36 39  1  0
 13 40  2  0
 40 41  1  0
 40 42  1  0
 42 43  1  0
 43 44  1  0
 43 45  1  0
 42 46  2  0
 46 47  1  0
 47 48  3  0
 10 49  2  0
 49 50  1  0
 49  2  1  0
 46 11  1  0
 34 21  1  0
M  END
>  <score>  (336) 
7.26868

$$$$

     RDKit          3D

 51 53  0  0  0  0  0  0  0  0999 V2000
    0.2367  149.1164   51.2488 H   0  0  0  0  0  0  0  0  0  0  0  0
    0.5962  149.5465   52.1780 C   0  0  0  0  0  0  0  0  0  0  0  0
   -0.2117  150.4638   52.8720 C   0  0  0  0  0  0  0  0  0  0  0  0
   -1.9500  150.9173   52.2077 Br  0  0  0  0  0  0  0  0  0  0  0  0
    0.2692  151.0471   54.0548 C   0  0  0  0  0  0  0  0  0  0  0  0
   -0.4420  151.9940   54.7382 O   0  0  0  0  0  0  0  0  0  0  0  0
   -1.4542  151.4012   55.5447 C   0  0  0  0  0  0  0  0  0  0  0  0
   -1.0107  150.6658   56.2231 H   0  0  0  0  0  0  0  0  0  0  0  0
   -2.1973  150.9007   54.9144 H   0  0  0  0  0  0  0  0  0  0  0  0
   -1.9492  152.1772   56.1361 H   0  0  0  0  0  0  0  0  0  0  0  0
    1.5075  150.6636   54.5593 C   0  0  0  0  0  0  0  0  0  0  0  0
    1.8454  151.0961   55.4967 H   0  0  0  0  0  0  0  0  0  0  0  0
    2.3149  149.7491   53.8773 C   0  0  0  0  0  0  0  0  0  0  0  0
    3.6442  149.3955   54.4909 C   0  0  0  0  0  0  0  0  0  0  0  0
    3.8732  150.1317   55.2578 H   0  0  0  0  0  0  0  0  0  0  0  0
    4.4242  149.4477   53.7279 H   0  0  0  0  0  0  0  0  0  0  0  0
    3.6400  148.0320   55.1698 C   0  0  0  0  0  0  0  0  0  0  0  0
    3.7737  147.9699   56.3826 O   0  0  0  0  0  0  0  0  0  0  0  0
    3.5184  146.8829   54.4393 N   0  0  0  0  0  0  0  0  0  0  0  0
    3.2557  146.9214   53.4648 H   0  0  0  0  0  0  0  0  0  0  0  0
    3.4483  145.6546   54.9843 C   0  0  0  0  0  0  0  0  0  0  0  0
    2.9833  144.7778   54.1244 N   0  0  0  0  0  0  0  0  0  0  0  0
    2.9076  143.5110   54.5163 C   0  0  0  0  0  0  0  0  0  0  0  0
    2.3199  142.6173   53.5510 C   0  0  0  0  0  0  0  0  0  0  0  0
    1.1250  142.8588   52.8031 C   0  0  0  0  0  0  0  0  0  0  0  0
    0.2012  144.0084   52.9533 C   0  0  0  0  0  0  0  0  0  0  0  0
   -0.2454  144.2214   51.9758 H   0  0  0  0  0  0  0  0  0  0  0  0
   -0.5956  143.7628   53.6556 H   0  0  0  0  0  0  0  0  0  0  0  0
    0.7150  144.8941   53.3351 H   0  0  0  0  0  0  0  0  0  0  0  0
    0.9188  141.9082   51.9311 N   0  0  0  0  0  0  0  0  0  0  0  0
    1.9935  140.9778   52.1002 O   0  0  0  0  0  0  0  0  0  0  0  0
    2.8411  141.4731   53.0592 C   0  0  0  0  0  0  0  0  0  0  0  0
    4.1972  140.9388   53.4041 C   0  0  0  0  0  0  0  0  0  0  0  0
    4.5595  141.2669   54.3809 H   0  0  0  0  0  0  0  0  0  0  0  0
    4.9001  141.2830   52.6376 H   0  0  0  0  0  0  0  0  0  0  0  0
    4.1661  139.8536   53.4196 H   0  0  0  0  0  0  0  0  0  0  0  0
    3.3042  143.0861   55.7819 C   0  0  0  0  0  0  0  0  0  0  0  0
    3.2129  141.7117   56.1549 C   0  0  0  0  0  0  0  0  0  0  0  0
    3.1638  140.5890   56.4517 N   0  0  0  0  0  0  0  0  0  0  0  0
    3.7443  144.0446   56.6719 C   0  0  0  0  0  0  0  0  0  0  0  0
    4.1191  143.7677   57.9526 N   0  0  0  0  0  0  0  0  0  0  0  0
    4.3965  144.5385   58.5594 H   0  0  0  0  0  0  0  0  0  0  0  0
    4.1027  142.8144   58.3170 H   0  0  0  0  0  0  0  0  0  0  0  0
    3.8242  145.3442   56.2673 C   0  0  0  0  0  0  0  0  0  0  0  0
    4.1755  146.0946   56.9501 H   0  0  0  0  0  0  0  0  0  0  0  0
    1.8746  149.2017   52.6585 C   0  0  0  0  0  0  0  0  0  0  0  0
    2.7236  148.3578   51.9824 O   0  0  0  0  0  0  0  0  0  0  0  0
    2.0867  147.3077   51.2555 C   0  0  0  0  0  0  0  0  0  0  0  0
    1.3803  146.7716   51.9010 H   0  0  0  0  0  0  0  0  0  0  0  0
    1.5527  147.7098   50.3881 H   0  0  0  0  0  0  0  0  0  0  0  0
    2.8505  146.6040   50.9100 H   0  0  0  0  0  0  0  0  0  0  0  0
  1  2  1  0
  2  3  2  0
  3  4  1  0
  3  5  1  0
  5  6  1  0
  6  7  1  0
  7  8  1  0
  7  9  1  0
  7 10  1  0
  5 11  2  0
 11 12  1  0
 11 13  1  0
 13 14  1  0
 14 15  1  0
 14 16  1  0
 14 17  1  0
 17 18  2  0
 17 19  1  0
 19 20  1  0
 19 21  1  0
 21 22  2  0
 22 23  1  0
 23 24  1  0
 24 25  1  0
 25 26  1  0
 26 27  1  0
 26 28  1  0
 26 29  1  0
 25 30  2  0
 30 31  1  0
 31 32  1  0
 32 33  1  0
 33 34  1  0
 33 35  1  0
 33 36  1  0
 23 37  2  0
 37 38  1  0
 38 39  3  0
 37 40  1  0
 40 41  1  0
 41 42  1  0
 41 43  1  0
 40 44  2  0
 44 45  1  0
 13 46  2  0
 46 47  1  0
 47 48  1  0
 48 49  1  0
 48 50  1  0
 48 51  1  0
 46  2  1  0
 44 21  1  0
 32 24  2  0
M  END
>  <score>  (337) 
7.26914

$$$$

     RDKit          3D

 55 57  0  0  0  0  0  0  0  0999 V2000
    0.2479  149.1189   51.2632 H   0  0  0  0  0  0  0  0  0  0  0  0
    0.6107  149.5586   52.1848 C   0  0  0  0  0  0  0  0  0  0  0  0
   -0.1999  150.4726   52.8754 C   0  0  0  0  0  0  0  0  0  0  0  0
   -1.9347  150.9110   52.1963 Br  0  0  0  0  0  0  0  0  0  0  0  0
    0.2680  151.0592   54.0608 C   0  0  0  0  0  0  0  0  0  0  0  0
   -0.4570  151.9922   54.7478 O   0  0  0  0  0  0  0  0  0  0  0  0
   -1.4686  151.4030   55.5642 C   0  0  0  0  0  0  0  0  0  0  0  0
   -2.2146  150.8972   54.9445 H   0  0  0  0  0  0  0  0  0  0  0  0
   -1.9674  152.1768   56.1561 H   0  0  0  0  0  0  0  0  0  0  0  0
   -1.0254  150.6732   56.2458 H   0  0  0  0  0  0  0  0  0  0  0  0
    1.5116  150.6913   54.5591 C   0  0  0  0  0  0  0  0  0  0  0  0
    1.8518  151.1260   55.4939 H   0  0  0  0  0  0  0  0  0  0  0  0
    2.3268  149.7915   53.8718 C   0  0  0  0  0  0  0  0  0  0  0  0
    3.6722  149.5119   54.4768 C   0  0  0  0  0  0  0  0  0  0  0  0
    4.4391  149.4904   53.7003 H   0  0  0  0  0  0  0  0  0  0  0  0
    3.8853  150.3290   55.1597 H   0  0  0  0  0  0  0  0  0  0  0  0
    3.7199  148.2174   55.2679 C   0  0  0  0  0  0  0  0  0  0  0  0
    3.7863  148.2316   56.4827 O   0  0  0  0  0  0  0  0  0  0  0  0
    3.7427  147.0421   54.5873 N   0  0  0  0  0  0  0  0  0  0  0  0
    3.4397  147.0494   53.6260 H   0  0  0  0  0  0  0  0  0  0  0  0
    3.5858  145.8610   55.1997 C   0  0  0  0  0  0  0  0  0  0  0  0
    2.9911  145.0591   54.3607 N   0  0  0  0  0  0  0  0  0  0  0  0
    2.7845  143.8150   54.7559 C   0  0  0  0  0  0  0  0  0  0  0  0
    2.0364  142.9790   53.7851 C   0  0  0  0  0  0  0  0  0  0  0  0
    1.4659  142.2123   54.3027 H   0  0  0  0  0  0  0  0  0  0  0  0
    1.3344  143.6011   53.2183 H   0  0  0  0  0  0  0  0  0  0  0  0
    3.0301  142.3404   52.8792 C   0  0  0  0  0  0  0  0  0  0  0  0
    3.4989  143.0163   51.7538 C   0  0  0  0  0  0  0  0  0  0  0  0
    3.1826  144.0385   51.5667 H   0  0  0  0  0  0  0  0  0  0  0  0
    4.3692  142.3711   50.8688 C   0  0  0  0  0  0  0  0  0  0  0  0
    4.7161  142.9084   49.9884 H   0  0  0  0  0  0  0  0  0  0  0  0
    4.7708  141.0351   51.0902 C   0  0  0  0  0  0  0  0  0  0  0  0
    5.5906  140.2720   50.0510 C   0  0  0  0  0  0  0  0  0  0  0  0
    4.7350  139.6490   49.1828 F   0  0  0  0  0  0  0  0  0  0  0  0
    6.3650  141.1246   49.3267 F   0  0  0  0  0  0  0  0  0  0  0  0
    6.3624  139.3094   50.6334 F   0  0  0  0  0  0  0  0  0  0  0  0
    4.3451  140.3973   52.2655 C   0  0  0  0  0  0  0  0  0  0  0  0
    4.6965  139.3886   52.4845 H   0  0  0  0  0  0  0  0  0  0  0  0
    3.4880  141.0490   53.1487 C   0  0  0  0  0  0  0  0  0  0  0  0
    3.1714  140.5170   54.0353 H   0  0  0  0  0  0  0  0  0  0  0  0
    3.2274  143.3227   55.9720 C   0  0  0  0  0  0  0  0  0  0  0  0
    3.1314  141.9257   56.2540 C   0  0  0  0  0  0  0  0  0  0  0  0
    3.0807  140.7763   56.4106 N   0  0  0  0  0  0  0  0  0  0  0  0
    3.7814  144.2220   56.8518 C   0  0  0  0  0  0  0  0  0  0  0  0
    4.1661  143.8419   58.0926 N   0  0  0  0  0  0  0  0  0  0  0  0
    4.5158  144.5417   58.7442 H   0  0  0  0  0  0  0  0  0  0  0  0
    4.1173  142.8608   58.3539 H   0  0  0  0  0  0  0  0  0  0  0  0
    3.9587  145.5252   56.4774 C   0  0  0  0  0  0  0  0  0  0  0  0
    4.4021  146.2521   57.1404 H   0  0  0  0  0  0  0  0  0  0  0  0
    1.8899  149.2185   52.6625 C   0  0  0  0  0  0  0  0  0  0  0  0
    2.7308  148.3603   51.9924 O   0  0  0  0  0  0  0  0  0  0  0  0
    2.0977  147.3068   51.2564 C   0  0  0  0  0  0  0  0  0  0  0  0
    1.5524  147.7010   50.3940 H   0  0  0  0  0  0  0  0  0  0  0  0
    1.3996  146.7571   51.8957 H   0  0  0  0  0  0  0  0  0  0  0  0
    2.8588  146.6068   50.8983 H   0  0  0  0  0  0  0  0  0  0  0  0
  1  2  1  0
  2  3  2  0
  3  4  1  0
  3  5  1  0
  5  6  1  0
  6  7  1  0
  7  8  1  0
  7  9  1  0
  7 10  1  0
  5 11  2  0
 11 12  1  0
 11 13  1  0
 13 14  1  0
 14 15  1  0
 14 16  1  0
 14 17  1  0
 17 18  2  0
 17 19  1  0
 19 20  1  0
 19 21  1  0
 21 22  2  0
 22 23  1  0
 23 24  1  0
 24 25  1  0
 24 26  1  0
 24 27  1  0
 27 28  2  0
 28 29  1  0
 28 30  1  0
 30 31  1  0
 30 32  2  0
 32 33  1  0
 33 34  1  0
 33 35  1  0
 33 36  1  0
 32 37  1  0
 37 38  1  0
 37 39  2  0
 39 40  1  0
 23 41  2  0
 41 42  1  0
 42 43  3  0
 41 44  1  0
 44 45  1  0
 45 46  1  0
 45 47  1  0
 44 48  2  0
 48 49  1  0
 13 50  2  0
 50 51  1  0
 51 52  1  0
 52 53  1  0
 52 54  1  0
 52 55  1  0
 50  2  1  0
 48 21  1  0
 39 27  1  0
M  END
>  <score>  (338) 
7.27004

$$$$

     RDKit          3D

 50 52  0  0  0  0  0  0  0  0999 V2000
    1.0376  142.5416   49.0826 H   0  0  0  0  0  0  0  0  0  0  0  0
    1.8019  142.8489   49.7895 C   0  0  0  0  0  0  0  0  0  0  0  0
    2.9290  143.4108   49.3270 N   0  0  0  0  0  0  0  0  0  0  0  0
    3.8481  143.7920   50.2202 C   0  0  0  0  0  0  0  0  0  0  0  0
    4.7426  144.2654   49.8637 H   0  0  0  0  0  0  0  0  0  0  0  0
    3.6842  143.6224   51.5885 C   0  0  0  0  0  0  0  0  0  0  0  0
    4.4729  143.9413   52.2318 H   0  0  0  0  0  0  0  0  0  0  0  0
    2.5297  143.0579   52.1047 C   0  0  0  0  0  0  0  0  0  0  0  0
    2.3232  142.9345   53.5660 C   0  0  0  0  0  0  0  0  0  0  0  0
    1.3683  142.2769   53.9212 O   0  0  0  0  0  0  0  0  0  0  0  0
    3.0187  143.7491   54.6018 C   0  0  0  0  0  0  0  0  0  0  0  0
    3.2405  145.0343   54.3180 N   0  0  0  0  0  0  0  0  0  0  0  0
    3.6691  145.8496   55.2541 C   0  0  0  0  0  0  0  0  0  0  0  0
    3.7651  147.0370   54.6578 N   0  0  0  0  0  0  0  0  0  0  0  0
    3.5149  146.9870   53.6840 H   0  0  0  0  0  0  0  0  0  0  0  0
    3.7607  148.2437   55.2774 C   0  0  0  0  0  0  0  0  0  0  0  0
    3.8522  148.3144   56.4899 O   0  0  0  0  0  0  0  0  0  0  0  0
    3.7176  149.4930   54.4078 C   0  0  0  0  0  0  0  0  0  0  0  0
    3.9903  150.3575   54.9909 H   0  0  0  0  0  0  0  0  0  0  0  0
    4.4153  149.3870   53.5792 H   0  0  0  0  0  0  0  0  0  0  0  0
    2.3692  149.7917   53.8597 C   0  0  0  0  0  0  0  0  0  0  0  0
    1.5843  150.6916   54.5758 C   0  0  0  0  0  0  0  0  0  0  0  0
    1.9791  151.1428   55.4803 H   0  0  0  0  0  0  0  0  0  0  0  0
    0.3229  151.0511   54.1238 C   0  0  0  0  0  0  0  0  0  0  0  0
   -0.3822  151.9754   54.8475 O   0  0  0  0  0  0  0  0  0  0  0  0
   -1.4246  151.4049   55.6377 C   0  0  0  0  0  0  0  0  0  0  0  0
   -1.9404  152.1989   56.1842 H   0  0  0  0  0  0  0  0  0  0  0  0
   -2.1489  150.8790   55.0114 H   0  0  0  0  0  0  0  0  0  0  0  0
   -1.0120  150.6993   56.3583 H   0  0  0  0  0  0  0  0  0  0  0  0
   -0.1544  150.4932   52.9222 C   0  0  0  0  0  0  0  0  0  0  0  0
   -1.8868  150.9845   52.2732 Br  0  0  0  0  0  0  0  0  0  0  0  0
    0.6474  149.5931   52.1889 C   0  0  0  0  0  0  0  0  0  0  0  0
    0.2973  149.1926   51.2417 H   0  0  0  0  0  0  0  0  0  0  0  0
    1.9224  149.2332   52.6528 C   0  0  0  0  0  0  0  0  0  0  0  0
    2.7711  148.4045   51.9544 O   0  0  0  0  0  0  0  0  0  0  0  0
    2.1613  147.3004   51.2803 C   0  0  0  0  0  0  0  0  0  0  0  0
    2.9407  146.6027   50.9562 H   0  0  0  0  0  0  0  0  0  0  0  0
    1.6088  147.6436   50.4011 H   0  0  0  0  0  0  0  0  0  0  0  0
    1.4791  146.7680   51.9515 H   0  0  0  0  0  0  0  0  0  0  0  0
    3.9488  145.4925   56.5448 C   0  0  0  0  0  0  0  0  0  0  0  0
    4.3135  146.1738   57.3037 H   0  0  0  0  0  0  0  0  0  0  0  0
    3.7984  144.1649   56.8211 C   0  0  0  0  0  0  0  0  0  0  0  0
    4.1409  143.7545   58.0601 N   0  0  0  0  0  0  0  0  0  0  0  0
    4.5086  144.4280   58.7221 H   0  0  0  0  0  0  0  0  0  0  0  0
    4.0727  142.7715   58.3058 H   0  0  0  0  0  0  0  0  0  0  0  0
    3.3265  143.2677   55.8812 C   0  0  0  0  0  0  0  0  0  0  0  0
    3.1691  141.8841   56.2093 C   0  0  0  0  0  0  0  0  0  0  0  0
    3.0449  140.7566   56.4571 N   0  0  0  0  0  0  0  0  0  0  0  0
    1.5742  142.6507   51.1580 C   0  0  0  0  0  0  0  0  0  0  0  0
    0.6469  142.1912   51.4813 H   0  0  0  0  0  0  0  0  0  0  0  0
  1  2  1  0
  2  3  2  0
  3  4  1  0
  4  5  1  0
  4  6  2  0
  6  7  1  0
  6  8  1  0
  8  9  1  0
  9 10  2  0
  9 11  1  0
 11 12  2  0
 12 13  1  0
 13 14  1  0
 14 15  1  0
 14 16  1  0
 16 17  2  0
 16 18  1  0
 18 19  1  0
 18 20  1  0
 18 21  1  0
 21 22  2  0
 22 23  1  0
 22 24  1  0
 24 25  1  0
 25 26  1  0
 26 27  1  0
 26 28  1  0
 26 29  1  0
 24 30  2  0
 30 31  1  0
 30 32  1  0
 32 33  1  0
 32 34  2  0
 34 35  1  0
 35 36  1  0
 36 37  1  0
 36 38  1  0
 36 39  1  0
 13 40  2  0
 40 41  1  0
 40 42  1  0
 42 43  1  0
 43 44  1  0
 43 45  1  0
 42 46  2  0
 46 47  1  0
 47 48  3  0
  8 49  2  0
 49 50  1  0
 49  2  1  0
 46 11  1  0
 34 21  1  0
M  END
>  <score>  (339) 
7.2702

$$$$

     RDKit          3D

 56 58  0  0  0  0  0  0  0  0999 V2000
    5.9985  138.8205   51.1672 H   0  0  0  0  0  0  0  0  0  0  0  0
    5.1275  139.4616   51.2598 C   0  0  0  0  0  0  0  0  0  0  0  0
    4.6842  140.2199   50.1699 C   0  0  0  0  0  0  0  0  0  0  0  0
    5.1961  140.1490   49.2165 H   0  0  0  0  0  0  0  0  0  0  0  0
    3.6104  141.0956   50.3194 C   0  0  0  0  0  0  0  0  0  0  0  0
    3.2817  141.6855   49.4737 H   0  0  0  0  0  0  0  0  0  0  0  0
    2.9354  141.1833   51.5385 C   0  0  0  0  0  0  0  0  0  0  0  0
    1.7098  142.0353   51.6741 C   0  0  0  0  0  0  0  0  0  0  0  0
    0.9287  141.4540   52.1758 H   0  0  0  0  0  0  0  0  0  0  0  0
    1.3339  142.3262   50.6887 H   0  0  0  0  0  0  0  0  0  0  0  0
    2.0300  143.2634   52.5040 C   0  0  0  0  0  0  0  0  0  0  0  0
    2.8901  143.8077   52.0837 H   0  0  0  0  0  0  0  0  0  0  0  0
    1.1633  143.9333   52.5104 H   0  0  0  0  0  0  0  0  0  0  0  0
    2.3086  142.7887   53.8259 O   0  0  0  0  0  0  0  0  0  0  0  0
    2.8773  143.6830   54.6734 C   0  0  0  0  0  0  0  0  0  0  0  0
    3.0439  144.9364   54.2724 N   0  0  0  0  0  0  0  0  0  0  0  0
    3.5561  145.7683   55.1286 C   0  0  0  0  0  0  0  0  0  0  0  0
    3.6909  146.9504   54.5204 N   0  0  0  0  0  0  0  0  0  0  0  0
    3.3822  146.9516   53.5628 H   0  0  0  0  0  0  0  0  0  0  0  0
    3.7062  148.1254   55.1973 C   0  0  0  0  0  0  0  0  0  0  0  0
    3.7945  148.1321   56.4122 O   0  0  0  0  0  0  0  0  0  0  0  0
    3.6823  149.4333   54.4338 C   0  0  0  0  0  0  0  0  0  0  0  0
    3.9286  150.2124   55.1434 H   0  0  0  0  0  0  0  0  0  0  0  0
    4.4251  149.4249   53.6317 H   0  0  0  0  0  0  0  0  0  0  0  0
    2.3353  149.7565   53.8708 C   0  0  0  0  0  0  0  0  0  0  0  0
    1.5456  150.6614   54.5738 C   0  0  0  0  0  0  0  0  0  0  0  0
    1.9109  151.1061   55.4942 H   0  0  0  0  0  0  0  0  0  0  0  0
    0.2994  151.0389   54.0904 C   0  0  0  0  0  0  0  0  0  0  0  0
   -0.3989  151.9812   54.7872 O   0  0  0  0  0  0  0  0  0  0  0  0
   -1.4278  151.4040   55.5873 C   0  0  0  0  0  0  0  0  0  0  0  0
   -1.9350  152.1878   56.1560 H   0  0  0  0  0  0  0  0  0  0  0  0
   -1.0054  150.6835   56.2906 H   0  0  0  0  0  0  0  0  0  0  0  0
   -2.1589  150.8911   54.9567 H   0  0  0  0  0  0  0  0  0  0  0  0
   -0.1918  150.4718   52.9029 C   0  0  0  0  0  0  0  0  0  0  0  0
   -1.9253  150.9623   52.2482 Br  0  0  0  0  0  0  0  0  0  0  0  0
    0.6125  149.5704   52.1852 C   0  0  0  0  0  0  0  0  0  0  0  0
    0.2712  149.1623   51.2399 H   0  0  0  0  0  0  0  0  0  0  0  0
    1.8884  149.2165   52.6579 C   0  0  0  0  0  0  0  0  0  0  0  0
    2.7442  148.3943   51.9673 O   0  0  0  0  0  0  0  0  0  0  0  0
    2.1299  147.3103   51.2711 C   0  0  0  0  0  0  0  0  0  0  0  0
    2.8985  146.6048   50.9413 H   0  0  0  0  0  0  0  0  0  0  0  0
    1.4372  146.7832   51.9339 H   0  0  0  0  0  0  0  0  0  0  0  0
    1.5862  147.6722   50.3943 H   0  0  0  0  0  0  0  0  0  0  0  0
    3.8870  145.4545   56.4169 C   0  0  0  0  0  0  0  0  0  0  0  0
    4.2733  146.1759   57.1154 H   0  0  0  0  0  0  0  0  0  0  0  0
    3.7431  144.1565   56.7775 C   0  0  0  0  0  0  0  0  0  0  0  0
    4.1186  143.7916   58.0106 N   0  0  0  0  0  0  0  0  0  0  0  0
    4.0787  142.8099   58.2711 H   0  0  0  0  0  0  0  0  0  0  0  0
    4.4729  144.4994   58.6459 H   0  0  0  0  0  0  0  0  0  0  0  0
    3.2510  143.2366   55.9112 C   0  0  0  0  0  0  0  0  0  0  0  0
    3.1457  141.8536   56.2289 C   0  0  0  0  0  0  0  0  0  0  0  0
    3.0765  140.7119   56.4302 N   0  0  0  0  0  0  0  0  0  0  0  0
    3.4095  140.4597   52.6295 C   0  0  0  0  0  0  0  0  0  0  0  0
    2.9420  140.5941   53.5921 H   0  0  0  0  0  0  0  0  0  0  0  0
    4.4946  139.5869   52.4963 C   0  0  0  0  0  0  0  0  0  0  0  0
    4.8380  139.0207   53.3528 H   0  0  0  0  0  0  0  0  0  0  0  0
  1  2  1  0
  2  3  2  0
  3  4  1  0
  3  5  1  0
  5  6  1  0
  5  7  2  0
  7  8  1  0
  8  9  1  0
  8 10  1  0
  8 11  1  0
 11 12  1  0
 11 13  1  0
 11 14  1  0
 14 15  1  0
 15 16  2  0
 16 17  1  0
 17 18  1  0
 18 19  1  0
 18 20  1  0
 20 21  2  0
 20 22  1  0
 22 23  1  0
 22 24  1  0
 22 25  1  0
 25 26  2  0
 26 27  1  0
 26 28  1  0
 28 29  1  0
 29 30  1  0
 30 31  1  0
 30 32  1  0
 30 33  1  0
 28 34  2  0
 34 35  1  0
 34 36  1  0
 36 37  1  0
 36 38  2  0
 38 39  1  0
 39 40  1  0
 40 41  1  0
 40 42  1  0
 40 43  1  0
 17 44  2  0
 44 45  1  0
 44 46  1  0
 46 47  1  0
 47 48  1  0
 47 49  1  0
 46 50  2  0
 50 51  1  0
 51 52  3  0
  7 53  1  0
 53 54  1  0
 53 55  2  0
 55 56  1  0
 55  2  1  0
 50 15  1  0
 38 25  1  0
M  END
>  <score>  (340) 
7.27119

$$$$

     RDKit          3D

 49 51  0  0  0  0  0  0  0  0999 V2000
    0.1909  141.1143   52.0837 H   0  0  0  0  0  0  0  0  0  0  0  0
    1.1377  141.6425   51.9588 C   0  0  0  0  0  0  0  0  0  0  0  0
    1.7752  141.7150   50.7106 C   0  0  0  0  0  0  0  0  0  0  0  0
    1.3598  141.1842   49.8604 H   0  0  0  0  0  0  0  0  0  0  0  0
    2.9325  142.4944   50.5360 C   0  0  0  0  0  0  0  0  0  0  0  0
    3.6967  142.6100   48.9669 Cl  0  0  0  0  0  0  0  0  0  0  0  0
    3.4438  143.2142   51.6242 C   0  0  0  0  0  0  0  0  0  0  0  0
    4.6570  144.4474   51.3659 Cl  0  0  0  0  0  0  0  0  0  0  0  0
    2.8833  143.0383   52.9079 C   0  0  0  0  0  0  0  0  0  0  0  0
    3.3739  143.7745   54.0764 C   0  0  0  0  0  0  0  0  0  0  0  0
    3.6027  145.0562   53.8340 N   0  0  0  0  0  0  0  0  0  0  0  0
    3.8221  145.8585   54.8386 C   0  0  0  0  0  0  0  0  0  0  0  0
    3.8023  147.1233   54.4010 N   0  0  0  0  0  0  0  0  0  0  0  0
    3.5961  147.2357   53.4181 H   0  0  0  0  0  0  0  0  0  0  0  0
    3.6874  148.2118   55.2048 C   0  0  0  0  0  0  0  0  0  0  0  0
    3.7788  148.1203   56.4166 O   0  0  0  0  0  0  0  0  0  0  0  0
    3.6307  149.5668   54.5309 C   0  0  0  0  0  0  0  0  0  0  0  0
    3.8054  150.3537   55.2651 H   0  0  0  0  0  0  0  0  0  0  0  0
    4.4279  149.6084   53.7896 H   0  0  0  0  0  0  0  0  0  0  0  0
    2.2995  149.8279   53.8847 C   0  0  0  0  0  0  0  0  0  0  0  0
    1.4639  150.7239   54.5510 C   0  0  0  0  0  0  0  0  0  0  0  0
    1.7800  151.1595   55.4955 H   0  0  0  0  0  0  0  0  0  0  0  0
    0.2268  151.0770   54.0216 C   0  0  0  0  0  0  0  0  0  0  0  0
   -0.5286  152.0022   54.6872 O   0  0  0  0  0  0  0  0  0  0  0  0
   -1.5119  151.3992   55.5301 C   0  0  0  0  0  0  0  0  0  0  0  0
   -1.0520  150.6591   56.1903 H   0  0  0  0  0  0  0  0  0  0  0  0
   -1.9960  152.1631   56.1457 H   0  0  0  0  0  0  0  0  0  0  0  0
   -2.2759  150.9037   54.9261 H   0  0  0  0  0  0  0  0  0  0  0  0
   -0.2215  150.4663   52.8387 C   0  0  0  0  0  0  0  0  0  0  0  0
   -1.9582  150.8646   52.1375 Br  0  0  0  0  0  0  0  0  0  0  0  0
    0.5982  149.5406   52.1775 C   0  0  0  0  0  0  0  0  0  0  0  0
    0.2356  149.0648   51.2701 H   0  0  0  0  0  0  0  0  0  0  0  0
    1.8749  149.2204   52.6786 C   0  0  0  0  0  0  0  0  0  0  0  0
    2.7054  148.3271   52.0358 O   0  0  0  0  0  0  0  0  0  0  0  0
    2.0681  147.3044   51.2483 C   0  0  0  0  0  0  0  0  0  0  0  0
    1.5316  147.7255   50.3928 H   0  0  0  0  0  0  0  0  0  0  0  0
    2.8162  146.6001   50.8703 H   0  0  0  0  0  0  0  0  0  0  0  0
    1.3561  146.7435   51.8583 H   0  0  0  0  0  0  0  0  0  0  0  0
    3.8967  145.4716   56.1419 C   0  0  0  0  0  0  0  0  0  0  0  0
    4.0578  146.1802   56.9368 H   0  0  0  0  0  0  0  0  0  0  0  0
    3.7276  144.1511   56.3868 C   0  0  0  0  0  0  0  0  0  0  0  0
    3.8117  143.7837   57.6743 N   0  0  0  0  0  0  0  0  0  0  0  0
    4.2122  144.4743   58.3035 H   0  0  0  0  0  0  0  0  0  0  0  0
    3.9844  142.7980   57.8421 H   0  0  0  0  0  0  0  0  0  0  0  0
    3.4466  143.2612   55.3737 C   0  0  0  0  0  0  0  0  0  0  0  0
    3.1943  141.8883   55.6699 C   0  0  0  0  0  0  0  0  0  0  0  0
    3.0066  140.7808   55.9682 N   0  0  0  0  0  0  0  0  0  0  0  0
    1.7212  142.2770   53.0522 C   0  0  0  0  0  0  0  0  0  0  0  0
    1.2242  142.2579   54.0149 H   0  0  0  0  0  0  0  0  0  0  0  0
  1  2  1  0
  2  3  2  0
  3  4  1  0
  3  5  1  0
  5  6  1  0
  5  7  2  0
  7  8  1  0
  7  9  1  0
  9 10  1  0
 10 11  2  0
 11 12  1  0
 12 13  1  0
 13 14  1  0
 13 15  1  0
 15 16  2  0
 15 17  1  0
 17 18  1  0
 17 19  1  0
 17 20  1  0
 20 21  2  0
 21 22  1  0
 21 23  1  0
 23 24  1  0
 24 25  1  0
 25 26  1  0
 25 27  1  0
 25 28  1  0
 23 29  2  0
 29 30  1  0
 29 31  1  0
 31 32  1  0
 31 33  2  0
 33 34  1  0
 34 35  1  0
 35 36  1  0
 35 37  1  0
 35 38  1  0
 12 39  2  0
 39 40  1  0
 39 41  1  0
 41 42  1  0
 42 43  1  0
 42 44  1  0
 41 45  2  0
 45 46  1  0
 46 47  3  0
  9 48  2  0
 48 49  1  0
 48  2  1  0
 45 10  1  0
 33 20  1  0
M  END
>  <score>  (341) 
7.27458

$$$$

     RDKit          3D

 59 62  0  0  0  0  0  0  0  0999 V2000
    3.5651  143.0552   45.4043 H   0  0  0  0  0  0  0  0  0  0  0  0
    3.4695  142.9137   46.4763 C   0  0  0  0  0  0  0  0  0  0  0  0
    3.3692  144.0393   47.3038 C   0  0  0  0  0  0  0  0  0  0  0  0
    3.4500  145.0330   46.8675 H   0  0  0  0  0  0  0  0  0  0  0  0
    3.2399  143.8868   48.6851 C   0  0  0  0  0  0  0  0  0  0  0  0
    3.1943  144.7646   49.3253 H   0  0  0  0  0  0  0  0  0  0  0  0
    3.1231  142.6029   49.2303 C   0  0  0  0  0  0  0  0  0  0  0  0
    2.7419  142.4450   50.6234 C   0  0  0  0  0  0  0  0  0  0  0  0
    1.6107  141.6730   50.9199 C   0  0  0  0  0  0  0  0  0  0  0  0
    1.0594  141.1901   50.1219 H   0  0  0  0  0  0  0  0  0  0  0  0
    1.1426  141.5756   52.2229 C   0  0  0  0  0  0  0  0  0  0  0  0
    0.2302  141.0171   52.4230 H   0  0  0  0  0  0  0  0  0  0  0  0
    1.8114  142.2502   53.2448 C   0  0  0  0  0  0  0  0  0  0  0  0
    1.4390  142.2143   54.2652 H   0  0  0  0  0  0  0  0  0  0  0  0
    2.9323  143.0391   52.9743 C   0  0  0  0  0  0  0  0  0  0  0  0
    3.4520  143.8535   54.0735 C   0  0  0  0  0  0  0  0  0  0  0  0
    3.6347  145.1476   53.8048 N   0  0  0  0  0  0  0  0  0  0  0  0
    3.8587  145.9637   54.8037 C   0  0  0  0  0  0  0  0  0  0  0  0
    3.9331  147.2388   54.3706 N   0  0  0  0  0  0  0  0  0  0  0  0
    3.8452  147.3589   53.3715 H   0  0  0  0  0  0  0  0  0  0  0  0
    3.7356  148.3156   55.1763 C   0  0  0  0  0  0  0  0  0  0  0  0
    3.6990  148.1707   56.3849 O   0  0  0  0  0  0  0  0  0  0  0  0
    3.5820  149.7036   54.5812 C   0  0  0  0  0  0  0  0  0  0  0  0
    4.3874  149.8799   53.8655 H   0  0  0  0  0  0  0  0  0  0  0  0
    3.6820  150.4243   55.3955 H   0  0  0  0  0  0  0  0  0  0  0  0
    2.2401  149.9024   53.9159 C   0  0  0  0  0  0  0  0  0  0  0  0
    1.3682  150.8361   54.4912 C   0  0  0  0  0  0  0  0  0  0  0  0
    1.6666  151.3896   55.3744 H   0  0  0  0  0  0  0  0  0  0  0  0
    0.1069  151.0880   53.9535 C   0  0  0  0  0  0  0  0  0  0  0  0
   -0.7113  151.9941   54.5754 O   0  0  0  0  0  0  0  0  0  0  0  0
   -1.6383  151.3767   55.4787 C   0  0  0  0  0  0  0  0  0  0  0  0
   -2.4479  150.8881   54.9292 H   0  0  0  0  0  0  0  0  0  0  0  0
   -1.1410  150.6280   56.1023 H   0  0  0  0  0  0  0  0  0  0  0  0
   -2.0798  152.1303   56.1373 H   0  0  0  0  0  0  0  0  0  0  0  0
   -0.2825  150.4187   52.7850 C   0  0  0  0  0  0  0  0  0  0  0  0
   -1.9872  150.7531   51.9837 Br  0  0  0  0  0  0  0  0  0  0  0  0
    0.5835  149.4892   52.1990 C   0  0  0  0  0  0  0  0  0  0  0  0
    0.2826  148.9756   51.2929 H   0  0  0  0  0  0  0  0  0  0  0  0
    1.8372  149.1952   52.7600 C   0  0  0  0  0  0  0  0  0  0  0  0
    2.6578  148.2372   52.2034 O   0  0  0  0  0  0  0  0  0  0  0  0
    2.0234  147.3344   51.2767 C   0  0  0  0  0  0  0  0  0  0  0  0
    2.7588  146.6558   50.8346 H   0  0  0  0  0  0  0  0  0  0  0  0
    1.5387  147.8889   50.4674 H   0  0  0  0  0  0  0  0  0  0  0  0
    1.2624  146.7311   51.7833 H   0  0  0  0  0  0  0  0  0  0  0  0
    3.9185  145.5664   56.1176 C   0  0  0  0  0  0  0  0  0  0  0  0
    4.0527  146.2532   56.9369 H   0  0  0  0  0  0  0  0  0  0  0  0
    3.7747  144.2398   56.3789 C   0  0  0  0  0  0  0  0  0  0  0  0
    3.7838  143.8746   57.6807 N   0  0  0  0  0  0  0  0  0  0  0  0
    4.1129  144.5795   58.3331 H   0  0  0  0  0  0  0  0  0  0  0  0
    3.9774  142.8994   57.8893 H   0  0  0  0  0  0  0  0  0  0  0  0
    3.5496  143.3455   55.3665 C   0  0  0  0  0  0  0  0  0  0  0  0
    3.3417  141.9577   55.6297 C   0  0  0  0  0  0  0  0  0  0  0  0
    3.1447  140.8239   55.8035 N   0  0  0  0  0  0  0  0  0  0  0  0
    3.4194  143.1063   51.6550 C   0  0  0  0  0  0  0  0  0  0  0  0
    4.2979  143.7019   51.4196 H   0  0  0  0  0  0  0  0  0  0  0  0
    3.2506  141.4788   48.4095 C   0  0  0  0  0  0  0  0  0  0  0  0
    3.1862  140.4972   48.8689 H   0  0  0  0  0  0  0  0  0  0  0  0
    3.4476  141.6278   47.0348 C   0  0  0  0  0  0  0  0  0  0  0  0
    3.5812  140.7457   46.4193 H   0  0  0  0  0  0  0  0  0  0  0  0
  1  2  1  0
  2  3  2  0
  3  4  1  0
  3  5  1  0
  5  6  1  0
  5  7  2  0
  7  8  1  0
  8  9  2  0
  9 10  1  0
  9 11  1  0
 11 12  1  0
 11 13  2  0
 13 14  1  0
 13 15  1  0
 15 16  1  0
 16 17  2  0
 17 18  1  0
 18 19  1  0
 19 20  1  0
 19 21  1  0
 21 22  2  0
 21 23  1  0
 23 24  1  0
 23 25  1  0
 23 26  1  0
 26 27  2  0
 27 28  1  0
 27 29  1  0
 29 30  1  0
 30 31  1  0
 31 32  1  0
 31 33  1  0
 31 34  1  0
 29 35  2  0
 35 36  1  0
 35 37  1  0
 37 38  1  0
 37 39  2  0
 39 40  1  0
 40 41  1  0
 41 42  1  0
 41 43  1  0
 41 44  1  0
 18 45  2  0
 45 46  1  0
 45 47  1  0
 47 48  1  0
 48 49  1  0
 48 50  1  0
 47 51  2  0
 51 52  1  0
 52 53  3  0
 15 54  2  0
 54 55  1  0
  7 56  1  0
 56 57  1  0
 56 58  2  0
 58 59  1  0
 58  2  1  0
 54  8  1  0
 51 16  1  0
 39 26  1  0
M  END
>  <score>  (342) 
7.27473

$$$$

     RDKit          3D

 59 61  0  0  0  0  0  0  0  0999 V2000
    0.2250  149.0422   51.2619 H   0  0  0  0  0  0  0  0  0  0  0  0
    0.5848  149.5188   52.1690 C   0  0  0  0  0  0  0  0  0  0  0  0
   -0.2327  150.4568   52.8176 C   0  0  0  0  0  0  0  0  0  0  0  0
   -1.9722  150.8488   52.1131 Br  0  0  0  0  0  0  0  0  0  0  0  0
    0.2108  151.0701   54.0018 C   0  0  0  0  0  0  0  0  0  0  0  0
   -0.5415  152.0030   54.6623 O   0  0  0  0  0  0  0  0  0  0  0  0
   -1.5227  151.3950   55.5038 C   0  0  0  0  0  0  0  0  0  0  0  0
   -2.2951  150.9105   54.8986 H   0  0  0  0  0  0  0  0  0  0  0  0
   -1.9951  152.1548   56.1308 H   0  0  0  0  0  0  0  0  0  0  0  0
   -1.0640  150.6471   56.1577 H   0  0  0  0  0  0  0  0  0  0  0  0
    1.4444  150.7081   54.5363 C   0  0  0  0  0  0  0  0  0  0  0  0
    1.7594  151.1456   55.4787 H   0  0  0  0  0  0  0  0  0  0  0  0
    2.2814  149.8051   53.8773 C   0  0  0  0  0  0  0  0  0  0  0  0
    3.6086  149.5264   54.5313 C   0  0  0  0  0  0  0  0  0  0  0  0
    4.4164  149.5743   53.7985 H   0  0  0  0  0  0  0  0  0  0  0  0
    3.7809  150.2938   55.2899 H   0  0  0  0  0  0  0  0  0  0  0  0
    3.6440  148.1697   55.2078 C   0  0  0  0  0  0  0  0  0  0  0  0
    3.7410  148.1096   56.4202 O   0  0  0  0  0  0  0  0  0  0  0  0
    3.6990  147.0446   54.4428 N   0  0  0  0  0  0  0  0  0  0  0  0
    3.4730  147.1076   53.4649 H   0  0  0  0  0  0  0  0  0  0  0  0
    3.7387  145.7966   54.9319 C   0  0  0  0  0  0  0  0  0  0  0  0
    3.5343  144.9127   53.9910 N   0  0  0  0  0  0  0  0  0  0  0  0
    3.4162  143.6445   54.3565 C   0  0  0  0  0  0  0  0  0  0  0  0
    3.0308  142.7710   53.3464 N   0  0  0  0  0  0  0  0  0  0  0  0
    3.6203  142.9209   51.9856 C   0  0  0  0  0  0  0  0  0  0  0  0
    4.0276  143.9277   51.8733 H   0  0  0  0  0  0  0  0  0  0  0  0
    4.4528  142.2146   51.8820 H   0  0  0  0  0  0  0  0  0  0  0  0
    2.6449  142.6786   50.8102 C   0  0  0  0  0  0  0  0  0  0  0  0
    3.2454  142.6072   49.8994 H   0  0  0  0  0  0  0  0  0  0  0  0
    2.1480  141.7115   50.9393 H   0  0  0  0  0  0  0  0  0  0  0  0
    1.6372  143.7616   50.6690 N   0  0  0  0  0  0  0  0  0  0  0  0
    1.4125  144.2880   49.3120 C   0  0  0  0  0  0  0  0  0  0  0  0
    0.7661  145.1679   49.3586 H   0  0  0  0  0  0  0  0  0  0  0  0
    0.9312  143.5427   48.6725 H   0  0  0  0  0  0  0  0  0  0  0  0
    2.3621  144.5833   48.8537 H   0  0  0  0  0  0  0  0  0  0  0  0
    0.4414  143.6745   51.5190 C   0  0  0  0  0  0  0  0  0  0  0  0
   -0.2112  144.5225   51.2856 H   0  0  0  0  0  0  0  0  0  0  0  0
   -0.1064  142.7561   51.2871 H   0  0  0  0  0  0  0  0  0  0  0  0
    0.7758  143.6935   53.0053 C   0  0  0  0  0  0  0  0  0  0  0  0
    1.3185  144.6076   53.2631 H   0  0  0  0  0  0  0  0  0  0  0  0
   -0.1805  143.7097   53.5279 H   0  0  0  0  0  0  0  0  0  0  0  0
    1.6001  142.4681   53.4215 C   0  0  0  0  0  0  0  0  0  0  0  0
    1.3591  141.6293   52.7718 H   0  0  0  0  0  0  0  0  0  0  0  0
    1.3603  142.1558   54.4384 H   0  0  0  0  0  0  0  0  0  0  0  0
    3.4725  143.2326   55.6715 C   0  0  0  0  0  0  0  0  0  0  0  0
    3.2629  141.8589   56.0059 C   0  0  0  0  0  0  0  0  0  0  0  0
    3.0741  140.7286   56.1869 N   0  0  0  0  0  0  0  0  0  0  0  0
    3.7383  144.1935   56.6029 C   0  0  0  0  0  0  0  0  0  0  0  0
    3.8662  143.8835   57.9031 N   0  0  0  0  0  0  0  0  0  0  0  0
    4.3011  144.5971   58.4823 H   0  0  0  0  0  0  0  0  0  0  0  0
    4.0458  142.9073   58.1193 H   0  0  0  0  0  0  0  0  0  0  0  0
    3.8815  145.4946   56.2520 C   0  0  0  0  0  0  0  0  0  0  0  0
    4.0811  146.2423   57.0003 H   0  0  0  0  0  0  0  0  0  0  0  0
    1.8570  149.1917   52.6757 C   0  0  0  0  0  0  0  0  0  0  0  0
    2.6801  148.2892   52.0364 O   0  0  0  0  0  0  0  0  0  0  0  0
    2.0315  147.2804   51.2391 C   0  0  0  0  0  0  0  0  0  0  0  0
    1.4952  147.7212   50.3900 H   0  0  0  0  0  0  0  0  0  0  0  0
    1.3198  146.7182   51.8538 H   0  0  0  0  0  0  0  0  0  0  0  0
    2.7749  146.5765   50.8463 H   0  0  0  0  0  0  0  0  0  0  0  0
  1  2  1  0
  2  3  2  0
  3  4  1  0
  3  5  1  0
  5  6  1  0
  6  7  1  0
  7  8  1  0
  7  9  1  0
  7 10  1  0
  5 11  2  0
 11 12  1  0
 11 13  1  0
 13 14  1  0
 14 15  1  0
 14 16  1  0
 14 17  1  0
 17 18  2  0
 17 19  1  0
 19 20  1  0
 19 21  1  0
 21 22  2  0
 22 23  1  0
 23 24  1  0
 24 25  1  0
 25 26  1  0
 25 27  1  0
 25 28  1  0
 28 29  1  0
 28 30  1  0
 28 31  1  0
 31 32  1  0
 32 33  1  0
 32 34  1  0
 32 35  1  0
 31 36  1  0
 36 37  1  0
 36 38  1  0
 36 39  1  0
 39 40  1  0
 39 41  1  0
 39 42  1  0
 42 43  1  0
 42 44  1  0
 23 45  2  0
 45 46  1  0
 46 47  3  0
 45 48  1  0
 48 49  1  0
 49 50  1  0
 49 51  1  0
 48 52  2  0
 52 53  1  0
 13 54  2  0
 54 55  1  0
 55 56  1  0
 56 57  1  0
 56 58  1  0
 56 59  1  0
 54  2  1  0
 52 21  1  0
 42 24  1  0
M  END
>  <score>  (343) 
7.27534

$$$$

     RDKit          3D

 62 65  0  0  0  0  0  0  0  0999 V2000
   -0.5448  141.1638   47.5503 H   0  0  0  0  0  0  0  0  0  0  0  0
    0.4853  141.3193   47.8621 C   0  0  0  0  0  0  0  0  0  0  0  0
    0.7163  141.7403   49.1141 N   0  0  0  0  0  0  0  0  0  0  0  0
    1.9838  141.8695   49.5073 C   0  0  0  0  0  0  0  0  0  0  0  0
    2.2083  142.2674   50.8305 N   0  0  0  0  0  0  0  0  0  0  0  0
    3.4465  141.9206   51.5761 C   0  0  0  0  0  0  0  0  0  0  0  0
    3.8913  141.0077   51.1642 H   0  0  0  0  0  0  0  0  0  0  0  0
    4.1683  142.7364   51.4611 H   0  0  0  0  0  0  0  0  0  0  0  0
    3.1811  141.7045   53.1008 C   0  0  0  0  0  0  0  0  0  0  0  0
    2.6018  140.7801   53.2114 H   0  0  0  0  0  0  0  0  0  0  0  0
    4.1312  141.5592   53.6283 H   0  0  0  0  0  0  0  0  0  0  0  0
    2.3974  142.8195   53.6891 N   0  0  0  0  0  0  0  0  0  0  0  0
    2.9091  143.6691   54.6714 C   0  0  0  0  0  0  0  0  0  0  0  0
    3.0182  144.9443   54.3320 N   0  0  0  0  0  0  0  0  0  0  0  0
    3.5198  145.7765   55.2164 C   0  0  0  0  0  0  0  0  0  0  0  0
    3.6906  146.9779   54.6340 N   0  0  0  0  0  0  0  0  0  0  0  0
    3.5099  146.9386   53.6416 H   0  0  0  0  0  0  0  0  0  0  0  0
    3.7423  148.1931   55.2567 C   0  0  0  0  0  0  0  0  0  0  0  0
    3.8458  148.2495   56.4752 O   0  0  0  0  0  0  0  0  0  0  0  0
    3.7243  149.4648   54.4025 C   0  0  0  0  0  0  0  0  0  0  0  0
    3.9978  150.3350   54.9851 H   0  0  0  0  0  0  0  0  0  0  0  0
    4.4122  149.3539   53.5631 H   0  0  0  0  0  0  0  0  0  0  0  0
    2.3806  149.7806   53.8603 C   0  0  0  0  0  0  0  0  0  0  0  0
    1.5963  150.6862   54.5752 C   0  0  0  0  0  0  0  0  0  0  0  0
    1.9920  151.1405   55.4742 H   0  0  0  0  0  0  0  0  0  0  0  0
    0.3346  151.0573   54.1317 C   0  0  0  0  0  0  0  0  0  0  0  0
   -0.3782  151.9749   54.8586 O   0  0  0  0  0  0  0  0  0  0  0  0
   -1.4253  151.4038   55.6464 C   0  0  0  0  0  0  0  0  0  0  0  0
   -2.1519  150.8752   55.0215 H   0  0  0  0  0  0  0  0  0  0  0  0
   -1.0132  150.7026   56.3729 H   0  0  0  0  0  0  0  0  0  0  0  0
   -1.9410  152.2012   56.1902 H   0  0  0  0  0  0  0  0  0  0  0  0
   -0.1446  150.5000   52.9357 C   0  0  0  0  0  0  0  0  0  0  0  0
   -1.8715  150.9850   52.2773 Br  0  0  0  0  0  0  0  0  0  0  0  0
    0.6594  149.6059   52.1963 C   0  0  0  0  0  0  0  0  0  0  0  0
    0.3069  149.2019   51.2508 H   0  0  0  0  0  0  0  0  0  0  0  0
    1.9345  149.2368   52.6510 C   0  0  0  0  0  0  0  0  0  0  0  0
    2.7749  148.4028   51.9465 O   0  0  0  0  0  0  0  0  0  0  0  0
    2.1648  147.2955   51.2803 C   0  0  0  0  0  0  0  0  0  0  0  0
    2.9493  146.5973   50.9696 H   0  0  0  0  0  0  0  0  0  0  0  0
    1.6206  147.6362   50.3952 H   0  0  0  0  0  0  0  0  0  0  0  0
    1.4770  146.7687   51.9505 H   0  0  0  0  0  0  0  0  0  0  0  0
    3.8897  145.4245   56.4863 C   0  0  0  0  0  0  0  0  0  0  0  0
    4.3050  146.1259   57.1988 H   0  0  0  0  0  0  0  0  0  0  0  0
    3.7611  144.1065   56.7971 C   0  0  0  0  0  0  0  0  0  0  0  0
    4.1528  143.7243   58.0192 N   0  0  0  0  0  0  0  0  0  0  0  0
    4.4961  144.4308   58.6656 H   0  0  0  0  0  0  0  0  0  0  0  0
    4.0596  142.7479   58.2884 H   0  0  0  0  0  0  0  0  0  0  0  0
    3.2864  143.1926   55.9027 C   0  0  0  0  0  0  0  0  0  0  0  0
    3.1581  141.8125   56.2296 C   0  0  0  0  0  0  0  0  0  0  0  0
    3.0346  140.6763   56.4367 N   0  0  0  0  0  0  0  0  0  0  0  0
    1.1711  143.1368   52.9214 C   0  0  0  0  0  0  0  0  0  0  0  0
    0.6251  143.9835   53.3533 H   0  0  0  0  0  0  0  0  0  0  0  0
    0.5401  142.2500   52.9653 H   0  0  0  0  0  0  0  0  0  0  0  0
    1.4189  143.3757   51.4195 C   0  0  0  0  0  0  0  0  0  0  0  0
    0.4471  143.4534   50.9221 H   0  0  0  0  0  0  0  0  0  0  0  0
    1.9538  144.3245   51.2909 H   0  0  0  0  0  0  0  0  0  0  0  0
    3.0499  141.6160   48.6413 C   0  0  0  0  0  0  0  0  0  0  0  0
    4.0441  141.7692   49.0234 H   0  0  0  0  0  0  0  0  0  0  0  0
    2.8308  141.2075   47.3223 C   0  0  0  0  0  0  0  0  0  0  0  0
    3.6436  141.0173   46.6167 H   0  0  0  0  0  0  0  0  0  0  0  0
    1.5020  141.0485   46.9457 C   0  0  0  0  0  0  0  0  0  0  0  0
    1.2241  140.7135   45.9524 H   0  0  0  0  0  0  0  0  0  0  0  0
  1  2  1  0
  2  3  2  0
  3  4  1  0
  4  5  1  0
  5  6  1  0
  6  7  1  0
  6  8  1  0
  6  9  1  0
  9 10  1  0
  9 11  1  0
  9 12  1  0
 12 13  1  0
 13 14  2  0
 14 15  1  0
 15 16  1  0
 16 17  1  0
 16 18  1  0
 18 19  2  0
 18 20  1  0
 20 21  1  0
 20 22  1  0
 20 23  1  0
 23 24  2  0
 24 25  1  0
 24 26  1  0
 26 27  1  0
 27 28  1  0
 28 29  1  0
 28 30  1  0
 28 31  1  0
 26 32  2  0
 32 33  1  0
 32 34  1  0
 34 35  1  0
 34 36  2  0
 36 37  1  0
 37 38  1  0
 38 39  1  0
 38 40  1  0
 38 41  1  0
 15 42  2  0
 42 43  1  0
 42 44  1  0
 44 45  1  0
 45 46  1  0
 45 47  1  0
 44 48  2  0
 48 49  1  0
 49 50  3  0
 12 51  1  0
 51 52  1  0
 51 53  1  0
 51 54  1  0
 54 55  1  0
 54 56  1  0
  4 57  2  0
 57 58  1  0
 57 59  1  0
 59 60  1  0
 59 61  2  0
 61 62  1  0
 61  2  1  0
 54  5  1  0
 48 13  1  0
 36 23  1  0
M  END
>  <score>  (344) 
7.27671

$$$$

     RDKit          3D

 51 53  0  0  0  0  0  0  0  0999 V2000
    4.4328  144.7827   49.4501 H   0  0  0  0  0  0  0  0  0  0  0  0
    3.6247  144.2578   49.9495 C   0  0  0  0  0  0  0  0  0  0  0  0
    3.5873  144.1641   51.3519 C   0  0  0  0  0  0  0  0  0  0  0  0
    4.3884  144.6362   51.9073 H   0  0  0  0  0  0  0  0  0  0  0  0
    2.5688  143.4368   52.0008 C   0  0  0  0  0  0  0  0  0  0  0  0
    2.5147  143.2091   53.4816 C   0  0  0  0  0  0  0  0  0  0  0  0
    1.7265  142.3352   53.8421 O   0  0  0  0  0  0  0  0  0  0  0  0
    3.2361  143.9833   54.5747 C   0  0  0  0  0  0  0  0  0  0  0  0
    3.6363  145.2592   54.3771 N   0  0  0  0  0  0  0  0  0  0  0  0
    4.1106  145.9582   55.3992 C   0  0  0  0  0  0  0  0  0  0  0  0
    4.5372  147.1639   55.0250 N   0  0  0  0  0  0  0  0  0  0  0  0
    4.8475  147.1171   54.0693 H   0  0  0  0  0  0  0  0  0  0  0  0
    3.6790  148.2052   55.2145 C   0  0  0  0  0  0  0  0  0  0  0  0
    2.9899  148.2870   56.2179 O   0  0  0  0  0  0  0  0  0  0  0  0
    3.6316  149.2165   54.0757 C   0  0  0  0  0  0  0  0  0  0  0  0
    4.2205  150.0839   54.3657 H   0  0  0  0  0  0  0  0  0  0  0  0
    4.0975  148.7497   53.2048 H   0  0  0  0  0  0  0  0  0  0  0  0
    2.2608  149.6812   53.6628 C   0  0  0  0  0  0  0  0  0  0  0  0
    1.5350  150.5013   54.5313 C   0  0  0  0  0  0  0  0  0  0  0  0
    1.9432  150.7600   55.5022 H   0  0  0  0  0  0  0  0  0  0  0  0
    0.2915  151.0229   54.1594 C   0  0  0  0  0  0  0  0  0  0  0  0
   -0.3336  151.8983   55.0080 O   0  0  0  0  0  0  0  0  0  0  0  0
   -1.5529  151.4245   55.5917 C   0  0  0  0  0  0  0  0  0  0  0  0
   -1.3539  150.6068   56.2857 H   0  0  0  0  0  0  0  0  0  0  0  0
   -2.0159  152.2440   56.1503 H   0  0  0  0  0  0  0  0  0  0  0  0
   -2.2615  151.0683   54.8380 H   0  0  0  0  0  0  0  0  0  0  0  0
   -0.2281  150.7221   52.8866 C   0  0  0  0  0  0  0  0  0  0  0  0
   -1.8584  151.5176   52.2651 Br  0  0  0  0  0  0  0  0  0  0  0  0
    0.4915  149.8845   52.0219 C   0  0  0  0  0  0  0  0  0  0  0  0
    0.1042  149.6684   51.0317 H   0  0  0  0  0  0  0  0  0  0  0  0
    1.7372  149.3644   52.3953 C   0  0  0  0  0  0  0  0  0  0  0  0
    2.4810  148.6060   51.5240 O   0  0  0  0  0  0  0  0  0  0  0  0
    1.8154  147.4356   51.0286 C   0  0  0  0  0  0  0  0  0  0  0  0
    1.1950  146.9645   51.8014 H   0  0  0  0  0  0  0  0  0  0  0  0
    2.5619  146.7051   50.6988 H   0  0  0  0  0  0  0  0  0  0  0  0
    1.1825  147.6903   50.1742 H   0  0  0  0  0  0  0  0  0  0  0  0
    4.2548  145.4898   56.6648 C   0  0  0  0  0  0  0  0  0  0  0  0
    4.6519  146.0859   57.4691 H   0  0  0  0  0  0  0  0  0  0  0  0
    3.9089  144.2041   56.8740 C   0  0  0  0  0  0  0  0  0  0  0  0
    4.0514  143.7391   58.1350 N   0  0  0  0  0  0  0  0  0  0  0  0
    4.0610  142.7328   58.2597 H   0  0  0  0  0  0  0  0  0  0  0  0
    4.5403  144.3300   58.8018 H   0  0  0  0  0  0  0  0  0  0  0  0
    3.4113  143.4212   55.8581 C   0  0  0  0  0  0  0  0  0  0  0  0
    3.1010  142.0547   56.1286 C   0  0  0  0  0  0  0  0  0  0  0  0
    2.9161  140.9251   56.3238 N   0  0  0  0  0  0  0  0  0  0  0  0
    1.5800  142.8415   51.1815 C   0  0  0  0  0  0  0  0  0  0  0  0
    0.7762  142.2624   51.6308 H   0  0  0  0  0  0  0  0  0  0  0  0
    1.6244  142.9380   49.7875 C   0  0  0  0  0  0  0  0  0  0  0  0
    0.8807  142.4404   49.1741 H   0  0  0  0  0  0  0  0  0  0  0  0
    2.6502  143.6411   49.1633 C   0  0  0  0  0  0  0  0  0  0  0  0
    2.7137  143.7247   47.4182 Cl  0  0  0  0  0  0  0  0  0  0  0  0
  1  2  1  0
  2  3  2  0
  3  4  1  0
  3  5  1  0
  5  6  1  0
  6  7  2  0
  6  8  1  0
  8  9  2  0
  9 10  1  0
 10 11  1  0
 11 12  1  0
 11 13  1  0
 13 14  2  0
 13 15  1  0
 15 16  1  0
 15 17  1  0
 15 18  1  0
 18 19  2  0
 19 20  1  0
 19 21  1  0
 21 22  1  0
 22 23  1  0
 23 24  1  0
 23 25  1  0
 23 26  1  0
 21 27  2  0
 27 28  1  0
 27 29  1  0
 29 30  1  0
 29 31  2  0
 31 32  1  0
 32 33  1  0
 33 34  1  0
 33 35  1  0
 33 36  1  0
 10 37  2  0
 37 38  1  0
 37 39  1  0
 39 40  1  0
 40 41  1  0
 40 42  1  0
 39 43  2  0
 43 44  1  0
 44 45  3  0
  5 46  2  0
 46 47  1  0
 46 48  1  0
 48 49  1  0
 48 50  2  0
 50 51  1  0
 50  2  1  0
 43  8  1  0
 31 18  1  0
M  END
>  <score>  (345) 
7.27673

$$$$

     RDKit          3D

 51 53  0  0  0  0  0  0  0  0999 V2000
    3.9112  141.4518   53.8047 H   0  0  0  0  0  0  0  0  0  0  0  0
    3.0620  141.8077   53.2244 C   0  0  0  0  0  0  0  0  0  0  0  0
    2.7595  141.2204   52.0604 N   0  0  0  0  0  0  0  0  0  0  0  0
    1.6917  141.6884   51.3948 C   0  0  0  0  0  0  0  0  0  0  0  0
    1.2694  141.1596   50.1019 C   0  0  0  0  0  0  0  0  0  0  0  0
    1.0066  142.0091   49.4740 H   0  0  0  0  0  0  0  0  0  0  0  0
    2.0037  140.5289   49.6022 H   0  0  0  0  0  0  0  0  0  0  0  0
    0.3649  140.6239   50.3201 H   0  0  0  0  0  0  0  0  0  0  0  0
    0.8390  142.6518   51.9077 C   0  0  0  0  0  0  0  0  0  0  0  0
   -0.0678  142.9064   51.3730 H   0  0  0  0  0  0  0  0  0  0  0  0
    1.1649  143.3026   53.0623 C   0  0  0  0  0  0  0  0  0  0  0  0
    0.5554  144.1267   53.4324 H   0  0  0  0  0  0  0  0  0  0  0  0
    2.3391  142.8964   53.6882 C   0  0  0  0  0  0  0  0  0  0  0  0
    2.9027  143.6948   54.7089 C   0  0  0  0  0  0  0  0  0  0  0  0
    3.0538  144.9549   54.3443 N   0  0  0  0  0  0  0  0  0  0  0  0
    3.5657  145.7834   55.2060 C   0  0  0  0  0  0  0  0  0  0  0  0
    3.6997  146.9713   54.5933 N   0  0  0  0  0  0  0  0  0  0  0  0
    3.4372  146.9688   53.6210 H   0  0  0  0  0  0  0  0  0  0  0  0
    3.7309  148.1649   55.2345 C   0  0  0  0  0  0  0  0  0  0  0  0
    3.8226  148.2007   56.4463 O   0  0  0  0  0  0  0  0  0  0  0  0
    3.7005  149.4493   54.4225 C   0  0  0  0  0  0  0  0  0  0  0  0
    3.9483  150.2590   55.0943 H   0  0  0  0  0  0  0  0  0  0  0  0
    4.4365  149.4048   53.6151 H   0  0  0  0  0  0  0  0  0  0  0  0
    2.3515  149.7730   53.8636 C   0  0  0  0  0  0  0  0  0  0  0  0
    1.5606  150.6766   54.5710 C   0  0  0  0  0  0  0  0  0  0  0  0
    1.9282  151.1227   55.4896 H   0  0  0  0  0  0  0  0  0  0  0  0
    0.3068  151.0458   54.0995 C   0  0  0  0  0  0  0  0  0  0  0  0
   -0.3974  151.9810   54.8047 O   0  0  0  0  0  0  0  0  0  0  0  0
   -1.4300  151.4056   55.6051 C   0  0  0  0  0  0  0  0  0  0  0  0
   -1.0099  150.6908   56.3140 H   0  0  0  0  0  0  0  0  0  0  0  0
   -2.1600  150.8869   54.9786 H   0  0  0  0  0  0  0  0  0  0  0  0
   -1.9427  152.1887   56.1705 H   0  0  0  0  0  0  0  0  0  0  0  0
   -0.1802  150.4811   52.9090 C   0  0  0  0  0  0  0  0  0  0  0  0
   -1.9129  150.9658   52.2509 Br  0  0  0  0  0  0  0  0  0  0  0  0
    0.6240  149.5816   52.1883 C   0  0  0  0  0  0  0  0  0  0  0  0
    0.2766  149.1742   51.2464 H   0  0  0  0  0  0  0  0  0  0  0  0
    1.9002  149.2282   52.6553 C   0  0  0  0  0  0  0  0  0  0  0  0
    2.7517  148.3983   51.9677 O   0  0  0  0  0  0  0  0  0  0  0  0
    2.1401  147.3082   51.2746 C   0  0  0  0  0  0  0  0  0  0  0  0
    1.4491  146.7774   51.9358 H   0  0  0  0  0  0  0  0  0  0  0  0
    2.9107  146.6030   50.9471 H   0  0  0  0  0  0  0  0  0  0  0  0
    1.5953  147.6607   50.3948 H   0  0  0  0  0  0  0  0  0  0  0  0
    3.9161  145.4405   56.4847 C   0  0  0  0  0  0  0  0  0  0  0  0
    4.3071  146.1585   57.1859 H   0  0  0  0  0  0  0  0  0  0  0  0
    3.7822  144.1243   56.8249 C   0  0  0  0  0  0  0  0  0  0  0  0
    4.1694  143.7502   58.0571 N   0  0  0  0  0  0  0  0  0  0  0  0
    4.4912  144.4595   58.7107 H   0  0  0  0  0  0  0  0  0  0  0  0
    4.0910  142.7746   58.3306 H   0  0  0  0  0  0  0  0  0  0  0  0
    3.2901  143.2062   55.9346 C   0  0  0  0  0  0  0  0  0  0  0  0
    3.1704  141.8203   56.2394 C   0  0  0  0  0  0  0  0  0  0  0  0
    3.0819  140.6773   56.4388 N   0  0  0  0  0  0  0  0  0  0  0  0
  1  2  1  0
  2  3  2  0
  3  4  1  0
  4  5  1  0
  5  6  1  0
  5  7  1  0
  5  8  1  0
  4  9  2  0
  9 10  1  0
  9 11  1  0
 11 12  1  0
 11 13  2  0
 13 14  1  0
 14 15  2  0
 15 16  1  0
 16 17  1  0
 17 18  1  0
 17 19  1  0
 19 20  2  0
 19 21  1  0
 21 22  1  0
 21 23  1  0
 21 24  1  0
 24 25  2  0
 25 26  1  0
 25 27  1  0
 27 28  1  0
 28 29  1  0
 29 30  1  0
 29 31  1  0
 29 32  1  0
 27 33  2  0
 33 34  1  0
 33 35  1  0
 35 36  1  0
 35 37  2  0
 37 38  1  0
 38 39  1  0
 39 40  1  0
 39 41  1  0
 39 42  1  0
 16 43  2  0
 43 44  1  0
 43 45  1  0
 45 46  1  0
 46 47  1  0
 46 48  1  0
 45 49  2  0
 49 50  1  0
 50 51  3  0
 13  2  1  0
 49 14  1  0
 37 24  1  0
M  END
>  <score>  (346) 
7.27695

$$$$

     RDKit          3D

 52 54  0  0  0  0  0  0  0  0999 V2000
    0.2854  149.1726   51.2388 H   0  0  0  0  0  0  0  0  0  0  0  0
    0.6217  149.5795   52.1863 C   0  0  0  0  0  0  0  0  0  0  0  0
   -0.1828  150.4755   52.9128 C   0  0  0  0  0  0  0  0  0  0  0  0
   -1.9139  150.9741   52.2604 Br  0  0  0  0  0  0  0  0  0  0  0  0
    0.3080  151.0430   54.1012 C   0  0  0  0  0  0  0  0  0  0  0  0
   -0.3921  151.9770   54.8073 O   0  0  0  0  0  0  0  0  0  0  0  0
   -1.4252  151.4036   55.6067 C   0  0  0  0  0  0  0  0  0  0  0  0
   -2.1529  150.8854   54.9771 H   0  0  0  0  0  0  0  0  0  0  0  0
   -1.0069  150.6893   56.3180 H   0  0  0  0  0  0  0  0  0  0  0  0
   -1.9347  152.1935   56.1655 H   0  0  0  0  0  0  0  0  0  0  0  0
    1.5602  150.6754   54.5742 C   0  0  0  0  0  0  0  0  0  0  0  0
    1.9345  151.1306   55.4848 H   0  0  0  0  0  0  0  0  0  0  0  0
    2.3448  149.7697   53.8682 C   0  0  0  0  0  0  0  0  0  0  0  0
    3.6978  149.4626   54.4186 C   0  0  0  0  0  0  0  0  0  0  0  0
    4.4229  149.4149   53.6009 H   0  0  0  0  0  0  0  0  0  0  0  0
    3.9460  150.2812   55.0801 H   0  0  0  0  0  0  0  0  0  0  0  0
    3.7378  148.1813   55.2346 C   0  0  0  0  0  0  0  0  0  0  0  0
    3.8161  148.2213   56.4492 O   0  0  0  0  0  0  0  0  0  0  0  0
    3.7207  146.9876   54.5964 N   0  0  0  0  0  0  0  0  0  0  0  0
    3.4317  146.9539   53.6324 H   0  0  0  0  0  0  0  0  0  0  0  0
    3.5672  145.8129   55.2113 C   0  0  0  0  0  0  0  0  0  0  0  0
    3.0880  144.9972   54.3074 N   0  0  0  0  0  0  0  0  0  0  0  0
    2.9606  143.7206   54.6359 C   0  0  0  0  0  0  0  0  0  0  0  0
    2.4472  142.7995   53.5821 C   0  0  0  0  0  0  0  0  0  0  0  0
    1.6769  143.3245   53.0139 H   0  0  0  0  0  0  0  0  0  0  0  0
    1.9919  141.9422   54.0664 H   0  0  0  0  0  0  0  0  0  0  0  0
    3.4993  142.3962   52.6654 N   0  0  0  0  0  0  0  0  0  0  0  0
    3.7116  143.0897   51.5280 N   0  0  0  0  0  0  0  0  0  0  0  0
    4.5533  142.3267   50.8845 C   0  0  0  0  0  0  0  0  0  0  0  0
    5.0149  142.6534   49.6435 O   0  0  0  0  0  0  0  0  0  0  0  0
    6.1241  141.8496   49.2397 C   0  0  0  0  0  0  0  0  0  0  0  0
    5.7766  141.0558   48.5726 H   0  0  0  0  0  0  0  0  0  0  0  0
    6.8795  142.4424   48.7237 H   0  0  0  0  0  0  0  0  0  0  0  0
    6.5942  141.4079   50.1161 H   0  0  0  0  0  0  0  0  0  0  0  0
    4.9503  141.1998   51.5400 O   0  0  0  0  0  0  0  0  0  0  0  0
    4.2195  141.2087   52.6366 C   0  0  0  0  0  0  0  0  0  0  0  0
    4.1422  140.3038   53.4561 O   0  0  0  0  0  0  0  0  0  0  0  0
    3.2818  143.2470   55.8967 C   0  0  0  0  0  0  0  0  0  0  0  0
    3.1607  141.8634   56.2171 C   0  0  0  0  0  0  0  0  0  0  0  0
    3.0659  140.7266   56.4412 N   0  0  0  0  0  0  0  0  0  0  0  0
    3.7460  144.1549   56.8101 C   0  0  0  0  0  0  0  0  0  0  0  0
    4.1201  143.7686   58.0421 N   0  0  0  0  0  0  0  0  0  0  0  0
    4.0791  142.7816   58.2823 H   0  0  0  0  0  0  0  0  0  0  0  0
    4.4905  144.4674   58.6797 H   0  0  0  0  0  0  0  0  0  0  0  0
    3.8982  145.4675   56.4957 C   0  0  0  0  0  0  0  0  0  0  0  0
    4.2981  146.1616   57.2201 H   0  0  0  0  0  0  0  0  0  0  0  0
    1.8986  149.2262   52.6569 C   0  0  0  0  0  0  0  0  0  0  0  0
    2.7541  148.4035   51.9651 O   0  0  0  0  0  0  0  0  0  0  0  0
    2.1449  147.3100   51.2776 C   0  0  0  0  0  0  0  0  0  0  0  0
    1.4538  146.7849   51.9422 H   0  0  0  0  0  0  0  0  0  0  0  0
    1.6006  147.6589   50.3966 H   0  0  0  0  0  0  0  0  0  0  0  0
    2.9170  146.6053   50.9562 H   0  0  0  0  0  0  0  0  0  0  0  0
  1  2  1  0
  2  3  2  0
  3  4  1  0
  3  5  1  0
  5  6  1  0
  6  7  1  0
  7  8  1  0
  7  9  1  0
  7 10  1  0
  5 11  2  0
 11 12  1  0
 11 13  1  0
 13 14  1  0
 14 15  1  0
 14 16  1  0
 14 17  1  0
 17 18  2  0
 17 19  1  0
 19 20  1  0
 19 21  1  0
 21 22  2  0
 22 23  1  0
 23 24  1  0
 24 25  1  0
 24 26  1  0
 24 27  1  0
 27 28  1  0
 28 29  2  0
 29 30  1  0
 30 31  1  0
 31 32  1  0
 31 33  1  0
 31 34  1  0
 29 35  1  0
 35 36  1  0
 36 37  2  0
 23 38  2  0
 38 39  1  0
 39 40  3  0
 38 41  1  0
 41 42  1  0
 42 43  1  0
 42 44  1  0
 41 45  2  0
 45 46  1  0
 13 47  2  0
 47 48  1  0
 48 49  1  0
 49 50  1  0
 49 51  1  0
 49 52  1  0
 47  2  1  0
 45 21  1  0
 36 27  1  0
M  END
>  <score>  (347) 
7.27767

$$$$

     RDKit          3D

 54 56  0  0  0  0  0  0  0  0999 V2000
    0.9602  141.6980   47.6080 H   0  0  0  0  0  0  0  0  0  0  0  0
    1.3768  142.0899   48.5323 C   0  0  0  0  0  0  0  0  0  0  0  0
    1.9815  143.3499   48.5862 C   0  0  0  0  0  0  0  0  0  0  0  0
    2.0793  143.9514   47.6837 H   0  0  0  0  0  0  0  0  0  0  0  0
    2.4504  143.8357   49.8251 C   0  0  0  0  0  0  0  0  0  0  0  0
    2.8380  144.8463   49.9222 H   0  0  0  0  0  0  0  0  0  0  0  0
    2.3925  143.0259   50.9679 C   0  0  0  0  0  0  0  0  0  0  0  0
    2.9385  143.4175   52.1727 N   0  0  0  0  0  0  0  0  0  0  0  0
    3.5654  144.2218   52.1477 H   0  0  0  0  0  0  0  0  0  0  0  0
    2.4717  142.9069   53.5013 C   0  0  0  0  0  0  0  0  0  0  0  0
    2.8374  141.8906   53.6540 H   0  0  0  0  0  0  0  0  0  0  0  0
    1.3809  142.8573   53.5226 H   0  0  0  0  0  0  0  0  0  0  0  0
    2.9246  143.7882   54.6603 C   0  0  0  0  0  0  0  0  0  0  0  0
    3.0237  145.0881   54.3914 N   0  0  0  0  0  0  0  0  0  0  0  0
    3.5319  145.9030   55.2696 C   0  0  0  0  0  0  0  0  0  0  0  0
    3.6578  147.0987   54.6772 N   0  0  0  0  0  0  0  0  0  0  0  0
    3.4093  147.0970   53.7021 H   0  0  0  0  0  0  0  0  0  0  0  0
    3.6749  148.2792   55.3405 C   0  0  0  0  0  0  0  0  0  0  0  0
    3.7739  148.2969   56.5518 O   0  0  0  0  0  0  0  0  0  0  0  0
    3.6257  149.5637   54.5336 C   0  0  0  0  0  0  0  0  0  0  0  0
    4.4107  149.5431   53.7785 H   0  0  0  0  0  0  0  0  0  0  0  0
    3.8153  150.3918   55.2089 H   0  0  0  0  0  0  0  0  0  0  0  0
    2.2938  149.8148   53.8942 C   0  0  0  0  0  0  0  0  0  0  0  0
    1.4673  150.7304   54.5468 C   0  0  0  0  0  0  0  0  0  0  0  0
    1.7993  151.1971   55.4703 H   0  0  0  0  0  0  0  0  0  0  0  0
    0.2234  151.0634   54.0278 C   0  0  0  0  0  0  0  0  0  0  0  0
   -0.5307  151.9871   54.6939 O   0  0  0  0  0  0  0  0  0  0  0  0
   -1.5225  151.3917   55.5327 C   0  0  0  0  0  0  0  0  0  0  0  0
   -2.2892  150.8995   54.9284 H   0  0  0  0  0  0  0  0  0  0  0  0
   -1.9983  152.1615   56.1474 H   0  0  0  0  0  0  0  0  0  0  0  0
   -1.0716  150.6511   56.1970 H   0  0  0  0  0  0  0  0  0  0  0  0
   -0.2135  150.4519   52.8431 C   0  0  0  0  0  0  0  0  0  0  0  0
   -1.9418  150.8599   52.1274 Br  0  0  0  0  0  0  0  0  0  0  0  0
    0.6140  149.5257   52.1903 C   0  0  0  0  0  0  0  0  0  0  0  0
    0.2814  149.0574   51.2724 H   0  0  0  0  0  0  0  0  0  0  0  0
    1.8791  149.1902   52.6999 C   0  0  0  0  0  0  0  0  0  0  0  0
    2.7099  148.2935   52.0623 O   0  0  0  0  0  0  0  0  0  0  0  0
    2.0597  147.3009   51.2506 C   0  0  0  0  0  0  0  0  0  0  0  0
    2.7985  146.5994   50.8531 H   0  0  0  0  0  0  0  0  0  0  0  0
    1.5337  147.7562   50.4055 H   0  0  0  0  0  0  0  0  0  0  0  0
    1.3395  146.7367   51.8513 H   0  0  0  0  0  0  0  0  0  0  0  0
    3.9294  145.5288   56.5136 C   0  0  0  0  0  0  0  0  0  0  0  0
    4.3738  146.2326   57.1989 H   0  0  0  0  0  0  0  0  0  0  0  0
    3.7846  144.2103   56.8275 C   0  0  0  0  0  0  0  0  0  0  0  0
    4.2061  143.8520   58.0575 N   0  0  0  0  0  0  0  0  0  0  0  0
    4.0494  142.9031   58.3797 H   0  0  0  0  0  0  0  0  0  0  0  0
    4.4209  144.5985   58.7179 H   0  0  0  0  0  0  0  0  0  0  0  0
    3.2847  143.3006   55.9153 C   0  0  0  0  0  0  0  0  0  0  0  0
    3.1876  141.9108   56.2316 C   0  0  0  0  0  0  0  0  0  0  0  0
    3.0948  140.7738   56.4456 N   0  0  0  0  0  0  0  0  0  0  0  0
    1.7432  141.8115   50.9165 C   0  0  0  0  0  0  0  0  0  0  0  0
    1.6297  141.2669   51.8465 H   0  0  0  0  0  0  0  0  0  0  0  0
    1.2241  141.3675   49.7079 C   0  0  0  0  0  0  0  0  0  0  0  0
    0.6667  140.4755   49.6493 H   0  0  0  0  0  0  0  0  0  0  0  0
  1  2  1  0
  2  3  2  0
  3  4  1  0
  3  5  1  0
  5  6  1  0
  5  7  2  0
  7  8  1  0
  8  9  1  0
  8 10  1  0
 10 11  1  0
 10 12  1  0
 10 13  1  0
 13 14  2  0
 14 15  1  0
 15 16  1  0
 16 17  1  0
 16 18  1  0
 18 19  2  0
 18 20  1  0
 20 21  1  0
 20 22  1  0
 20 23  1  0
 23 24  2  0
 24 25  1  0
 24 26  1  0
 26 27  1  0
 27 28  1  0
 28 29  1  0
 28 30  1  0
 28 31  1  0
 26 32  2  0
 32 33  1  0
 32 34  1  0
 34 35  1  0
 34 36  2  0
 36 37  1  0
 37 38  1  0
 38 39  1  0
 38 40  1  0
 38 41  1  0
 15 42  2  0
 42 43  1  0
 42 44  1  0
 44 45  1  0
 45 46  1  0
 45 47  1  0
 44 48  2  0
 48 49  1  0
 49 50  3  0
  7 51  1  0
 51 52  1  0
 51 53  2  0
 53 54  1  0
 53  2  1  0
 48 13  1  0
 36 23  1  0
M  END
>  <score>  (348) 
7.27855

$$$$

     RDKit          3D

 52 54  0  0  0  0  0  0  0  0999 V2000
    4.1930  143.9780   51.7829 H   0  0  0  0  0  0  0  0  0  0  0  0
    3.3625  143.2952   51.9445 C   0  0  0  0  0  0  0  0  0  0  0  0
    2.7935  142.7271   50.8693 N   0  0  0  0  0  0  0  0  0  0  0  0
    1.6809  142.0013   51.0420 C   0  0  0  0  0  0  0  0  0  0  0  0
    0.9413  141.4834   50.0104 O   0  0  0  0  0  0  0  0  0  0  0  0
    1.5485  141.3230   48.7226 C   0  0  0  0  0  0  0  0  0  0  0  0
    2.1338  142.1962   48.4285 H   0  0  0  0  0  0  0  0  0  0  0  0
    0.7692  141.1788   47.9680 H   0  0  0  0  0  0  0  0  0  0  0  0
    2.1824  140.4359   48.7015 H   0  0  0  0  0  0  0  0  0  0  0  0
    1.1370  141.7850   52.2977 C   0  0  0  0  0  0  0  0  0  0  0  0
    0.2137  141.2206   52.3418 H   0  0  0  0  0  0  0  0  0  0  0  0
    1.7579  142.2952   53.4213 C   0  0  0  0  0  0  0  0  0  0  0  0
    1.3428  142.1351   54.4119 H   0  0  0  0  0  0  0  0  0  0  0  0
    2.8872  143.0588   53.2363 C   0  0  0  0  0  0  0  0  0  0  0  0
    3.4131  143.7730   54.3517 C   0  0  0  0  0  0  0  0  0  0  0  0
    3.6190  145.0375   54.0536 N   0  0  0  0  0  0  0  0  0  0  0  0
    3.8443  145.8582   55.0342 C   0  0  0  0  0  0  0  0  0  0  0  0
    3.8008  147.0932   54.5247 N   0  0  0  0  0  0  0  0  0  0  0  0
    3.5689  147.1246   53.5414 H   0  0  0  0  0  0  0  0  0  0  0  0
    3.7135  148.2323   55.2464 C   0  0  0  0  0  0  0  0  0  0  0  0
    3.8051  148.2090   56.4637 O   0  0  0  0  0  0  0  0  0  0  0  0
    3.6641  149.5471   54.4953 C   0  0  0  0  0  0  0  0  0  0  0  0
    4.4401  149.5403   53.7267 H   0  0  0  0  0  0  0  0  0  0  0  0
    3.8675  150.3534   55.1959 H   0  0  0  0  0  0  0  0  0  0  0  0
    2.3225  149.8154   53.8736 C   0  0  0  0  0  0  0  0  0  0  0  0
    1.4980  150.7092   54.5551 C   0  0  0  0  0  0  0  0  0  0  0  0
    1.8333  151.1425   55.4917 H   0  0  0  0  0  0  0  0  0  0  0  0
    0.2544  151.0698   54.0500 C   0  0  0  0  0  0  0  0  0  0  0  0
   -0.4794  151.9985   54.7351 O   0  0  0  0  0  0  0  0  0  0  0  0
   -1.4810  151.4026   55.5591 C   0  0  0  0  0  0  0  0  0  0  0  0
   -2.2297  150.8987   54.9427 H   0  0  0  0  0  0  0  0  0  0  0  0
   -1.0320  150.6719   56.2351 H   0  0  0  0  0  0  0  0  0  0  0  0
   -1.9788  152.1702   56.1587 H   0  0  0  0  0  0  0  0  0  0  0  0
   -0.2068  150.4750   52.8645 C   0  0  0  0  0  0  0  0  0  0  0  0
   -1.9447  150.8987   52.1783 Br  0  0  0  0  0  0  0  0  0  0  0  0
    0.6084  149.5578   52.1826 C   0  0  0  0  0  0  0  0  0  0  0  0
    0.2437  149.1086   51.2647 H   0  0  0  0  0  0  0  0  0  0  0  0
    1.8882  149.2254   52.6678 C   0  0  0  0  0  0  0  0  0  0  0  0
    2.7252  148.3539   52.0068 O   0  0  0  0  0  0  0  0  0  0  0  0
    2.0925  147.3061   51.2566 C   0  0  0  0  0  0  0  0  0  0  0  0
    1.3880  146.7562   51.8874 H   0  0  0  0  0  0  0  0  0  0  0  0
    2.8488  146.6011   50.8976 H   0  0  0  0  0  0  0  0  0  0  0  0
    1.5542  147.7043   50.3915 H   0  0  0  0  0  0  0  0  0  0  0  0
    3.9498  145.5043   56.3508 C   0  0  0  0  0  0  0  0  0  0  0  0
    4.1324  146.2442   57.1126 H   0  0  0  0  0  0  0  0  0  0  0  0
    3.7781  144.1835   56.6450 C   0  0  0  0  0  0  0  0  0  0  0  0
    3.8841  143.8116   57.9386 N   0  0  0  0  0  0  0  0  0  0  0  0
    4.3709  144.4758   58.5379 H   0  0  0  0  0  0  0  0  0  0  0  0
    4.0574  142.8232   58.0955 H   0  0  0  0  0  0  0  0  0  0  0  0
    3.4851  143.2793   55.6510 C   0  0  0  0  0  0  0  0  0  0  0  0
    3.2338  141.9076   55.9485 C   0  0  0  0  0  0  0  0  0  0  0  0
    3.0200  140.7871   56.1700 N   0  0  0  0  0  0  0  0  0  0  0  0
  1  2  1  0
  2  3  2  0
  3  4  1  0
  4  5  1  0
  5  6  1  0
  6  7  1  0
  6  8  1  0
  6  9  1  0
  4 10  2  0
 10 11  1  0
 10 12  1  0
 12 13  1  0
 12 14  2  0
 14 15  1  0
 15 16  2  0
 16 17  1  0
 17 18  1  0
 18 19  1  0
 18 20  1  0
 20 21  2  0
 20 22  1  0
 22 23  1  0
 22 24  1  0
 22 25  1  0
 25 26  2  0
 26 27  1  0
 26 28  1  0
 28 29  1  0
 29 30  1  0
 30 31  1  0
 30 32  1  0
 30 33  1  0
 28 34  2  0
 34 35  1  0
 34 36  1  0
 36 37  1  0
 36 38  2  0
 38 39  1  0
 39 40  1  0
 40 41  1  0
 40 42  1  0
 40 43  1  0
 17 44  2  0
 44 45  1  0
 44 46  1  0
 46 47  1  0
 47 48  1  0
 47 49  1  0
 46 50  2  0
 50 51  1  0
 51 52  3  0
 14  2  1  0
 50 15  1  0
 38 25  1  0
M  END
>  <score>  (349) 
7.27867

$$$$

     RDKit          3D

 44 45  0  0  0  0  0  0  0  0999 V2000
    0.2480  149.1371   51.2653 H   0  0  0  0  0  0  0  0  0  0  0  0
    0.6069  149.5675   52.1933 C   0  0  0  0  0  0  0  0  0  0  0  0
   -0.2068  150.4773   52.8905 C   0  0  0  0  0  0  0  0  0  0  0  0
   -1.9404  150.9294   52.2118 Br  0  0  0  0  0  0  0  0  0  0  0  0
    0.2656  151.0618   54.0740 C   0  0  0  0  0  0  0  0  0  0  0  0
   -0.4492  152.0010   54.7632 O   0  0  0  0  0  0  0  0  0  0  0  0
   -1.4567  151.4047   55.5740 C   0  0  0  0  0  0  0  0  0  0  0  0
   -2.1952  150.8920   54.9504 H   0  0  0  0  0  0  0  0  0  0  0  0
   -1.9568  152.1784   56.1591 H   0  0  0  0  0  0  0  0  0  0  0  0
   -1.0107  150.6846   56.2630 H   0  0  0  0  0  0  0  0  0  0  0  0
    1.5133  150.6910   54.5544 C   0  0  0  0  0  0  0  0  0  0  0  0
    1.8525  151.1333   55.4825 H   0  0  0  0  0  0  0  0  0  0  0  0
    2.3394  149.8094   53.8557 C   0  0  0  0  0  0  0  0  0  0  0  0
    3.6962  149.5483   54.4414 C   0  0  0  0  0  0  0  0  0  0  0  0
    3.8810  150.3740   55.1202 H   0  0  0  0  0  0  0  0  0  0  0  0
    4.4574  149.5215   53.6493 H   0  0  0  0  0  0  0  0  0  0  0  0
    3.7573  148.2697   55.2553 C   0  0  0  0  0  0  0  0  0  0  0  0
    3.8141  148.2779   56.4749 O   0  0  0  0  0  0  0  0  0  0  0  0
    3.7952  147.0990   54.5799 N   0  0  0  0  0  0  0  0  0  0  0  0
    3.5097  147.1295   53.6118 H   0  0  0  0  0  0  0  0  0  0  0  0
    3.6667  145.8897   55.1494 C   0  0  0  0  0  0  0  0  0  0  0  0
    3.2367  145.0189   54.2492 N   0  0  0  0  0  0  0  0  0  0  0  0
    3.0890  143.7304   54.5831 C   0  0  0  0  0  0  0  0  0  0  0  0
    2.6934  142.7958   53.4969 C   0  0  0  0  0  0  0  0  0  0  0  0
    2.7027  141.5681   53.6650 O   0  0  0  0  0  0  0  0  0  0  0  0
    2.4890  143.4259   52.1155 C   0  0  0  0  0  0  0  0  0  0  0  0
    1.4579  144.3146   52.1363 F   0  0  0  0  0  0  0  0  0  0  0  0
    2.2033  142.5237   51.1398 F   0  0  0  0  0  0  0  0  0  0  0  0
    3.6397  144.0626   51.7731 F   0  0  0  0  0  0  0  0  0  0  0  0
    3.3482  143.3249   55.8987 C   0  0  0  0  0  0  0  0  0  0  0  0
    3.1992  141.9569   56.2661 C   0  0  0  0  0  0  0  0  0  0  0  0
    3.1114  140.8193   56.4905 N   0  0  0  0  0  0  0  0  0  0  0  0
    3.7777  144.2630   56.8261 C   0  0  0  0  0  0  0  0  0  0  0  0
    4.0380  143.8922   58.1156 N   0  0  0  0  0  0  0  0  0  0  0  0
    4.1358  142.8975   58.3211 H   0  0  0  0  0  0  0  0  0  0  0  0
    4.5159  144.5531   58.7216 H   0  0  0  0  0  0  0  0  0  0  0  0
    3.9542  145.5714   56.4538 C   0  0  0  0  0  0  0  0  0  0  0  0
    4.3125  146.3161   57.1531 H   0  0  0  0  0  0  0  0  0  0  0  0
    1.8919  149.2302   52.6574 C   0  0  0  0  0  0  0  0  0  0  0  0
    2.7340  148.3766   51.9863 O   0  0  0  0  0  0  0  0  0  0  0  0
    2.1102  147.3079   51.2694 C   0  0  0  0  0  0  0  0  0  0  0  0
    1.5875  147.6901   50.3874 H   0  0  0  0  0  0  0  0  0  0  0  0
    2.8812  146.6019   50.9444 H   0  0  0  0  0  0  0  0  0  0  0  0
    1.4001  146.7770   51.9134 H   0  0  0  0  0  0  0  0  0  0  0  0
  1  2  1  0
  2  3  2  0
  3  4  1  0
  3  5  1  0
  5  6  1  0
  6  7  1  0
  7  8  1  0
  7  9  1  0
  7 10  1  0
  5 11  2  0
 11 12  1  0
 11 13  1  0
 13 14  1  0
 14 15  1  0
 14 16  1  0
 14 17  1  0
 17 18  2  0
 17 19  1  0
 19 20  1  0
 19 21  1  0
 21 22  2  0
 22 23  1  0
 23 24  1  0
 24 25  2  0
 24 26  1  0
 26 27  1  0
 26 28  1  0
 26 29  1  0
 23 30  2  0
 30 31  1  0
 31 32  3  0
 30 33  1  0
 33 34  1  0
 34 35  1  0
 34 36  1  0
 33 37  2  0
 37 38  1  0
 13 39  2  0
 39 40  1  0
 40 41  1  0
 41 42  1  0
 41 43  1  0
 41 44  1  0
 39  2  1  0
 37 21  1  0
M  END
>  <score>  (350) 
7.27967

$$$$

     RDKit          3D

 56 58  0  0  0  0  0  0  0  0999 V2000
   -0.8672  143.5473   46.8299 H   0  0  0  0  0  0  0  0  0  0  0  0
   -0.2994  143.3730   47.7344 C   0  0  0  0  0  0  0  0  0  0  0  0
    0.0434  144.4446   48.5612 C   0  0  0  0  0  0  0  0  0  0  0  0
   -0.2023  145.4556   48.2442 H   0  0  0  0  0  0  0  0  0  0  0  0
    0.6997  144.1978   49.7763 C   0  0  0  0  0  0  0  0  0  0  0  0
    0.9322  145.0412   50.4110 H   0  0  0  0  0  0  0  0  0  0  0  0
    1.0126  142.8797   50.1657 C   0  0  0  0  0  0  0  0  0  0  0  0
    1.5108  142.5074   51.3889 O   0  0  0  0  0  0  0  0  0  0  0  0
    1.8551  143.5287   52.3249 C   0  0  0  0  0  0  0  0  0  0  0  0
    0.9890  144.1551   52.5740 H   0  0  0  0  0  0  0  0  0  0  0  0
    2.6383  144.1746   51.9081 H   0  0  0  0  0  0  0  0  0  0  0  0
    2.3644  142.7961   53.5742 C   0  0  0  0  0  0  0  0  0  0  0  0
    1.5537  142.2259   54.0233 H   0  0  0  0  0  0  0  0  0  0  0  0
    3.1518  142.0965   53.2918 H   0  0  0  0  0  0  0  0  0  0  0  0
    2.9138  143.7107   54.6151 C   0  0  0  0  0  0  0  0  0  0  0  0
    3.0908  144.9748   54.2669 N   0  0  0  0  0  0  0  0  0  0  0  0
    3.5785  145.7923   55.1597 C   0  0  0  0  0  0  0  0  0  0  0  0
    3.7104  146.9757   54.5513 N   0  0  0  0  0  0  0  0  0  0  0  0
    3.4129  146.9683   53.5897 H   0  0  0  0  0  0  0  0  0  0  0  0
    3.7277  148.1572   55.2129 C   0  0  0  0  0  0  0  0  0  0  0  0
    3.8035  148.1859   56.4257 O   0  0  0  0  0  0  0  0  0  0  0  0
    3.6898  149.4462   54.4249 C   0  0  0  0  0  0  0  0  0  0  0  0
    3.9456  150.2351   55.1172 H   0  0  0  0  0  0  0  0  0  0  0  0
    4.4241  149.4225   53.6181 H   0  0  0  0  0  0  0  0  0  0  0  0
    2.3352  149.7581   53.8738 C   0  0  0  0  0  0  0  0  0  0  0  0
    1.5523  150.6658   54.5786 C   0  0  0  0  0  0  0  0  0  0  0  0
    1.9255  151.1164   55.4959 H   0  0  0  0  0  0  0  0  0  0  0  0
    0.3041  151.0349   54.0936 C   0  0  0  0  0  0  0  0  0  0  0  0
   -0.3906  151.9764   54.7935 O   0  0  0  0  0  0  0  0  0  0  0  0
   -1.4221  151.4050   55.5963 C   0  0  0  0  0  0  0  0  0  0  0  0
   -1.9333  152.1916   56.1597 H   0  0  0  0  0  0  0  0  0  0  0  0
   -1.0045  150.6856   56.3040 H   0  0  0  0  0  0  0  0  0  0  0  0
   -2.1502  150.8891   54.9655 H   0  0  0  0  0  0  0  0  0  0  0  0
   -0.1923  150.4709   52.9044 C   0  0  0  0  0  0  0  0  0  0  0  0
   -1.9255  150.9731   52.2561 Br  0  0  0  0  0  0  0  0  0  0  0  0
    0.6102  149.5711   52.1820 C   0  0  0  0  0  0  0  0  0  0  0  0
    0.2770  149.1679   51.2307 H   0  0  0  0  0  0  0  0  0  0  0  0
    1.8852  149.2168   52.6599 C   0  0  0  0  0  0  0  0  0  0  0  0
    2.7470  148.4001   51.9678 O   0  0  0  0  0  0  0  0  0  0  0  0
    2.1379  147.3108   51.2738 C   0  0  0  0  0  0  0  0  0  0  0  0
    1.4482  146.7863   51.9395 H   0  0  0  0  0  0  0  0  0  0  0  0
    1.5909  147.6631   50.3958 H   0  0  0  0  0  0  0  0  0  0  0  0
    2.9038  146.6026   50.9448 H   0  0  0  0  0  0  0  0  0  0  0  0
    3.8930  145.4535   56.4511 C   0  0  0  0  0  0  0  0  0  0  0  0
    4.2728  146.1584   57.1732 H   0  0  0  0  0  0  0  0  0  0  0  0
    3.7432  144.1433   56.7823 C   0  0  0  0  0  0  0  0  0  0  0  0
    4.1157  143.7718   58.0233 N   0  0  0  0  0  0  0  0  0  0  0  0
    4.4769  144.4772   58.6612 H   0  0  0  0  0  0  0  0  0  0  0  0
    4.0763  142.7896   58.2813 H   0  0  0  0  0  0  0  0  0  0  0  0
    3.2557  143.2377   55.8722 C   0  0  0  0  0  0  0  0  0  0  0  0
    3.1419  141.8530   56.1899 C   0  0  0  0  0  0  0  0  0  0  0  0
    3.0746  140.7197   56.4429 N   0  0  0  0  0  0  0  0  0  0  0  0
    0.7414  141.8380   49.2747 C   0  0  0  0  0  0  0  0  0  0  0  0
    1.0149  140.8234   49.5417 H   0  0  0  0  0  0  0  0  0  0  0  0
    0.0665  142.0681   48.0738 C   0  0  0  0  0  0  0  0  0  0  0  0
   -0.1920  141.2178   47.4408 H   0  0  0  0  0  0  0  0  0  0  0  0
  1  2  1  0
  2  3  2  0
  3  4  1  0
  3  5  1  0
  5  6  1  0
  5  7  2  0
  7  8  1  0
  8  9  1  0
  9 10  1  0
  9 11  1  0
  9 12  1  0
 12 13  1  0
 12 14  1  0
 12 15  1  0
 15 16  2  0
 16 17  1  0
 17 18  1  0
 18 19  1  0
 18 20  1  0
 20 21  2  0
 20 22  1  0
 22 23  1  0
 22 24  1  0
 22 25  1  0
 25 26  2  0
 26 27  1  0
 26 28  1  0
 28 29  1  0
 29 30  1  0
 30 31  1  0
 30 32  1  0
 30 33  1  0
 28 34  2  0
 34 35  1  0
 34 36  1  0
 36 37  1  0
 36 38  2  0
 38 39  1  0
 39 40  1  0
 40 41  1  0
 40 42  1  0
 40 43  1  0
 17 44  2  0
 44 45  1  0
 44 46  1  0
 46 47  1  0
 47 48  1  0
 47 49  1  0
 46 50  2  0
 50 51  1  0
 51 52  3  0
  7 53  1  0
 53 54  1  0
 53 55  2  0
 55 56  1  0
 55  2  1  0
 50 15  1  0
 38 25  1  0
M  END
>  <score>  (351) 
7.27984

$$$$

     RDKit          3D

 47 49  0  0  0  0  0  0  0  0999 V2000
    0.7911  142.3720   50.8070 H   0  0  0  0  0  0  0  0  0  0  0  0
    1.4906  142.3421   51.6317 C   0  0  0  0  0  0  0  0  0  0  0  0
    2.5340  141.4720   51.8446 C   0  0  0  0  0  0  0  0  0  0  0  0
    2.8695  140.6511   51.2244 H   0  0  0  0  0  0  0  0  0  0  0  0
    3.1178  141.8251   53.1177 C   0  0  0  0  0  0  0  0  0  0  0  0
    4.0663  141.2854   53.6561 O   0  0  0  0  0  0  0  0  0  0  0  0
    2.3826  142.8263   53.6635 N   0  0  0  0  0  0  0  0  0  0  0  0
    2.8924  143.6388   54.6063 C   0  0  0  0  0  0  0  0  0  0  0  0
    3.0226  144.8931   54.2293 N   0  0  0  0  0  0  0  0  0  0  0  0
    3.5088  145.7330   55.1110 C   0  0  0  0  0  0  0  0  0  0  0  0
    3.6435  146.9355   54.5320 N   0  0  0  0  0  0  0  0  0  0  0  0
    3.4203  146.9492   53.5507 H   0  0  0  0  0  0  0  0  0  0  0  0
    3.7239  148.1195   55.1980 C   0  0  0  0  0  0  0  0  0  0  0  0
    3.8174  148.1421   56.4108 O   0  0  0  0  0  0  0  0  0  0  0  0
    3.6970  149.4226   54.4165 C   0  0  0  0  0  0  0  0  0  0  0  0
    4.4202  149.3842   53.6032 H   0  0  0  0  0  0  0  0  0  0  0  0
    3.9772  150.2195   55.0888 H   0  0  0  0  0  0  0  0  0  0  0  0
    2.3470  149.7630   53.8686 C   0  0  0  0  0  0  0  0  0  0  0  0
    1.5707  150.6774   54.5790 C   0  0  0  0  0  0  0  0  0  0  0  0
    1.9539  151.1283   55.4943 H   0  0  0  0  0  0  0  0  0  0  0  0
    0.3140  151.0395   54.1058 C   0  0  0  0  0  0  0  0  0  0  0  0
   -0.3829  151.9751   54.8175 O   0  0  0  0  0  0  0  0  0  0  0  0
   -1.4215  151.4062   55.6155 C   0  0  0  0  0  0  0  0  0  0  0  0
   -1.9380  152.1947   56.1718 H   0  0  0  0  0  0  0  0  0  0  0  0
   -2.1474  150.8850   54.9869 H   0  0  0  0  0  0  0  0  0  0  0  0
   -1.0082  150.6916   56.3293 H   0  0  0  0  0  0  0  0  0  0  0  0
   -0.1753  150.4824   52.9074 C   0  0  0  0  0  0  0  0  0  0  0  0
   -1.9105  150.9791   52.2636 Br  0  0  0  0  0  0  0  0  0  0  0  0
    0.6240  149.5801   52.1821 C   0  0  0  0  0  0  0  0  0  0  0  0
    0.2839  149.1807   51.2329 H   0  0  0  0  0  0  0  0  0  0  0  0
    1.8960  149.2211   52.6558 C   0  0  0  0  0  0  0  0  0  0  0  0
    2.7573  148.4044   51.9623 O   0  0  0  0  0  0  0  0  0  0  0  0
    2.1480  147.3071   51.2790 C   0  0  0  0  0  0  0  0  0  0  0  0
    2.9170  146.5975   50.9593 H   0  0  0  0  0  0  0  0  0  0  0  0
    1.6040  147.6510   50.3950 H   0  0  0  0  0  0  0  0  0  0  0  0
    1.4556  146.7842   51.9453 H   0  0  0  0  0  0  0  0  0  0  0  0
    3.8563  145.3932   56.3932 C   0  0  0  0  0  0  0  0  0  0  0  0
    4.2416  146.1007   57.1119 H   0  0  0  0  0  0  0  0  0  0  0  0
    3.7344  144.0779   56.7240 C   0  0  0  0  0  0  0  0  0  0  0  0
    4.1119  143.7286   57.9648 N   0  0  0  0  0  0  0  0  0  0  0  0
    4.0682  142.7587   58.2596 H   0  0  0  0  0  0  0  0  0  0  0  0
    4.4563  144.4489   58.5906 H   0  0  0  0  0  0  0  0  0  0  0  0
    3.2611  143.1530   55.8341 C   0  0  0  0  0  0  0  0  0  0  0  0
    3.1422  141.7666   56.1588 C   0  0  0  0  0  0  0  0  0  0  0  0
    3.0538  140.6410   56.4369 N   0  0  0  0  0  0  0  0  0  0  0  0
    1.4553  143.2407   52.7622 C   0  0  0  0  0  0  0  0  0  0  0  0
    0.6804  144.1645   52.9371 O   0  0  0  0  0  0  0  0  0  0  0  0
  1  2  1  0
  2  3  2  0
  3  4  1  0
  3  5  1  0
  5  6  2  0
  5  7  1  0
  7  8  1  0
  8  9  2  0
  9 10  1  0
 10 11  1  0
 11 12  1  0
 11 13  1  0
 13 14  2  0
 13 15  1  0
 15 16  1  0
 15 17  1  0
 15 18  1  0
 18 19  2  0
 19 20  1  0
 19 21  1  0
 21 22  1  0
 22 23  1  0
 23 24  1  0
 23 25  1  0
 23 26  1  0
 21 27  2  0
 27 28  1  0
 27 29  1  0
 29 30  1  0
 29 31  2  0
 31 32  1  0
 32 33  1  0
 33 34  1  0
 33 35  1  0
 33 36  1  0
 10 37  2  0
 37 38  1  0
 37 39  1  0
 39 40  1  0
 40 41  1  0
 40 42  1  0
 39 43  2  0
 43 44  1  0
 44 45  3  0
  7 46  1  0
 46 47  2  0
 46  2  1  0
 43  8  1  0
 31 18  1  0
M  END
>  <score>  (352) 
7.28473

$$$$

     RDKit          3D

 59 61  0  0  0  0  0  0  0  0999 V2000
    0.2565  149.1460   51.2541 H   0  0  0  0  0  0  0  0  0  0  0  0
    0.6149  149.5678   52.1853 C   0  0  0  0  0  0  0  0  0  0  0  0
   -0.1926  150.4746   52.8924 C   0  0  0  0  0  0  0  0  0  0  0  0
   -1.9268  150.9379   52.2254 Br  0  0  0  0  0  0  0  0  0  0  0  0
    0.2875  151.0493   54.0790 C   0  0  0  0  0  0  0  0  0  0  0  0
   -0.4243  151.9870   54.7734 O   0  0  0  0  0  0  0  0  0  0  0  0
   -1.4464  151.4022   55.5762 C   0  0  0  0  0  0  0  0  0  0  0  0
   -1.0126  150.6780   56.2692 H   0  0  0  0  0  0  0  0  0  0  0  0
   -1.9482  152.1825   56.1548 H   0  0  0  0  0  0  0  0  0  0  0  0
   -2.1844  150.8933   54.9489 H   0  0  0  0  0  0  0  0  0  0  0  0
    1.5359  150.6743   54.5637 C   0  0  0  0  0  0  0  0  0  0  0  0
    1.8851  151.1093   55.4943 H   0  0  0  0  0  0  0  0  0  0  0  0
    2.3390  149.7696   53.8658 C   0  0  0  0  0  0  0  0  0  0  0  0
    3.6767  149.4324   54.4564 C   0  0  0  0  0  0  0  0  0  0  0  0
    3.9158  150.2066   55.1757 H   0  0  0  0  0  0  0  0  0  0  0  0
    4.4373  149.4284   53.6714 H   0  0  0  0  0  0  0  0  0  0  0  0
    3.6822  148.1065   55.2008 C   0  0  0  0  0  0  0  0  0  0  0  0
    3.7917  148.0880   56.4163 O   0  0  0  0  0  0  0  0  0  0  0  0
    3.6142  146.9424   54.5085 N   0  0  0  0  0  0  0  0  0  0  0  0
    3.3504  146.9633   53.5354 H   0  0  0  0  0  0  0  0  0  0  0  0
    3.5053  145.7369   55.0904 C   0  0  0  0  0  0  0  0  0  0  0  0
    3.0184  144.8912   54.2310 N   0  0  0  0  0  0  0  0  0  0  0  0
    2.9087  143.6414   54.6395 C   0  0  0  0  0  0  0  0  0  0  0  0
    2.3733  142.7762   53.7203 N   0  0  0  0  0  0  0  0  0  0  0  0
    1.2810  143.2278   52.8493 C   0  0  0  0  0  0  0  0  0  0  0  0
    1.3654  144.2916   52.6010 H   0  0  0  0  0  0  0  0  0  0  0  0
    0.3105  143.0574   53.3169 H   0  0  0  0  0  0  0  0  0  0  0  0
    1.3915  142.3876   51.5970 C   0  0  0  0  0  0  0  0  0  0  0  0
    1.7021  143.0204   50.7597 H   0  0  0  0  0  0  0  0  0  0  0  0
    0.4434  141.9109   51.3422 H   0  0  0  0  0  0  0  0  0  0  0  0
    2.4347  141.3105   51.8727 C   0  0  1  0  0  0  0  0  0  0  0  0
    1.9343  140.4089   52.2548 H   0  0  0  0  0  0  0  0  0  0  0  0
    3.1703  141.0195   50.6131 N   0  0  0  0  0  0  0  0  0  0  0  0
    4.3719  140.1722   50.7116 C   0  0  0  0  0  0  0  0  0  0  0  0
    4.5593  139.8670   51.7467 H   0  0  0  0  0  0  0  0  0  0  0  0
    4.2591  139.2622   50.1071 H   0  0  0  0  0  0  0  0  0  0  0  0
    5.2477  140.7340   50.3657 H   0  0  0  0  0  0  0  0  0  0  0  0
    2.3873  140.9728   49.3524 C   0  0  0  0  0  0  0  0  0  0  0  0
    2.2007  142.0011   49.0245 H   0  0  0  0  0  0  0  0  0  0  0  0
    2.9348  140.4453   48.5566 H   0  0  0  0  0  0  0  0  0  0  0  0
    1.4121  140.4869   49.5040 H   0  0  0  0  0  0  0  0  0  0  0  0
    3.2923  141.8565   53.0272 C   0  0  0  0  0  0  0  0  0  0  0  0
    4.1801  142.3772   52.6430 H   0  0  0  0  0  0  0  0  0  0  0  0
    3.6239  141.0374   53.6800 H   0  0  0  0  0  0  0  0  0  0  0  0
    3.2917  143.1895   55.8749 C   0  0  0  0  0  0  0  0  0  0  0  0
    3.1896  141.8038   56.1988 C   0  0  0  0  0  0  0  0  0  0  0  0
    3.1086  140.6613   56.3858 N   0  0  0  0  0  0  0  0  0  0  0  0
    3.7583  144.1206   56.7473 C   0  0  0  0  0  0  0  0  0  0  0  0
    4.1392  143.7734   57.9908 N   0  0  0  0  0  0  0  0  0  0  0  0
    4.0793  142.8006   58.2847 H   0  0  0  0  0  0  0  0  0  0  0  0
    4.4431  144.4933   58.6361 H   0  0  0  0  0  0  0  0  0  0  0  0
    3.8686  145.4265   56.3759 C   0  0  0  0  0  0  0  0  0  0  0  0
    4.2552  146.1614   57.0622 H   0  0  0  0  0  0  0  0  0  0  0  0
    1.8945  149.2186   52.6539 C   0  0  0  0  0  0  0  0  0  0  0  0
    2.7391  148.3742   51.9730 O   0  0  0  0  0  0  0  0  0  0  0  0
    2.1114  147.3043   51.2641 C   0  0  0  0  0  0  0  0  0  0  0  0
    2.8807  146.6027   50.9292 H   0  0  0  0  0  0  0  0  0  0  0  0
    1.5726  147.6810   50.3899 H   0  0  0  0  0  0  0  0  0  0  0  0
    1.4124  146.7690   51.9156 H   0  0  0  0  0  0  0  0  0  0  0  0
  1  2  1  0
  2  3  2  0
  3  4  1  0
  3  5  1  0
  5  6  1  0
  6  7  1  0
  7  8  1  0
  7  9  1  0
  7 10  1  0
  5 11  2  0
 11 12  1  0
 11 13  1  0
 13 14  1  0
 14 15  1  0
 14 16  1  0
 14 17  1  0
 17 18  2  0
 17 19  1  0
 19 20  1  0
 19 21  1  0
 21 22  2  0
 22 23  1  0
 23 24  1  0
 24 25  1  0
 25 26  1  0
 25 27  1  0
 25 28  1  0
 28 29  1  0
 28 30  1  0
 28 31  1  0
 31 32  1  1
 31 33  1  0
 33 34  1  0
 34 35  1  0
 34 36  1  0
 34 37  1  0
 33 38  1  0
 38 39  1  0
 38 40  1  0
 38 41  1  0
 31 42  1  0
 42 43  1  0
 42 44  1  0
 23 45  2  0
 45 46  1  0
 46 47  3  0
 45 48  1  0
 48 49  1  0
 49 50  1  0
 49 51  1  0
 48 52  2  0
 52 53  1  0
 13 54  2  0
 54 55  1  0
 55 56  1  0
 56 57  1  0
 56 58  1  0
 56 59  1  0
 54  2  1  0
 52 21  1  0
 42 24  1  0
M  END
>  <score>  (353) 
7.28655

$$$$

     RDKit          3D

 50 52  0  0  0  0  0  0  0  0999 V2000
   -0.1665  145.7475   51.3794 H   0  0  0  0  0  0  0  0  0  0  0  0
    0.3686  144.8023   51.3950 C   0  0  0  0  0  0  0  0  0  0  0  0
    0.5554  144.0483   50.2298 C   0  0  0  0  0  0  0  0  0  0  0  0
    0.0920  144.3755   49.3029 H   0  0  0  0  0  0  0  0  0  0  0  0
    1.2662  142.8379   50.2754 C   0  0  0  0  0  0  0  0  0  0  0  0
    1.4472  141.8431   48.8428 Cl  0  0  0  0  0  0  0  0  0  0  0  0
    1.8423  142.4308   51.4857 C   0  0  0  0  0  0  0  0  0  0  0  0
    2.4697  141.5435   51.5369 H   0  0  0  0  0  0  0  0  0  0  0  0
    1.6671  143.1773   52.6453 C   0  0  0  0  0  0  0  0  0  0  0  0
    2.2580  142.7107   53.7854 O   0  0  0  0  0  0  0  0  0  0  0  0
    2.7777  143.6407   54.6445 C   0  0  0  0  0  0  0  0  0  0  0  0
    2.9331  144.9085   54.2501 N   0  0  0  0  0  0  0  0  0  0  0  0
    3.4765  145.7452   55.0952 C   0  0  0  0  0  0  0  0  0  0  0  0
    3.6342  146.9341   54.4969 N   0  0  0  0  0  0  0  0  0  0  0  0
    3.3488  146.9530   53.5332 H   0  0  0  0  0  0  0  0  0  0  0  0
    3.6913  148.1055   55.1944 C   0  0  0  0  0  0  0  0  0  0  0  0
    3.7857  148.0927   56.4070 O   0  0  0  0  0  0  0  0  0  0  0  0
    3.6844  149.4267   54.4407 C   0  0  0  0  0  0  0  0  0  0  0  0
    4.4369  149.4288   53.6428 H   0  0  0  0  0  0  0  0  0  0  0  0
    3.9216  150.1960   55.1696 H   0  0  0  0  0  0  0  0  0  0  0  0
    2.3382  149.7603   53.8671 C   0  0  0  0  0  0  0  0  0  0  0  0
    1.5381  150.6659   54.5661 C   0  0  0  0  0  0  0  0  0  0  0  0
    1.8910  151.1091   55.4905 H   0  0  0  0  0  0  0  0  0  0  0  0
    0.2908  151.0475   54.0833 C   0  0  0  0  0  0  0  0  0  0  0  0
   -0.4162  151.9883   54.7783 O   0  0  0  0  0  0  0  0  0  0  0  0
   -1.4388  151.4028   55.5799 C   0  0  0  0  0  0  0  0  0  0  0  0
   -1.9407  152.1867   56.1537 H   0  0  0  0  0  0  0  0  0  0  0  0
   -2.1735  150.8924   54.9480 H   0  0  0  0  0  0  0  0  0  0  0  0
   -1.0063  150.6813   56.2784 H   0  0  0  0  0  0  0  0  0  0  0  0
   -0.1971  150.4705   52.8997 C   0  0  0  0  0  0  0  0  0  0  0  0
   -1.9305  150.9485   52.2336 Br  0  0  0  0  0  0  0  0  0  0  0  0
    0.6098  149.5669   52.1854 C   0  0  0  0  0  0  0  0  0  0  0  0
    0.2596  149.1524   51.2465 H   0  0  0  0  0  0  0  0  0  0  0  0
    1.8893  149.2166   52.6543 C   0  0  0  0  0  0  0  0  0  0  0  0
    2.7370  148.3779   51.9728 O   0  0  0  0  0  0  0  0  0  0  0  0
    2.1155  147.3028   51.2695 C   0  0  0  0  0  0  0  0  0  0  0  0
    2.8848  146.5902   50.9543 H   0  0  0  0  0  0  0  0  0  0  0  0
    1.4069  146.7868   51.9255 H   0  0  0  0  0  0  0  0  0  0  0  0
    1.5918  147.6737   50.3826 H   0  0  0  0  0  0  0  0  0  0  0  0
    3.8452  145.4349   56.3777 C   0  0  0  0  0  0  0  0  0  0  0  0
    4.2662  146.1614   57.0583 H   0  0  0  0  0  0  0  0  0  0  0  0
    3.7038  144.1367   56.7493 C   0  0  0  0  0  0  0  0  0  0  0  0
    4.1375  143.7819   57.9777 N   0  0  0  0  0  0  0  0  0  0  0  0
    4.0653  142.8098   58.2725 H   0  0  0  0  0  0  0  0  0  0  0  0
    4.4504  144.5084   58.6176 H   0  0  0  0  0  0  0  0  0  0  0  0
    3.1879  143.2130   55.8885 C   0  0  0  0  0  0  0  0  0  0  0  0
    3.1256  141.8313   56.2330 C   0  0  0  0  0  0  0  0  0  0  0  0
    3.0890  140.6882   56.4362 N   0  0  0  0  0  0  0  0  0  0  0  0
    0.8999  144.3515   52.6082 C   0  0  0  0  0  0  0  0  0  0  0  0
    0.7552  144.9160   53.5269 H   0  0  0  0  0  0  0  0  0  0  0  0
  1  2  1  0
  2  3  2  0
  3  4  1  0
  3  5  1  0
  5  6  1  0
  5  7  2  0
  7  8  1  0
  7  9  1  0
  9 10  1  0
 10 11  1  0
 11 12  2  0
 12 13  1  0
 13 14  1  0
 14 15  1  0
 14 16  1  0
 16 17  2  0
 16 18  1  0
 18 19  1  0
 18 20  1  0
 18 21  1  0
 21 22  2  0
 22 23  1  0
 22 24  1  0
 24 25  1  0
 25 26  1  0
 26 27  1  0
 26 28  1  0
 26 29  1  0
 24 30  2  0
 30 31  1  0
 30 32  1  0
 32 33  1  0
 32 34  2  0
 34 35  1  0
 35 36  1  0
 36 37  1  0
 36 38  1  0
 36 39  1  0
 13 40  2  0
 40 41  1  0
 40 42  1  0
 42 43  1  0
 43 44  1  0
 43 45  1  0
 42 46  2  0
 46 47  1  0
 47 48  3  0
  9 49  2  0
 49 50  1  0
 49  2  1  0
 46 11  1  0
 34 21  1  0
M  END
>  <score>  (354) 
7.28752

$$$$

     RDKit          3D

 53 55  0  0  0  0  0  0  0  0999 V2000
   -0.0986  142.8493   48.3301 H   0  0  0  0  0  0  0  0  0  0  0  0
    0.6690  142.4762   48.9946 C   0  0  0  0  0  0  0  0  0  0  0  0
    0.8474  143.0808   50.2365 C   0  0  0  0  0  0  0  0  0  0  0  0
    0.2277  143.9248   50.5256 H   0  0  0  0  0  0  0  0  0  0  0  0
    1.8048  142.5945   51.1205 C   0  0  0  0  0  0  0  0  0  0  0  0
    1.8883  143.2213   52.3470 N   0  0  0  0  0  0  0  0  0  0  0  0
    1.3648  144.0860   52.4358 H   0  0  0  0  0  0  0  0  0  0  0  0
    2.5436  142.7400   53.4824 C   0  0  0  0  0  0  0  0  0  0  0  0
    2.8409  141.5454   53.5217 O   0  0  0  0  0  0  0  0  0  0  0  0
    2.9428  143.6768   54.6126 C   0  0  0  0  0  0  0  0  0  0  0  0
    3.0671  144.9892   54.3252 N   0  0  0  0  0  0  0  0  0  0  0  0
    3.5491  145.8197   55.2208 C   0  0  0  0  0  0  0  0  0  0  0  0
    3.7092  147.0067   54.6124 N   0  0  0  0  0  0  0  0  0  0  0  0
    3.4438  146.9996   53.6414 H   0  0  0  0  0  0  0  0  0  0  0  0
    3.7388  148.1992   55.2597 C   0  0  0  0  0  0  0  0  0  0  0  0
    3.8161  148.2472   56.4735 O   0  0  0  0  0  0  0  0  0  0  0  0
    3.7037  149.4721   54.4303 C   0  0  0  0  0  0  0  0  0  0  0  0
    4.4433  149.4295   53.6199 H   0  0  0  0  0  0  0  0  0  0  0  0
    3.9427  150.2846   55.1048 H   0  0  0  0  0  0  0  0  0  0  0  0
    2.3429  149.7700   53.8689 C   0  0  0  0  0  0  0  0  0  0  0  0
    1.5449  150.6749   54.5715 C   0  0  0  0  0  0  0  0  0  0  0  0
    1.9065  151.1270   55.4901 H   0  0  0  0  0  0  0  0  0  0  0  0
    0.2948  151.0514   54.0914 C   0  0  0  0  0  0  0  0  0  0  0  0
   -0.4124  151.9885   54.7919 O   0  0  0  0  0  0  0  0  0  0  0  0
   -1.4361  151.4051   55.5959 C   0  0  0  0  0  0  0  0  0  0  0  0
   -1.0066  150.6876   56.2999 H   0  0  0  0  0  0  0  0  0  0  0  0
   -1.9441  152.1896   56.1646 H   0  0  0  0  0  0  0  0  0  0  0  0
   -2.1669  150.8895   54.9651 H   0  0  0  0  0  0  0  0  0  0  0  0
   -0.1943  150.4763   52.9049 C   0  0  0  0  0  0  0  0  0  0  0  0
   -1.9263  150.9571   52.2387 Br  0  0  0  0  0  0  0  0  0  0  0  0
    0.6119  149.5736   52.1853 C   0  0  0  0  0  0  0  0  0  0  0  0
    0.2676  149.1608   51.2408 H   0  0  0  0  0  0  0  0  0  0  0  0
    1.8912  149.2222   52.6571 C   0  0  0  0  0  0  0  0  0  0  0  0
    2.7439  148.3891   51.9733 O   0  0  0  0  0  0  0  0  0  0  0  0
    2.1316  147.3088   51.2697 C   0  0  0  0  0  0  0  0  0  0  0  0
    2.9023  146.6000   50.9492 H   0  0  0  0  0  0  0  0  0  0  0  0
    1.4292  146.7869   51.9266 H   0  0  0  0  0  0  0  0  0  0  0  0
    1.6018  147.6754   50.3859 H   0  0  0  0  0  0  0  0  0  0  0  0
    3.8954  145.4611   56.4969 C   0  0  0  0  0  0  0  0  0  0  0  0
    4.3152  146.1588   57.2034 H   0  0  0  0  0  0  0  0  0  0  0  0
    3.7446  144.1470   56.8340 C   0  0  0  0  0  0  0  0  0  0  0  0
    4.1352  143.7699   58.0772 N   0  0  0  0  0  0  0  0  0  0  0  0
    4.4967  144.4781   58.7156 H   0  0  0  0  0  0  0  0  0  0  0  0
    4.1009  142.7846   58.3395 H   0  0  0  0  0  0  0  0  0  0  0  0
    3.2699  143.2322   55.9085 C   0  0  0  0  0  0  0  0  0  0  0  0
    3.1667  141.8522   56.2537 C   0  0  0  0  0  0  0  0  0  0  0  0
    3.0991  140.7176   56.5045 N   0  0  0  0  0  0  0  0  0  0  0  0
    2.6655  141.5675   50.7279 C   0  0  0  0  0  0  0  0  0  0  0  0
    3.4730  141.2350   51.3749 H   0  0  0  0  0  0  0  0  0  0  0  0
    2.5011  140.9896   49.4689 C   0  0  0  0  0  0  0  0  0  0  0  0
    3.1812  140.2163   49.1449 H   0  0  0  0  0  0  0  0  0  0  0  0
    1.4746  141.3984   48.6150 C   0  0  0  0  0  0  0  0  0  0  0  0
    1.2840  140.7759   47.4298 F   0  0  0  0  0  0  0  0  0  0  0  0
  1  2  1  0
  2  3  2  0
  3  4  1  0
  3  5  1  0
  5  6  1  0
  6  7  1  0
  6  8  1  0
  8  9  2  0
  8 10  1  0
 10 11  2  0
 11 12  1  0
 12 13  1  0
 13 14  1  0
 13 15  1  0
 15 16  2  0
 15 17  1  0
 17 18  1  0
 17 19  1  0
 17 20  1  0
 20 21  2  0
 21 22  1  0
 21 23  1  0
 23 24  1  0
 24 25  1  0
 25 26  1  0
 25 27  1  0
 25 28  1  0
 23 29  2  0
 29 30  1  0
 29 31  1  0
 31 32  1  0
 31 33  2  0
 33 34  1  0
 34 35  1  0
 35 36  1  0
 35 37  1  0
 35 38  1  0
 12 39  2  0
 39 40  1  0
 39 41  1  0
 41 42  1  0
 42 43  1  0
 42 44  1  0
 41 45  2  0
 45 46  1  0
 46 47  3  0
  5 48  2  0
 48 49  1  0
 48 50  1  0
 50 51  1  0
 50 52  2  0
 52 53  1  0
 52  2  1  0
 45 10  1  0
 33 20  1  0
M  END
>  <score>  (355) 
7.28976

$$$$

     RDKit          3D

 51 53  0  0  0  0  0  0  0  0999 V2000
    5.2209  139.3634   52.8142 H   0  0  0  0  0  0  0  0  0  0  0  0
    4.8826  140.3475   52.4941 C   0  0  0  0  0  0  0  0  0  0  0  0
    3.8870  140.9418   53.1781 N   0  0  0  0  0  0  0  0  0  0  0  0
    3.4950  142.1658   52.7979 C   0  0  0  0  0  0  0  0  0  0  0  0
    2.4119  142.8007   53.5786 C   0  0  0  0  0  0  0  0  0  0  0  0
    1.7709  143.3960   52.9274 H   0  0  0  0  0  0  0  0  0  0  0  0
    1.8041  142.0511   54.0763 H   0  0  0  0  0  0  0  0  0  0  0  0
    3.0263  143.6602   54.6001 C   0  0  0  0  0  0  0  0  0  0  0  0
    3.1947  144.9204   54.2409 N   0  0  0  0  0  0  0  0  0  0  0  0
    3.6201  145.7670   55.1441 C   0  0  0  0  0  0  0  0  0  0  0  0
    3.7020  146.9648   54.5551 N   0  0  0  0  0  0  0  0  0  0  0  0
    3.4269  146.9616   53.5808 H   0  0  0  0  0  0  0  0  0  0  0  0
    3.7359  148.1513   55.2136 C   0  0  0  0  0  0  0  0  0  0  0  0
    3.8131  148.1877   56.4266 O   0  0  0  0  0  0  0  0  0  0  0  0
    3.6906  149.4430   54.4224 C   0  0  0  0  0  0  0  0  0  0  0  0
    3.9598  150.2412   55.0984 H   0  0  0  0  0  0  0  0  0  0  0  0
    4.4179  149.4132   53.6116 H   0  0  0  0  0  0  0  0  0  0  0  0
    2.3366  149.7606   53.8750 C   0  0  0  0  0  0  0  0  0  0  0  0
    1.5584  150.6758   54.5807 C   0  0  0  0  0  0  0  0  0  0  0  0
    1.9386  151.1301   55.4967 H   0  0  0  0  0  0  0  0  0  0  0  0
    0.3064  151.0335   54.0989 C   0  0  0  0  0  0  0  0  0  0  0  0
   -0.3861  151.9745   54.8039 O   0  0  0  0  0  0  0  0  0  0  0  0
   -1.4203  151.4055   55.6037 C   0  0  0  0  0  0  0  0  0  0  0  0
   -1.9336  152.1947   56.1624 H   0  0  0  0  0  0  0  0  0  0  0  0
   -1.0061  150.6872   56.3142 H   0  0  0  0  0  0  0  0  0  0  0  0
   -2.1466  150.8876   54.9731 H   0  0  0  0  0  0  0  0  0  0  0  0
   -0.1855  150.4721   52.9040 C   0  0  0  0  0  0  0  0  0  0  0  0
   -1.9210  150.9768   52.2612 Br  0  0  0  0  0  0  0  0  0  0  0  0
    0.6160  149.5704   52.1819 C   0  0  0  0  0  0  0  0  0  0  0  0
    0.2836  149.1704   51.2303 H   0  0  0  0  0  0  0  0  0  0  0  0
    1.8877  149.2170   52.6609 C   0  0  0  0  0  0  0  0  0  0  0  0
    2.7547  148.4051   51.9694 O   0  0  0  0  0  0  0  0  0  0  0  0
    2.1440  147.3151   51.2773 C   0  0  0  0  0  0  0  0  0  0  0  0
    1.5970  147.6653   50.3974 H   0  0  0  0  0  0  0  0  0  0  0  0
    2.9096  146.6055   50.9499 H   0  0  0  0  0  0  0  0  0  0  0  0
    1.4526  146.7903   51.9425 H   0  0  0  0  0  0  0  0  0  0  0  0
    3.9084  145.4400   56.4475 C   0  0  0  0  0  0  0  0  0  0  0  0
    4.2465  146.1544   57.1879 H   0  0  0  0  0  0  0  0  0  0  0  0
    3.7730  144.1218   56.7760 C   0  0  0  0  0  0  0  0  0  0  0  0
    4.0863  143.7650   58.0365 N   0  0  0  0  0  0  0  0  0  0  0  0
    4.4839  144.4626   58.6611 H   0  0  0  0  0  0  0  0  0  0  0  0
    4.0885  142.7800   58.2863 H   0  0  0  0  0  0  0  0  0  0  0  0
    3.3270  143.1953   55.8628 C   0  0  0  0  0  0  0  0  0  0  0  0
    3.1746  141.8135   56.1941 C   0  0  0  0  0  0  0  0  0  0  0  0
    3.0606  140.6872   56.4590 N   0  0  0  0  0  0  0  0  0  0  0  0
    4.0251  142.8168   51.6781 C   0  0  0  0  0  0  0  0  0  0  0  0
    3.6695  143.8107   51.4210 H   0  0  0  0  0  0  0  0  0  0  0  0
    5.0011  142.1740   50.9119 C   0  0  0  0  0  0  0  0  0  0  0  0
    5.4281  142.6435   50.0210 H   0  0  0  0  0  0  0  0  0  0  0  0
    5.4569  140.9312   51.3581 C   0  0  0  0  0  0  0  0  0  0  0  0
    6.2508  140.4038   50.8364 H   0  0  0  0  0  0  0  0  0  0  0  0
  1  2  1  0
  2  3  2  0
  3  4  1  0
  4  5  1  0
  5  6  1  0
  5  7  1  0
  5  8  1  0
  8  9  2  0
  9 10  1  0
 10 11  1  0
 11 12  1  0
 11 13  1  0
 13 14  2  0
 13 15  1  0
 15 16  1  0
 15 17  1  0
 15 18  1  0
 18 19  2  0
 19 20  1  0
 19 21  1  0
 21 22  1  0
 22 23  1  0
 23 24  1  0
 23 25  1  0
 23 26  1  0
 21 27  2  0
 27 28  1  0
 27 29  1  0
 29 30  1  0
 29 31  2  0
 31 32  1  0
 32 33  1  0
 33 34  1  0
 33 35  1  0
 33 36  1  0
 10 37  2  0
 37 38  1  0
 37 39  1  0
 39 40  1  0
 40 41  1  0
 40 42  1  0
 39 43  2  0
 43 44  1  0
 44 45  3  0
  4 46  2  0
 46 47  1  0
 46 48  1  0
 48 49  1  0
 48 50  2  0
 50 51  1  0
 50  2  1  0
 43  8  1  0
 31 18  1  0
M  END
>  <score>  (356) 
7.29094

$$$$

     RDKit          3D

 54 57  0  0  0  0  0  0  0  0999 V2000
    1.5838  142.3390   54.6199 H   0  0  0  0  0  0  0  0  0  0  0  0
    1.9583  142.4302   53.6035 C   0  0  0  0  0  0  0  0  0  0  0  0
    1.2558  141.8740   52.6234 N   0  0  0  0  0  0  0  0  0  0  0  0
    1.7667  141.8720   51.3946 C   0  0  0  0  0  0  0  0  0  0  0  0
    1.0366  141.1956   50.4504 C   0  0  0  0  0  0  0  0  0  0  0  0
    0.1415  140.7384   50.8457 H   0  0  0  0  0  0  0  0  0  0  0  0
    1.4701  141.1322   49.1259 C   0  0  0  0  0  0  0  0  0  0  0  0
    0.9030  140.5760   48.3881 H   0  0  0  0  0  0  0  0  0  0  0  0
    2.6668  141.7610   48.7646 C   0  0  0  0  0  0  0  0  0  0  0  0
    3.0327  141.6744   47.7455 H   0  0  0  0  0  0  0  0  0  0  0  0
    3.4015  142.4792   49.7180 C   0  0  0  0  0  0  0  0  0  0  0  0
    4.2954  143.0259   49.4239 H   0  0  0  0  0  0  0  0  0  0  0  0
    2.9652  142.5152   51.0489 C   0  0  0  0  0  0  0  0  0  0  0  0
    3.6705  143.1597   52.0603 C   0  0  0  0  0  0  0  0  0  0  0  0
    4.5730  143.7109   51.7958 H   0  0  0  0  0  0  0  0  0  0  0  0
    3.1600  143.0737   53.3728 C   0  0  0  0  0  0  0  0  0  0  0  0
    3.6487  143.8218   54.4918 C   0  0  0  0  0  0  0  0  0  0  0  0
    3.8025  145.0993   54.2029 N   0  0  0  0  0  0  0  0  0  0  0  0
    3.9091  145.9407   55.1882 C   0  0  0  0  0  0  0  0  0  0  0  0
    3.7997  147.1590   54.6505 N   0  0  0  0  0  0  0  0  0  0  0  0
    3.6070  147.1436   53.6616 H   0  0  0  0  0  0  0  0  0  0  0  0
    3.6961  148.3234   55.3266 C   0  0  0  0  0  0  0  0  0  0  0  0
    3.8123  148.3302   56.5390 O   0  0  0  0  0  0  0  0  0  0  0  0
    3.6438  149.6111   54.5231 C   0  0  0  0  0  0  0  0  0  0  0  0
    4.4346  149.5863   53.7700 H   0  0  0  0  0  0  0  0  0  0  0  0
    3.8196  150.4541   55.1900 H   0  0  0  0  0  0  0  0  0  0  0  0
    2.3069  149.8389   53.8798 C   0  0  0  0  0  0  0  0  0  0  0  0
    1.4712  150.7346   54.5473 C   0  0  0  0  0  0  0  0  0  0  0  0
    1.7985  151.1825   55.4819 H   0  0  0  0  0  0  0  0  0  0  0  0
    0.2283  151.0778   54.0315 C   0  0  0  0  0  0  0  0  0  0  0  0
   -0.5219  152.0010   54.7057 O   0  0  0  0  0  0  0  0  0  0  0  0
   -1.5076  151.3953   55.5434 C   0  0  0  0  0  0  0  0  0  0  0  0
   -1.9925  152.1611   56.1552 H   0  0  0  0  0  0  0  0  0  0  0  0
   -1.0503  150.6588   56.2097 H   0  0  0  0  0  0  0  0  0  0  0  0
   -2.2684  150.8974   54.9358 H   0  0  0  0  0  0  0  0  0  0  0  0
   -0.2170  150.4682   52.8476 C   0  0  0  0  0  0  0  0  0  0  0  0
   -1.9519  150.8732   52.1481 Br  0  0  0  0  0  0  0  0  0  0  0  0
    0.6067  149.5456   52.1819 C   0  0  0  0  0  0  0  0  0  0  0  0
    0.2546  149.0741   51.2694 H   0  0  0  0  0  0  0  0  0  0  0  0
    1.8843  149.2246   52.6787 C   0  0  0  0  0  0  0  0  0  0  0  0
    2.7169  148.3355   52.0328 O   0  0  0  0  0  0  0  0  0  0  0  0
    2.0748  147.3102   51.2539 C   0  0  0  0  0  0  0  0  0  0  0  0
    1.3640  146.7549   51.8734 H   0  0  0  0  0  0  0  0  0  0  0  0
    2.8213  146.6029   50.8768 H   0  0  0  0  0  0  0  0  0  0  0  0
    1.5390  147.7314   50.3967 H   0  0  0  0  0  0  0  0  0  0  0  0
    3.9722  145.5982   56.5094 C   0  0  0  0  0  0  0  0  0  0  0  0
    4.0651  146.3444   57.2844 H   0  0  0  0  0  0  0  0  0  0  0  0
    3.8729  144.2598   56.7863 C   0  0  0  0  0  0  0  0  0  0  0  0
    3.9327  143.8715   58.0718 N   0  0  0  0  0  0  0  0  0  0  0  0
    4.0837  142.8759   58.2211 H   0  0  0  0  0  0  0  0  0  0  0  0
    4.3762  144.5325   58.7063 H   0  0  0  0  0  0  0  0  0  0  0  0
    3.6627  143.3323   55.7909 C   0  0  0  0  0  0  0  0  0  0  0  0
    3.3801  141.9579   56.0553 C   0  0  0  0  0  0  0  0  0  0  0  0
    3.1124  140.8312   56.1933 N   0  0  0  0  0  0  0  0  0  0  0  0
  1  2  1  0
  2  3  2  0
  3  4  1  0
  4  5  2  0
  5  6  1  0
  5  7  1  0
  7  8  1  0
  7  9  2  0
  9 10  1  0
  9 11  1  0
 11 12  1  0
 11 13  2  0
 13 14  1  0
 14 15  1  0
 14 16  2  0
 16 17  1  0
 17 18  2  0
 18 19  1  0
 19 20  1  0
 20 21  1  0
 20 22  1  0
 22 23  2  0
 22 24  1  0
 24 25  1  0
 24 26  1  0
 24 27  1  0
 27 28  2  0
 28 29  1  0
 28 30  1  0
 30 31  1  0
 31 32  1  0
 32 33  1  0
 32 34  1  0
 32 35  1  0
 30 36  2  0
 36 37  1  0
 36 38  1  0
 38 39  1  0
 38 40  2  0
 40 41  1  0
 41 42  1  0
 42 43  1  0
 42 44  1  0
 42 45  1  0
 19 46  2  0
 46 47  1  0
 46 48  1  0
 48 49  1  0
 49 50  1  0
 49 51  1  0
 48 52  2  0
 52 53  1  0
 53 54  3  0
 16  2  1  0
 52 17  1  0
 13  4  1  0
 40 27  1  0
M  END
>  <score>  (357) 
7.29253

$$$$

     RDKit          3D

 50 52  0  0  0  0  0  0  0  0999 V2000
    0.7650  141.8754   47.9797 H   0  0  0  0  0  0  0  0  0  0  0  0
    1.1492  141.9240   48.9930 C   0  0  0  0  0  0  0  0  0  0  0  0
    0.9454  143.3238   50.0061 S   0  0  0  0  0  0  0  0  0  0  0  0
    1.7752  142.5144   51.3195 C   0  0  0  0  0  0  0  0  0  0  0  0
    1.8569  143.2568   52.5720 C   0  0  0  0  0  0  0  0  0  0  0  0
    1.3205  144.3550   52.6475 O   0  0  0  0  0  0  0  0  0  0  0  0
    2.4543  142.7552   53.6989 N   0  0  0  0  0  0  0  0  0  0  0  0
    2.8705  141.8408   53.6654 H   0  0  0  0  0  0  0  0  0  0  0  0
    2.8584  143.6177   54.6769 C   0  0  0  0  0  0  0  0  0  0  0  0
    2.9906  144.8660   54.2741 N   0  0  0  0  0  0  0  0  0  0  0  0
    3.4728  145.7344   55.1154 C   0  0  0  0  0  0  0  0  0  0  0  0
    3.5964  146.9385   54.5137 N   0  0  0  0  0  0  0  0  0  0  0  0
    3.3436  146.9726   53.5363 H   0  0  0  0  0  0  0  0  0  0  0  0
    3.6892  148.1074   55.1941 C   0  0  0  0  0  0  0  0  0  0  0  0
    3.8011  148.1067   56.4101 O   0  0  0  0  0  0  0  0  0  0  0  0
    3.6933  149.4240   54.4385 C   0  0  0  0  0  0  0  0  0  0  0  0
    4.4554  149.4179   53.6489 H   0  0  0  0  0  0  0  0  0  0  0  0
    3.9394  150.1787   55.1743 H   0  0  0  0  0  0  0  0  0  0  0  0
    2.3447  149.7703   53.8617 C   0  0  0  0  0  0  0  0  0  0  0  0
    1.5411  150.6707   54.5654 C   0  0  0  0  0  0  0  0  0  0  0  0
    1.8886  151.1024   55.4979 H   0  0  0  0  0  0  0  0  0  0  0  0
    0.2911  151.0503   54.0810 C   0  0  0  0  0  0  0  0  0  0  0  0
   -0.4182  151.9894   54.7765 O   0  0  0  0  0  0  0  0  0  0  0  0
   -1.4411  151.4056   55.5818 C   0  0  0  0  0  0  0  0  0  0  0  0
   -1.0087  150.6843   56.2779 H   0  0  0  0  0  0  0  0  0  0  0  0
   -2.1748  150.8937   54.9529 H   0  0  0  0  0  0  0  0  0  0  0  0
   -1.9502  152.1801   56.1620 H   0  0  0  0  0  0  0  0  0  0  0  0
   -0.1970  150.4776   52.8950 C   0  0  0  0  0  0  0  0  0  0  0  0
   -1.9332  150.9462   52.2249 Br  0  0  0  0  0  0  0  0  0  0  0  0
    0.6082  149.5726   52.1855 C   0  0  0  0  0  0  0  0  0  0  0  0
    0.2500  149.1570   51.2512 H   0  0  0  0  0  0  0  0  0  0  0  0
    1.8883  149.2228   52.6529 C   0  0  0  0  0  0  0  0  0  0  0  0
    2.7334  148.3801   51.9723 O   0  0  0  0  0  0  0  0  0  0  0  0
    2.1140  147.2990   51.2705 C   0  0  0  0  0  0  0  0  0  0  0  0
    1.5986  147.6600   50.3759 H   0  0  0  0  0  0  0  0  0  0  0  0
    2.8787  146.5791   50.9628 H   0  0  0  0  0  0  0  0  0  0  0  0
    1.3986  146.7834   51.9190 H   0  0  0  0  0  0  0  0  0  0  0  0
    3.8461  145.4278   56.4033 C   0  0  0  0  0  0  0  0  0  0  0  0
    4.2751  146.1730   57.0544 H   0  0  0  0  0  0  0  0  0  0  0  0
    3.7292  144.1222   56.7936 C   0  0  0  0  0  0  0  0  0  0  0  0
    4.1932  143.7728   58.0206 N   0  0  0  0  0  0  0  0  0  0  0  0
    4.0645  142.8130   58.3366 H   0  0  0  0  0  0  0  0  0  0  0  0
    4.4517  144.5038   58.6841 H   0  0  0  0  0  0  0  0  0  0  0  0
    3.2252  143.1861   55.9290 C   0  0  0  0  0  0  0  0  0  0  0  0
    3.1563  141.8046   56.2678 C   0  0  0  0  0  0  0  0  0  0  0  0
    3.1044  140.6557   56.4228 N   0  0  0  0  0  0  0  0  0  0  0  0
    2.2521  141.2657   50.9761 C   0  0  0  0  0  0  0  0  0  0  0  0
    2.8241  140.6194   51.6420 H   0  0  0  0  0  0  0  0  0  0  0  0
    1.8893  140.9471   49.6014 C   0  0  0  0  0  0  0  0  0  0  0  0
    2.1730  140.0443   49.0812 H   0  0  0  0  0  0  0  0  0  0  0  0
  1  2  1  0
  2  3  1  0
  3  4  1  0
  4  5  1  0
  5  6  2  0
  5  7  1  0
  7  8  1  0
  7  9  1  0
  9 10  2  0
 10 11  1  0
 11 12  1  0
 12 13  1  0
 12 14  1  0
 14 15  2  0
 14 16  1  0
 16 17  1  0
 16 18  1  0
 16 19  1  0
 19 20  2  0
 20 21  1  0
 20 22  1  0
 22 23  1  0
 23 24  1  0
 24 25  1  0
 24 26  1  0
 24 27  1  0
 22 28  2  0
 28 29  1  0
 28 30  1  0
 30 31  1  0
 30 32  2  0
 32 33  1  0
 33 34  1  0
 34 35  1  0
 34 36  1  0
 34 37  1  0
 11 38  2  0
 38 39  1  0
 38 40  1  0
 40 41  1  0
 41 42  1  0
 41 43  1  0
 40 44  2  0
 44 45  1  0
 45 46  3  0
  4 47  2  0
 47 48  1  0
 47 49  1  0
 49 50  1  0
 49  2  2  0
 44  9  1  0
 32 19  1  0
M  END
>  <score>  (358) 
7.29337

$$$$

     RDKit          3D

 49 51  0  0  0  0  0  0  0  0999 V2000
   -0.7031  145.1076   50.8809 H   0  0  0  0  0  0  0  0  0  0  0  0
    0.1224  144.4944   51.2288 C   0  0  0  0  0  0  0  0  0  0  0  0
    0.2291  143.8017   52.8392 S   0  0  0  0  0  0  0  0  0  0  0  0
    1.8193  143.1430   52.4909 C   0  0  0  0  0  0  0  0  0  0  0  0
    2.7380  142.5752   53.5393 C   0  0  0  0  0  0  0  0  0  0  0  0
    3.6595  142.2337   53.0657 H   0  0  0  0  0  0  0  0  0  0  0  0
    2.2595  141.7269   54.0215 H   0  0  0  0  0  0  0  0  0  0  0  0
    3.1062  143.5967   54.5859 C   0  0  0  0  0  0  0  0  0  0  0  0
    3.2436  144.8631   54.1888 N   0  0  0  0  0  0  0  0  0  0  0  0
    3.6162  145.7638   55.0649 C   0  0  0  0  0  0  0  0  0  0  0  0
    3.6730  146.9822   54.4892 N   0  0  0  0  0  0  0  0  0  0  0  0
    3.3835  147.0135   53.5188 H   0  0  0  0  0  0  0  0  0  0  0  0
    3.6838  148.1347   55.2128 C   0  0  0  0  0  0  0  0  0  0  0  0
    3.7808  148.0982   56.4262 O   0  0  0  0  0  0  0  0  0  0  0  0
    3.6502  149.4699   54.4926 C   0  0  0  0  0  0  0  0  0  0  0  0
    4.4296  149.4954   53.7293 H   0  0  0  0  0  0  0  0  0  0  0  0
    3.8568  150.2426   55.2322 H   0  0  0  0  0  0  0  0  0  0  0  0
    2.3137  149.7704   53.8730 C   0  0  0  0  0  0  0  0  0  0  0  0
    1.4907  150.6677   54.5550 C   0  0  0  0  0  0  0  0  0  0  0  0
    1.8185  151.0927   55.4971 H   0  0  0  0  0  0  0  0  0  0  0  0
    0.2549  151.0511   54.0485 C   0  0  0  0  0  0  0  0  0  0  0  0
   -0.4632  151.9956   54.7252 O   0  0  0  0  0  0  0  0  0  0  0  0
   -1.4656  151.4001   55.5392 C   0  0  0  0  0  0  0  0  0  0  0  0
   -1.0133  150.6658   56.2121 H   0  0  0  0  0  0  0  0  0  0  0  0
   -1.9546  152.1747   56.1365 H   0  0  0  0  0  0  0  0  0  0  0  0
   -2.2129  150.9015   54.9132 H   0  0  0  0  0  0  0  0  0  0  0  0
   -0.2192  150.4619   52.8685 C   0  0  0  0  0  0  0  0  0  0  0  0
   -1.9555  150.9085   52.1904 Br  0  0  0  0  0  0  0  0  0  0  0  0
    0.5940  149.5460   52.1820 C   0  0  0  0  0  0  0  0  0  0  0  0
    0.2280  149.1085   51.2595 H   0  0  0  0  0  0  0  0  0  0  0  0
    1.8767  149.2052   52.6578 C   0  0  0  0  0  0  0  0  0  0  0  0
    2.7165  148.3487   51.9840 O   0  0  0  0  0  0  0  0  0  0  0  0
    2.0759  147.2958   51.2585 C   0  0  0  0  0  0  0  0  0  0  0  0
    2.8416  146.5980   50.9076 H   0  0  0  0  0  0  0  0  0  0  0  0
    1.5345  147.6944   50.3945 H   0  0  0  0  0  0  0  0  0  0  0  0
    1.3760  146.7517   51.9037 H   0  0  0  0  0  0  0  0  0  0  0  0
    3.8840  145.4897   56.3873 C   0  0  0  0  0  0  0  0  0  0  0  0
    4.2069  146.2587   57.0769 H   0  0  0  0  0  0  0  0  0  0  0  0
    3.7316  144.1925   56.7987 C   0  0  0  0  0  0  0  0  0  0  0  0
    3.9738  143.8783   58.0992 N   0  0  0  0  0  0  0  0  0  0  0  0
    4.4689  144.5684   58.6607 H   0  0  0  0  0  0  0  0  0  0  0  0
    4.1356  142.8973   58.3104 H   0  0  0  0  0  0  0  0  0  0  0  0
    3.3494  143.2174   55.9035 C   0  0  0  0  0  0  0  0  0  0  0  0
    3.2270  141.8493   56.2877 C   0  0  0  0  0  0  0  0  0  0  0  0
    3.1322  140.7062   56.4841 N   0  0  0  0  0  0  0  0  0  0  0  0
    2.2066  143.3855   51.1973 C   0  0  0  0  0  0  0  0  0  0  0  0
    3.1609  143.0686   50.7740 H   0  0  0  0  0  0  0  0  0  0  0  0
    1.2264  144.1930   50.4760 C   0  0  0  0  0  0  0  0  0  0  0  0
    1.3873  144.5573   49.4655 H   0  0  0  0  0  0  0  0  0  0  0  0
  1  2  1  0
  2  3  1  0
  3  4  1  0
  4  5  1  0
  5  6  1  0
  5  7  1  0
  5  8  1  0
  8  9  2  0
  9 10  1  0
 10 11  1  0
 11 12  1  0
 11 13  1  0
 13 14  2  0
 13 15  1  0
 15 16  1  0
 15 17  1  0
 15 18  1  0
 18 19  2  0
 19 20  1  0
 19 21  1  0
 21 22  1  0
 22 23  1  0
 23 24  1  0
 23 25  1  0
 23 26  1  0
 21 27  2  0
 27 28  1  0
 27 29  1  0
 29 30  1  0
 29 31  2  0
 31 32  1  0
 32 33  1  0
 33 34  1  0
 33 35  1  0
 33 36  1  0
 10 37  2  0
 37 38  1  0
 37 39  1  0
 39 40  1  0
 40 41  1  0
 40 42  1  0
 39 43  2  0
 43 44  1  0
 44 45  3  0
  4 46  2  0
 46 47  1  0
 46 48  1  0
 48 49  1  0
 48  2  2  0
 43  8  1  0
 31 18  1  0
M  END
>  <score>  (359) 
7.29477

$$$$

     RDKit          3D

 56 58  0  0  0  0  0  0  0  0999 V2000
    0.1315  141.1782   52.3405 H   0  0  0  0  0  0  0  0  0  0  0  0
    1.0489  141.7418   52.1775 C   0  0  0  0  0  0  0  0  0  0  0  0
    1.7500  142.2953   53.2528 C   0  0  0  0  0  0  0  0  0  0  0  0
    1.3994  142.1743   54.2709 H   0  0  0  0  0  0  0  0  0  0  0  0
    2.9056  143.0483   53.0533 C   0  0  0  0  0  0  0  0  0  0  0  0
    3.4270  143.8128   54.1954 C   0  0  0  0  0  0  0  0  0  0  0  0
    3.6338  145.1014   53.9350 N   0  0  0  0  0  0  0  0  0  0  0  0
    3.8312  145.9161   54.9340 C   0  0  0  0  0  0  0  0  0  0  0  0
    3.8285  147.1708   54.4774 N   0  0  0  0  0  0  0  0  0  0  0  0
    3.6701  147.2403   53.4871 H   0  0  0  0  0  0  0  0  0  0  0  0
    3.7076  148.2829   55.2466 C   0  0  0  0  0  0  0  0  0  0  0  0
    3.7724  148.2185   56.4609 O   0  0  0  0  0  0  0  0  0  0  0  0
    3.6302  149.6166   54.5360 C   0  0  0  0  0  0  0  0  0  0  0  0
    3.7851  150.4074   55.2676 H   0  0  0  0  0  0  0  0  0  0  0  0
    4.4307  149.6640   53.7970 H   0  0  0  0  0  0  0  0  0  0  0  0
    2.2965  149.8497   53.8869 C   0  0  0  0  0  0  0  0  0  0  0  0
    1.4511  150.7461   54.5445 C   0  0  0  0  0  0  0  0  0  0  0  0
    1.7675  151.1967   55.4812 H   0  0  0  0  0  0  0  0  0  0  0  0
    0.2079  151.0798   54.0205 C   0  0  0  0  0  0  0  0  0  0  0  0
   -0.5557  152.0006   54.6823 O   0  0  0  0  0  0  0  0  0  0  0  0
   -1.5309  151.3936   55.5309 C   0  0  0  0  0  0  0  0  0  0  0  0
   -1.0640  150.6543   56.1867 H   0  0  0  0  0  0  0  0  0  0  0  0
   -2.3011  150.8981   54.9327 H   0  0  0  0  0  0  0  0  0  0  0  0
   -2.0062  152.1567   56.1540 H   0  0  0  0  0  0  0  0  0  0  0  0
   -0.2239  150.4653   52.8357 C   0  0  0  0  0  0  0  0  0  0  0  0
   -1.9554  150.8519   52.1166 Br  0  0  0  0  0  0  0  0  0  0  0  0
    0.6080  149.5392   52.1882 C   0  0  0  0  0  0  0  0  0  0  0  0
    0.2641  149.0602   51.2786 H   0  0  0  0  0  0  0  0  0  0  0  0
    1.8811  149.2177   52.6923 C   0  0  0  0  0  0  0  0  0  0  0  0
    2.7108  148.3163   52.0557 O   0  0  0  0  0  0  0  0  0  0  0  0
    2.0643  147.3087   51.2555 C   0  0  0  0  0  0  0  0  0  0  0  0
    1.3474  146.7439   51.8609 H   0  0  0  0  0  0  0  0  0  0  0  0
    1.5348  147.7507   50.4047 H   0  0  0  0  0  0  0  0  0  0  0  0
    2.8086  146.6069   50.8659 H   0  0  0  0  0  0  0  0  0  0  0  0
    3.9113  145.5364   56.2385 C   0  0  0  0  0  0  0  0  0  0  0  0
    4.0784  146.2443   57.0331 H   0  0  0  0  0  0  0  0  0  0  0  0
    3.7474  144.2083   56.4977 C   0  0  0  0  0  0  0  0  0  0  0  0
    3.8317  143.8135   57.7820 N   0  0  0  0  0  0  0  0  0  0  0  0
    3.9989  142.8230   57.9426 H   0  0  0  0  0  0  0  0  0  0  0  0
    4.2472  144.4792   58.4235 H   0  0  0  0  0  0  0  0  0  0  0  0
    3.4730  143.3119   55.4930 C   0  0  0  0  0  0  0  0  0  0  0  0
    3.2257  141.9307   55.7598 C   0  0  0  0  0  0  0  0  0  0  0  0
    3.0378  140.8008   55.9658 N   0  0  0  0  0  0  0  0  0  0  0  0
    3.4137  143.1611   51.7418 C   0  0  0  0  0  0  0  0  0  0  0  0
    4.3132  143.7337   51.5546 H   0  0  0  0  0  0  0  0  0  0  0  0
    2.7804  142.5369   50.6610 C   0  0  0  0  0  0  0  0  0  0  0  0
    3.3906  142.5245   49.4050 N   0  0  0  0  0  0  0  0  0  0  0  0
    4.3047  142.9599   49.3107 H   0  0  0  0  0  0  0  0  0  0  0  0
    2.9755  141.7285   48.3477 C   0  0  0  0  0  0  0  0  0  0  0  0
    1.9888  141.0170   48.4375 O   0  0  0  0  0  0  0  0  0  0  0  0
    3.7522  141.6610   47.0418 C   0  0  0  0  0  0  0  0  0  0  0  0
    4.8285  141.6232   47.2284 H   0  0  0  0  0  0  0  0  0  0  0  0
    3.5313  142.5303   46.4159 H   0  0  0  0  0  0  0  0  0  0  0  0
    3.4537  140.7549   46.4995 H   0  0  0  0  0  0  0  0  0  0  0  0
    1.5548  141.8925   50.8859 C   0  0  0  0  0  0  0  0  0  0  0  0
    0.9939  141.4895   50.0524 H   0  0  0  0  0  0  0  0  0  0  0  0
  1  2  1  0
  2  3  2  0
  3  4  1  0
  3  5  1  0
  5  6  1  0
  6  7  2  0
  7  8  1  0
  8  9  1  0
  9 10  1  0
  9 11  1  0
 11 12  2  0
 11 13  1  0
 13 14  1  0
 13 15  1  0
 13 16  1  0
 16 17  2  0
 17 18  1  0
 17 19  1  0
 19 20  1  0
 20 21  1  0
 21 22  1  0
 21 23  1  0
 21 24  1  0
 19 25  2  0
 25 26  1  0
 25 27  1  0
 27 28  1  0
 27 29  2  0
 29 30  1  0
 30 31  1  0
 31 32  1  0
 31 33  1  0
 31 34  1  0
  8 35  2  0
 35 36  1  0
 35 37  1  0
 37 38  1  0
 38 39  1  0
 38 40  1  0
 37 41  2  0
 41 42  1  0
 42 43  3  0
  5 44  2  0
 44 45  1  0
 44 46  1  0
 46 47  1  0
 47 48  1  0
 47 49  1  0
 49 50  2  0
 49 51  1  0
 51 52  1  0
 51 53  1  0
 51 54  1  0
 46 55  2  0
 55 56  1  0
 55  2  1  0
 41  6  1  0
 29 16  1  0
M  END
>  <score>  (360) 
7.29624

$$$$

     RDKit          3D

 52 54  0  0  0  0  0  0  0  0999 V2000
    1.0993  140.7138   48.3215 H   0  0  0  0  0  0  0  0  0  0  0  0
    1.1364  141.3501   49.2023 C   0  0  0  0  0  0  0  0  0  0  0  0
    1.4448  140.7663   50.3676 N   0  0  0  0  0  0  0  0  0  0  0  0
    1.5260  141.4896   51.4879 C   0  0  0  0  0  0  0  0  0  0  0  0
    1.8012  141.0270   52.4366 H   0  0  0  0  0  0  0  0  0  0  0  0
    1.3239  142.8535   51.4700 C   0  0  0  0  0  0  0  0  0  0  0  0
    1.5249  143.5523   52.7024 C   0  0  0  0  0  0  0  0  0  0  0  0
    1.1031  144.6883   52.8537 O   0  0  0  0  0  0  0  0  0  0  0  0
    2.2227  142.9353   53.7125 N   0  0  0  0  0  0  0  0  0  0  0  0
    2.5895  142.0090   53.5698 H   0  0  0  0  0  0  0  0  0  0  0  0
    2.8318  143.6978   54.6637 C   0  0  0  0  0  0  0  0  0  0  0  0
    3.0272  144.9440   54.3006 N   0  0  0  0  0  0  0  0  0  0  0  0
    3.5433  145.7698   55.1619 C   0  0  0  0  0  0  0  0  0  0  0  0
    3.6725  146.9611   54.5563 N   0  0  0  0  0  0  0  0  0  0  0  0
    3.3952  146.9577   53.5858 H   0  0  0  0  0  0  0  0  0  0  0  0
    3.7114  148.1444   55.2189 C   0  0  0  0  0  0  0  0  0  0  0  0
    3.8151  148.1637   56.4337 O   0  0  0  0  0  0  0  0  0  0  0  0
    3.6973  149.4357   54.4236 C   0  0  0  0  0  0  0  0  0  0  0  0
    3.9512  150.2241   55.1144 H   0  0  0  0  0  0  0  0  0  0  0  0
    4.4372  149.3997   53.6182 H   0  0  0  0  0  0  0  0  0  0  0  0
    2.3508  149.7708   53.8623 C   0  0  0  0  0  0  0  0  0  0  0  0
    1.5574  150.6751   54.5697 C   0  0  0  0  0  0  0  0  0  0  0  0
    1.9205  151.1177   55.4907 H   0  0  0  0  0  0  0  0  0  0  0  0
    0.3042  151.0502   54.0965 C   0  0  0  0  0  0  0  0  0  0  0  0
   -0.4038  151.9839   54.8021 O   0  0  0  0  0  0  0  0  0  0  0  0
   -1.4329  151.4049   55.6023 C   0  0  0  0  0  0  0  0  0  0  0  0
   -1.9424  152.1892   56.1683 H   0  0  0  0  0  0  0  0  0  0  0  0
   -2.1630  150.8883   54.9736 H   0  0  0  0  0  0  0  0  0  0  0  0
   -1.0082  150.6900   56.3091 H   0  0  0  0  0  0  0  0  0  0  0  0
   -0.1847  150.4808   52.9077 C   0  0  0  0  0  0  0  0  0  0  0  0
   -1.9192  150.9630   52.2438 Br  0  0  0  0  0  0  0  0  0  0  0  0
    0.6201  149.5801   52.1852 C   0  0  0  0  0  0  0  0  0  0  0  0
    0.2684  149.1699   51.2435 H   0  0  0  0  0  0  0  0  0  0  0  0
    1.8981  149.2263   52.6528 C   0  0  0  0  0  0  0  0  0  0  0  0
    2.7447  148.3898   51.9653 O   0  0  0  0  0  0  0  0  0  0  0  0
    2.1298  147.3006   51.2751 C   0  0  0  0  0  0  0  0  0  0  0  0
    1.4046  146.7997   51.9236 H   0  0  0  0  0  0  0  0  0  0  0  0
    2.8975  146.5746   50.9891 H   0  0  0  0  0  0  0  0  0  0  0  0
    1.6264  147.6515   50.3700 H   0  0  0  0  0  0  0  0  0  0  0  0
    3.8907  145.4302   56.4417 C   0  0  0  0  0  0  0  0  0  0  0  0
    4.2891  146.1465   57.1416 H   0  0  0  0  0  0  0  0  0  0  0  0
    3.7563  144.1136   56.7742 C   0  0  0  0  0  0  0  0  0  0  0  0
    4.1771  143.7365   58.0005 N   0  0  0  0  0  0  0  0  0  0  0  0
    4.4578  144.4584   58.6626 H   0  0  0  0  0  0  0  0  0  0  0  0
    4.0556  142.7686   58.2930 H   0  0  0  0  0  0  0  0  0  0  0  0
    3.2422  143.2055   55.8803 C   0  0  0  0  0  0  0  0  0  0  0  0
    3.1359  141.8209   56.1948 C   0  0  0  0  0  0  0  0  0  0  0  0
    3.0682  140.6774   56.3929 N   0  0  0  0  0  0  0  0  0  0  0  0
    0.9573  143.4890   50.2810 C   0  0  0  0  0  0  0  0  0  0  0  0
    0.7422  144.5540   50.2593 H   0  0  0  0  0  0  0  0  0  0  0  0
    0.8270  142.7123   49.1339 C   0  0  0  0  0  0  0  0  0  0  0  0
    0.4804  143.1693   48.2111 H   0  0  0  0  0  0  0  0  0  0  0  0
  1  2  1  0
  2  3  2  0
  3  4  1  0
  4  5  1  0
  4  6  2  0
  6  7  1  0
  7  8  2  0
  7  9  1  0
  9 10  1  0
  9 11  1  0
 11 12  2  0
 12 13  1  0
 13 14  1  0
 14 15  1  0
 14 16  1  0
 16 17  2  0
 16 18  1  0
 18 19  1  0
 18 20  1  0
 18 21  1  0
 21 22  2  0
 22 23  1  0
 22 24  1  0
 24 25  1  0
 25 26  1  0
 26 27  1  0
 26 28  1  0
 26 29  1  0
 24 30  2  0
 30 31  1  0
 30 32  1  0
 32 33  1  0
 32 34  2  0
 34 35  1  0
 35 36  1  0
 36 37  1  0
 36 38  1  0
 36 39  1  0
 13 40  2  0
 40 41  1  0
 40 42  1  0
 42 43  1  0
 43 44  1  0
 43 45  1  0
 42 46  2  0
 46 47  1  0
 47 48  3  0
  6 49  1  0
 49 50  1  0
 49 51  2  0
 51 52  1  0
 51  2  1  0
 46 11  1  0
 34 21  1  0
M  END
>  <score>  (361) 
7.29677

$$$$

     RDKit          3D

 56 59  0  0  0  0  0  0  0  0999 V2000
    6.7288  140.7366   48.9137 H   0  0  0  0  0  0  0  0  0  0  0  0
    6.0740  140.7012   49.7750 C   0  0  0  0  0  0  0  0  0  0  0  0
    5.9698  139.5169   50.5210 C   0  0  0  0  0  0  0  0  0  0  0  0
    6.5509  138.6523   50.2036 H   0  0  0  0  0  0  0  0  0  0  0  0
    5.1557  139.4573   51.6518 C   0  0  0  0  0  0  0  0  0  0  0  0
    5.1124  138.5424   52.2399 H   0  0  0  0  0  0  0  0  0  0  0  0
    4.4321  140.6093   52.0083 C   0  0  0  0  0  0  0  0  0  0  0  0
    4.5605  141.7886   51.2715 C   0  0  0  0  0  0  0  0  0  0  0  0
    5.3829  141.8468   50.1418 C   0  0  0  0  0  0  0  0  0  0  0  0
    5.4781  142.7494   49.5339 H   0  0  0  0  0  0  0  0  0  0  0  0
    3.7256  142.7665   51.9301 C   0  0  0  0  0  0  0  0  0  0  0  0
    3.6603  143.9567   51.6604 O   0  0  0  0  0  0  0  0  0  0  0  0
    2.9784  142.1702   52.9259 N   0  0  0  0  0  0  0  0  0  0  0  0
    2.0433  142.8985   53.8119 C   0  0  0  0  0  0  0  0  0  0  0  0
    1.3723  143.5257   53.2112 H   0  0  0  0  0  0  0  0  0  0  0  0
    1.4373  142.1836   54.3617 H   0  0  0  0  0  0  0  0  0  0  0  0
    2.6939  143.8049   54.8385 C   0  0  0  0  0  0  0  0  0  0  0  0
    2.8607  145.0738   54.4796 N   0  0  0  0  0  0  0  0  0  0  0  0
    3.5068  145.8694   55.2904 C   0  0  0  0  0  0  0  0  0  0  0  0
    3.7351  147.0142   54.6284 N   0  0  0  0  0  0  0  0  0  0  0  0
    3.4233  146.9884   53.6684 H   0  0  0  0  0  0  0  0  0  0  0  0
    3.7402  148.2120   55.2597 C   0  0  0  0  0  0  0  0  0  0  0  0
    3.8066  148.2588   56.4754 O   0  0  0  0  0  0  0  0  0  0  0  0
    3.6955  149.4836   54.4358 C   0  0  0  0  0  0  0  0  0  0  0  0
    3.9347  150.2980   55.1037 H   0  0  0  0  0  0  0  0  0  0  0  0
    4.4386  149.4398   53.6364 H   0  0  0  0  0  0  0  0  0  0  0  0
    2.3428  149.7815   53.8651 C   0  0  0  0  0  0  0  0  0  0  0  0
    1.5420  150.6826   54.5663 C   0  0  0  0  0  0  0  0  0  0  0  0
    1.9022  151.1255   55.4896 H   0  0  0  0  0  0  0  0  0  0  0  0
    0.2910  151.0511   54.0862 C   0  0  0  0  0  0  0  0  0  0  0  0
   -0.4178  151.9865   54.7869 O   0  0  0  0  0  0  0  0  0  0  0  0
   -1.4422  151.4047   55.5912 C   0  0  0  0  0  0  0  0  0  0  0  0
   -1.9503  152.1855   56.1647 H   0  0  0  0  0  0  0  0  0  0  0  0
   -2.1757  150.8906   54.9640 H   0  0  0  0  0  0  0  0  0  0  0  0
   -1.0119  150.6846   56.2901 H   0  0  0  0  0  0  0  0  0  0  0  0
   -0.1901  150.4774   52.8973 C   0  0  0  0  0  0  0  0  0  0  0  0
   -1.9249  150.9467   52.2331 Br  0  0  0  0  0  0  0  0  0  0  0  0
    0.6169  149.5717   52.1863 C   0  0  0  0  0  0  0  0  0  0  0  0
    0.2640  149.1543   51.2496 H   0  0  0  0  0  0  0  0  0  0  0  0
    1.8965  149.2242   52.6566 C   0  0  0  0  0  0  0  0  0  0  0  0
    2.7474  148.3897   51.9715 O   0  0  0  0  0  0  0  0  0  0  0  0
    2.1306  147.3063   51.2715 C   0  0  0  0  0  0  0  0  0  0  0  0
    1.5766  147.6709   50.4018 H   0  0  0  0  0  0  0  0  0  0  0  0
    2.9020  146.6096   50.9290 H   0  0  0  0  0  0  0  0  0  0  0  0
    1.4468  146.7650   51.9332 H   0  0  0  0  0  0  0  0  0  0  0  0
    3.9287  145.5221   56.5509 C   0  0  0  0  0  0  0  0  0  0  0  0
    4.4260  146.2203   57.2060 H   0  0  0  0  0  0  0  0  0  0  0  0
    3.7623  144.2128   56.9099 C   0  0  0  0  0  0  0  0  0  0  0  0
    4.2775  143.7909   58.0898 N   0  0  0  0  0  0  0  0  0  0  0  0
    4.0748  142.8361   58.3795 H   0  0  0  0  0  0  0  0  0  0  0  0
    4.5014  144.4929   58.7916 H   0  0  0  0  0  0  0  0  0  0  0  0
    3.1597  143.3220   56.0529 C   0  0  0  0  0  0  0  0  0  0  0  0
    3.1083  141.9247   56.3380 C   0  0  0  0  0  0  0  0  0  0  0  0
    3.0866  140.7743   56.4979 N   0  0  0  0  0  0  0  0  0  0  0  0
    3.4576  140.8822   53.0603 C   0  0  0  0  0  0  0  0  0  0  0  0
    3.0428  140.0915   53.8966 O   0  0  0  0  0  0  0  0  0  0  0  0
  1  2  1  0
  2  3  2  0
  3  4  1  0
  3  5  1  0
  5  6  1  0
  5  7  2  0
  7  8  1  0
  8  9  2  0
  9 10  1  0
  8 11  1  0
 11 12  2  0
 11 13  1  0
 13 14  1  0
 14 15  1  0
 14 16  1  0
 14 17  1  0
 17 18  2  0
 18 19  1  0
 19 20  1  0
 20 21  1  0
 20 22  1  0
 22 23  2  0
 22 24  1  0
 24 25  1  0
 24 26  1  0
 24 27  1  0
 27 28  2  0
 28 29  1  0
 28 30  1  0
 30 31  1  0
 31 32  1  0
 32 33  1  0
 32 34  1  0
 32 35  1  0
 30 36  2  0
 36 37  1  0
 36 38  1  0
 38 39  1  0
 38 40  2  0
 40 41  1  0
 41 42  1  0
 42 43  1  0
 42 44  1  0
 42 45  1  0
 19 46  2  0
 46 47  1  0
 46 48  1  0
 48 49  1  0
 49 50  1  0
 49 51  1  0
 48 52  2  0
 52 53  1  0
 53 54  3  0
 13 55  1  0
 55 56  2  0
  9  2  1  0
 52 17  1  0
 55  7  1  0
 40 27  1  0
M  END
>  <score>  (362) 
7.29847

$$$$

     RDKit          3D

 51 53  0  0  0  0  0  0  0  0999 V2000
    1.3892  142.2094   54.1242 H   0  0  0  0  0  0  0  0  0  0  0  0
    1.7894  142.2986   53.1266 C   0  0  0  0  0  0  0  0  0  0  0  0
    2.9489  143.0550   52.9335 C   0  0  0  0  0  0  0  0  0  0  0  0
    3.4324  143.8639   54.1232 C   0  0  0  0  0  0  0  0  0  0  0  0
    3.6380  145.1827   53.9490 N   0  0  0  0  0  0  0  0  0  0  0  0
    3.8534  145.9662   54.9798 C   0  0  0  0  0  0  0  0  0  0  0  0
    3.8765  147.2177   54.5348 N   0  0  0  0  0  0  0  0  0  0  0  0
    3.7479  147.2583   53.5392 H   0  0  0  0  0  0  0  0  0  0  0  0
    3.7225  148.3394   55.2853 C   0  0  0  0  0  0  0  0  0  0  0  0
    3.7572  148.2766   56.5003 O   0  0  0  0  0  0  0  0  0  0  0  0
    3.6175  149.6579   54.5429 C   0  0  0  0  0  0  0  0  0  0  0  0
    3.7567  150.4603   55.2623 H   0  0  0  0  0  0  0  0  0  0  0  0
    4.4121  149.7091   53.7952 H   0  0  0  0  0  0  0  0  0  0  0  0
    2.2784  149.8658   53.8967 C   0  0  0  0  0  0  0  0  0  0  0  0
    1.4276  150.7730   54.5382 C   0  0  0  0  0  0  0  0  0  0  0  0
    1.7429  151.2526   55.4620 H   0  0  0  0  0  0  0  0  0  0  0  0
    0.1803  151.0859   54.0104 C   0  0  0  0  0  0  0  0  0  0  0  0
   -0.5965  152.0050   54.6600 O   0  0  0  0  0  0  0  0  0  0  0  0
   -1.5540  151.3911   55.5233 C   0  0  0  0  0  0  0  0  0  0  0  0
   -2.0165  152.1569   56.1501 H   0  0  0  0  0  0  0  0  0  0  0  0
   -2.3333  150.8939   54.9369 H   0  0  0  0  0  0  0  0  0  0  0  0
   -1.0785  150.6546   56.1776 H   0  0  0  0  0  0  0  0  0  0  0  0
   -0.2376  150.4571   52.8270 C   0  0  0  0  0  0  0  0  0  0  0  0
   -1.9665  150.8312   52.0942 Br  0  0  0  0  0  0  0  0  0  0  0  0
    0.6037  149.5273   52.1920 C   0  0  0  0  0  0  0  0  0  0  0  0
    0.2788  149.0341   51.2818 H   0  0  0  0  0  0  0  0  0  0  0  0
    1.8718  149.2140   52.7096 C   0  0  0  0  0  0  0  0  0  0  0  0
    2.7052  148.3070   52.0856 O   0  0  0  0  0  0  0  0  0  0  0  0
    2.0629  147.3182   51.2589 C   0  0  0  0  0  0  0  0  0  0  0  0
    1.3394  146.7475   51.8530 H   0  0  0  0  0  0  0  0  0  0  0  0
    2.8087  146.6214   50.8603 H   0  0  0  0  0  0  0  0  0  0  0  0
    1.5424  147.7805   50.4114 H   0  0  0  0  0  0  0  0  0  0  0  0
    3.9266  145.5420   56.2638 C   0  0  0  0  0  0  0  0  0  0  0  0
    4.0900  146.2217   57.0831 H   0  0  0  0  0  0  0  0  0  0  0  0
    3.7645  144.2102   56.4726 C   0  0  0  0  0  0  0  0  0  0  0  0
    3.8650  143.8125   57.7669 N   0  0  0  0  0  0  0  0  0  0  0  0
    4.2282  144.4998   58.4235 H   0  0  0  0  0  0  0  0  0  0  0  0
    4.0122  142.8275   57.9690 H   0  0  0  0  0  0  0  0  0  0  0  0
    3.4810  143.3410   55.4342 C   0  0  0  0  0  0  0  0  0  0  0  0
    3.2409  141.9677   55.7335 C   0  0  0  0  0  0  0  0  0  0  0  0
    3.0376  140.8484   55.9843 N   0  0  0  0  0  0  0  0  0  0  0  0
    3.4522  143.1570   51.6695 N   0  0  0  0  0  0  0  0  0  0  0  0
    2.8385  142.5749   50.6000 C   0  0  0  0  0  0  0  0  0  0  0  0
    3.4392  142.5763   49.1902 C   0  0  0  0  0  0  0  0  0  0  0  0
    2.4931  142.9405   48.2730 F   0  0  0  0  0  0  0  0  0  0  0  0
    3.8466  141.3066   48.8943 F   0  0  0  0  0  0  0  0  0  0  0  0
    4.5034  143.4181   49.0774 F   0  0  0  0  0  0  0  0  0  0  0  0
    1.6261  141.8927   50.7923 C   0  0  0  0  0  0  0  0  0  0  0  0
    1.0669  141.5020   49.9515 H   0  0  0  0  0  0  0  0  0  0  0  0
    1.1066  141.7241   52.0625 C   0  0  0  0  0  0  0  0  0  0  0  0
    0.1831  141.1696   52.2135 H   0  0  0  0  0  0  0  0  0  0  0  0
  1  2  1  0
  2  3  2  0
  3  4  1  0
  4  5  2  0
  5  6  1  0
  6  7  1  0
  7  8  1  0
  7  9  1  0
  9 10  2  0
  9 11  1  0
 11 12  1  0
 11 13  1  0
 11 14  1  0
 14 15  2  0
 15 16  1  0
 15 17  1  0
 17 18  1  0
 18 19  1  0
 19 20  1  0
 19 21  1  0
 19 22  1  0
 17 23  2  0
 23 24  1  0
 23 25  1  0
 25 26  1  0
 25 27  2  0
 27 28  1  0
 28 29  1  0
 29 30  1  0
 29 31  1  0
 29 32  1  0
  6 33  2  0
 33 34  1  0
 33 35  1  0
 35 36  1  0
 36 37  1  0
 36 38  1  0
 35 39  2  0
 39 40  1  0
 40 41  3  0
  3 42  1  0
 42 43  2  0
 43 44  1  0
 44 45  1  0
 44 46  1  0
 44 47  1  0
 43 48  1  0
 48 49  1  0
 48 50  2  0
 50 51  1  0
 50  2  1  0
 39  4  1  0
 27 14  1  0
M  END
>  <score>  (363) 
7.29891

$$$$

     RDKit          3D

 49 51  0  0  0  0  0  0  0  0999 V2000
    2.0529  143.3449   48.5153 H   0  0  0  0  0  0  0  0  0  0  0  0
    2.1205  143.2375   49.5954 C   0  0  0  0  0  0  0  0  0  0  0  0
    1.1654  142.5536   50.2400 N   0  0  0  0  0  0  0  0  0  0  0  0
    1.2660  142.4375   51.5820 C   0  0  0  0  0  0  0  0  0  0  0  0
    0.4889  141.8604   52.0693 H   0  0  0  0  0  0  0  0  0  0  0  0
    2.3033  143.0057   52.3660 C   0  0  0  0  0  0  0  0  0  0  0  0
    2.3388  142.7873   53.7386 O   0  0  0  0  0  0  0  0  0  0  0  0
    2.9348  143.6747   54.6178 C   0  0  0  0  0  0  0  0  0  0  0  0
    3.0971  144.9593   54.2915 N   0  0  0  0  0  0  0  0  0  0  0  0
    3.5602  145.7837   55.2069 C   0  0  0  0  0  0  0  0  0  0  0  0
    3.7098  146.9850   54.6339 N   0  0  0  0  0  0  0  0  0  0  0  0
    3.5121  146.9375   53.6487 H   0  0  0  0  0  0  0  0  0  0  0  0
    3.7466  148.1970   55.2622 C   0  0  0  0  0  0  0  0  0  0  0  0
    3.8503  148.2503   56.4786 O   0  0  0  0  0  0  0  0  0  0  0  0
    3.7247  149.4673   54.4012 C   0  0  0  0  0  0  0  0  0  0  0  0
    3.9973  150.3426   54.9813 H   0  0  0  0  0  0  0  0  0  0  0  0
    4.4118  149.3563   53.5602 H   0  0  0  0  0  0  0  0  0  0  0  0
    2.3798  149.7819   53.8593 C   0  0  0  0  0  0  0  0  0  0  0  0
    1.5958  150.6890   54.5729 C   0  0  0  0  0  0  0  0  0  0  0  0
    1.9894  151.1450   55.4718 H   0  0  0  0  0  0  0  0  0  0  0  0
    0.3335  151.0588   54.1312 C   0  0  0  0  0  0  0  0  0  0  0  0
   -0.3794  151.9766   54.8605 O   0  0  0  0  0  0  0  0  0  0  0  0
   -1.4265  151.4041   55.6474 C   0  0  0  0  0  0  0  0  0  0  0  0
   -1.9420  152.2017   56.1912 H   0  0  0  0  0  0  0  0  0  0  0  0
   -2.1528  150.8752   55.0214 H   0  0  0  0  0  0  0  0  0  0  0  0
   -1.0138  150.7024   56.3743 H   0  0  0  0  0  0  0  0  0  0  0  0
   -0.1453  150.4994   52.9344 C   0  0  0  0  0  0  0  0  0  0  0  0
   -1.8710  150.9848   52.2768 Br  0  0  0  0  0  0  0  0  0  0  0  0
    0.6580  149.6052   52.1943 C   0  0  0  0  0  0  0  0  0  0  0  0
    0.3062  149.2008   51.2508 H   0  0  0  0  0  0  0  0  0  0  0  0
    1.9340  149.2375   52.6489 C   0  0  0  0  0  0  0  0  0  0  0  0
    2.7758  148.4019   51.9483 O   0  0  0  0  0  0  0  0  0  0  0  0
    2.1666  147.2953   51.2807 C   0  0  0  0  0  0  0  0  0  0  0  0
    1.4980  146.7518   51.9581 H   0  0  0  0  0  0  0  0  0  0  0  0
    1.6005  147.6388   50.4097 H   0  0  0  0  0  0  0  0  0  0  0  0
    2.9535  146.6099   50.9469 H   0  0  0  0  0  0  0  0  0  0  0  0
    3.8909  145.4279   56.4834 C   0  0  0  0  0  0  0  0  0  0  0  0
    4.2986  146.1189   57.2066 H   0  0  0  0  0  0  0  0  0  0  0  0
    3.7503  144.1136   56.7837 C   0  0  0  0  0  0  0  0  0  0  0  0
    4.1397  143.7271   58.0062 N   0  0  0  0  0  0  0  0  0  0  0  0
    4.4912  144.4351   58.6461 H   0  0  0  0  0  0  0  0  0  0  0  0
    4.0547  142.7488   58.2749 H   0  0  0  0  0  0  0  0  0  0  0  0
    3.2711  143.2110   55.8779 C   0  0  0  0  0  0  0  0  0  0  0  0
    3.1351  141.8355   56.2160 C   0  0  0  0  0  0  0  0  0  0  0  0
    3.0320  140.7007   56.4492 N   0  0  0  0  0  0  0  0  0  0  0  0
    3.3012  143.6989   51.6759 C   0  0  0  0  0  0  0  0  0  0  0  0
    4.1476  144.1139   52.2144 H   0  0  0  0  0  0  0  0  0  0  0  0
    3.1964  143.8062   50.2814 C   0  0  0  0  0  0  0  0  0  0  0  0
    3.9475  144.3200   49.7004 H   0  0  0  0  0  0  0  0  0  0  0  0
  1  2  1  0
  2  3  2  0
  3  4  1  0
  4  5  1  0
  4  6  2  0
  6  7  1  0
  7  8  1  0
  8  9  2  0
  9 10  1  0
 10 11  1  0
 11 12  1  0
 11 13  1  0
 13 14  2  0
 13 15  1  0
 15 16  1  0
 15 17  1  0
 15 18  1  0
 18 19  2  0
 19 20  1  0
 19 21  1  0
 21 22  1  0
 22 23  1  0
 23 24  1  0
 23 25  1  0
 23 26  1  0
 21 27  2  0
 27 28  1  0
 27 29  1  0
 29 30  1  0
 29 31  2  0
 31 32  1  0
 32 33  1  0
 33 34  1  0
 33 35  1  0
 33 36  1  0
 10 37  2  0
 37 38  1  0
 37 39  1  0
 39 40  1  0
 40 41  1  0
 40 42  1  0
 39 43  2  0
 43 44  1  0
 44 45  3  0
  6 46  1  0
 46 47  1  0
 46 48  2  0
 48 49  1  0
 48  2  1  0
 43  8  1  0
 31 18  1  0
M  END
>  <score>  (364) 
7.29934

$$$$

     RDKit          3D

 53 55  0  0  0  0  0  0  0  0999 V2000
    1.4090  140.7773   47.9057 H   0  0  0  0  0  0  0  0  0  0  0  0
    1.5374  141.2615   48.8692 C   0  0  0  0  0  0  0  0  0  0  0  0
    0.6089  142.1999   49.2812 C   0  0  0  0  0  0  0  0  0  0  0  0
   -0.2168  142.4209   48.6198 H   0  0  0  0  0  0  0  0  0  0  0  0
    0.7495  142.8432   50.5121 C   0  0  0  0  0  0  0  0  0  0  0  0
    0.0647  143.6212   50.8589 H   0  0  0  0  0  0  0  0  0  0  0  0
    1.7924  142.5006   51.3722 C   0  0  0  0  0  0  0  0  0  0  0  0
    1.8529  143.2270   52.6367 C   0  0  0  0  0  0  0  0  0  0  0  0
    1.2354  144.2757   52.7557 O   0  0  0  0  0  0  0  0  0  0  0  0
    2.5305  142.7750   53.7366 N   0  0  0  0  0  0  0  0  0  0  0  0
    2.8850  141.8342   53.7730 H   0  0  0  0  0  0  0  0  0  0  0  0
    2.9048  143.6550   54.7056 C   0  0  0  0  0  0  0  0  0  0  0  0
    3.0229  144.9038   54.3072 N   0  0  0  0  0  0  0  0  0  0  0  0
    3.5049  145.7591   55.1605 C   0  0  0  0  0  0  0  0  0  0  0  0
    3.6519  146.9346   54.5331 N   0  0  0  0  0  0  0  0  0  0  0  0
    3.3579  146.9306   53.5650 H   0  0  0  0  0  0  0  0  0  0  0  0
    3.7084  148.1160   55.1903 C   0  0  0  0  0  0  0  0  0  0  0  0
    3.7995  148.1316   56.4030 O   0  0  0  0  0  0  0  0  0  0  0  0
    3.6876  149.4236   54.4250 C   0  0  0  0  0  0  0  0  0  0  0  0
    4.4272  149.4160   53.6199 H   0  0  0  0  0  0  0  0  0  0  0  0
    3.9466  150.1931   55.1407 H   0  0  0  0  0  0  0  0  0  0  0  0
    2.3361  149.7568   53.8723 C   0  0  0  0  0  0  0  0  0  0  0  0
    1.5514  150.6683   54.5739 C   0  0  0  0  0  0  0  0  0  0  0  0
    1.9183  151.1177   55.4935 H   0  0  0  0  0  0  0  0  0  0  0  0
    0.3023  151.0395   54.0900 C   0  0  0  0  0  0  0  0  0  0  0  0
   -0.3951  151.9799   54.7904 O   0  0  0  0  0  0  0  0  0  0  0  0
   -1.4249  151.4051   55.5921 C   0  0  0  0  0  0  0  0  0  0  0  0
   -2.1532  150.8901   54.9609 H   0  0  0  0  0  0  0  0  0  0  0  0
   -1.9362  152.1889   56.1588 H   0  0  0  0  0  0  0  0  0  0  0  0
   -1.0052  150.6851   56.2976 H   0  0  0  0  0  0  0  0  0  0  0  0
   -0.1942  150.4717   52.9030 C   0  0  0  0  0  0  0  0  0  0  0  0
   -1.9281  150.9672   52.2507 Br  0  0  0  0  0  0  0  0  0  0  0  0
    0.6083  149.5703   52.1821 C   0  0  0  0  0  0  0  0  0  0  0  0
    0.2716  149.1623   51.2337 H   0  0  0  0  0  0  0  0  0  0  0  0
    1.8834  149.2181   52.6594 C   0  0  0  0  0  0  0  0  0  0  0  0
    2.7419  148.3965   51.9720 O   0  0  0  0  0  0  0  0  0  0  0  0
    2.1314  147.3084   51.2781 C   0  0  0  0  0  0  0  0  0  0  0  0
    1.6106  147.6602   50.3843 H   0  0  0  0  0  0  0  0  0  0  0  0
    1.4191  146.8007   51.9331 H   0  0  0  0  0  0  0  0  0  0  0  0
    2.8943  146.5856   50.9741 H   0  0  0  0  0  0  0  0  0  0  0  0
    3.8603  145.4465   56.4497 C   0  0  0  0  0  0  0  0  0  0  0  0
    4.2807  146.1648   57.1311 H   0  0  0  0  0  0  0  0  0  0  0  0
    3.7326  144.1411   56.8178 C   0  0  0  0  0  0  0  0  0  0  0  0
    4.1776  143.7683   58.0236 N   0  0  0  0  0  0  0  0  0  0  0  0
    4.4664  144.4893   58.6773 H   0  0  0  0  0  0  0  0  0  0  0  0
    4.0639  142.7973   58.3041 H   0  0  0  0  0  0  0  0  0  0  0  0
    3.2483  143.2072   55.9498 C   0  0  0  0  0  0  0  0  0  0  0  0
    3.1559  141.8160   56.2473 C   0  0  0  0  0  0  0  0  0  0  0  0
    3.0934  140.6684   56.4193 N   0  0  0  0  0  0  0  0  0  0  0  0
    2.7344  141.5421   50.9609 C   0  0  0  0  0  0  0  0  0  0  0  0
    3.5999  141.2789   51.5659 H   0  0  0  0  0  0  0  0  0  0  0  0
    2.6142  140.9666   49.6974 C   0  0  0  0  0  0  0  0  0  0  0  0
    3.3685  140.2755   49.3537 H   0  0  0  0  0  0  0  0  0  0  0  0
  1  2  1  0
  2  3  2  0
  3  4  1  0
  3  5  1  0
  5  6  1  0
  5  7  2  0
  7  8  1  0
  8  9  2  0
  8 10  1  0
 10 11  1  0
 10 12  1  0
 12 13  2  0
 13 14  1  0
 14 15  1  0
 15 16  1  0
 15 17  1  0
 17 18  2  0
 17 19  1  0
 19 20  1  0
 19 21  1  0
 19 22  1  0
 22 23  2  0
 23 24  1  0
 23 25  1  0
 25 26  1  0
 26 27  1  0
 27 28  1  0
 27 29  1  0
 27 30  1  0
 25 31  2  0
 31 32  1  0
 31 33  1  0
 33 34  1  0
 33 35  2  0
 35 36  1  0
 36 37  1  0
 37 38  1  0
 37 39  1  0
 37 40  1  0
 14 41  2  0
 41 42  1  0
 41 43  1  0
 43 44  1  0
 44 45  1  0
 44 46  1  0
 43 47  2  0
 47 48  1  0
 48 49  3  0
  7 50  1  0
 50 51  1  0
 50 52  2  0
 52 53  1  0
 52  2  1  0
 47 12  1  0
 35 22  1  0
M  END
>  <score>  (365) 
7.30013

$$$$

     RDKit          3D

 47 49  0  0  0  0  0  0  0  0999 V2000
    5.8070  140.0937   53.1455 H   0  0  0  0  0  0  0  0  0  0  0  0
    4.8133  140.4811   52.9266 C   0  0  0  0  0  0  0  0  0  0  0  0
    4.1787  141.3819   53.7652 N   0  0  0  0  0  0  0  0  0  0  0  0
    3.0665  141.8063   53.2373 C   0  0  0  0  0  0  0  0  0  0  0  0
    2.3464  142.8435   53.7779 N   0  0  0  0  0  0  0  0  0  0  0  0
    1.9518  143.4817   53.0985 H   0  0  0  0  0  0  0  0  0  0  0  0
    2.9735  143.5769   54.7084 C   0  0  0  0  0  0  0  0  0  0  0  0
    3.0638  144.8013   54.2607 N   0  0  0  0  0  0  0  0  0  0  0  0
    3.5412  145.6810   55.1039 C   0  0  0  0  0  0  0  0  0  0  0  0
    3.5996  146.8940   54.5116 N   0  0  0  0  0  0  0  0  0  0  0  0
    3.3749  146.9117   53.5287 H   0  0  0  0  0  0  0  0  0  0  0  0
    3.6846  148.0768   55.1730 C   0  0  0  0  0  0  0  0  0  0  0  0
    3.7969  148.0827   56.3854 O   0  0  0  0  0  0  0  0  0  0  0  0
    3.6830  149.3984   54.4240 C   0  0  0  0  0  0  0  0  0  0  0  0
    3.9452  150.1677   55.1380 H   0  0  0  0  0  0  0  0  0  0  0  0
    4.4233  149.3905   53.6195 H   0  0  0  0  0  0  0  0  0  0  0  0
    2.3400  149.7500   53.8700 C   0  0  0  0  0  0  0  0  0  0  0  0
    1.5580  150.6599   54.5752 C   0  0  0  0  0  0  0  0  0  0  0  0
    1.9243  151.1065   55.4950 H   0  0  0  0  0  0  0  0  0  0  0  0
    0.3084  151.0346   54.0942 C   0  0  0  0  0  0  0  0  0  0  0  0
   -0.3885  151.9762   54.7933 O   0  0  0  0  0  0  0  0  0  0  0  0
   -1.4228  151.4055   55.5954 C   0  0  0  0  0  0  0  0  0  0  0  0
   -1.0068  150.6877   56.3046 H   0  0  0  0  0  0  0  0  0  0  0  0
   -2.1535  150.8889   54.9678 H   0  0  0  0  0  0  0  0  0  0  0  0
   -1.9347  152.1895   56.1615 H   0  0  0  0  0  0  0  0  0  0  0  0
   -0.1889  150.4740   52.9068 C   0  0  0  0  0  0  0  0  0  0  0  0
   -1.9196  150.9706   52.2545 Br  0  0  0  0  0  0  0  0  0  0  0  0
    0.6143  149.5772   52.1852 C   0  0  0  0  0  0  0  0  0  0  0  0
    0.2765  149.1729   51.2375 H   0  0  0  0  0  0  0  0  0  0  0  0
    1.8882  149.2203   52.6577 C   0  0  0  0  0  0  0  0  0  0  0  0
    2.7454  148.4008   51.9652 O   0  0  0  0  0  0  0  0  0  0  0  0
    2.1374  147.3105   51.2715 C   0  0  0  0  0  0  0  0  0  0  0  0
    1.4474  146.7838   51.9347 H   0  0  0  0  0  0  0  0  0  0  0  0
    2.9051  146.6031   50.9438 H   0  0  0  0  0  0  0  0  0  0  0  0
    1.5911  147.6610   50.3927 H   0  0  0  0  0  0  0  0  0  0  0  0
    3.8973  145.3929   56.4037 C   0  0  0  0  0  0  0  0  0  0  0  0
    4.2194  146.1566   57.0907 H   0  0  0  0  0  0  0  0  0  0  0  0
    3.8130  144.0880   56.7932 C   0  0  0  0  0  0  0  0  0  0  0  0
    4.1081  143.7702   58.0629 N   0  0  0  0  0  0  0  0  0  0  0  0
    4.4937  144.4892   58.6744 H   0  0  0  0  0  0  0  0  0  0  0  0
    4.1227  142.7837   58.3160 H   0  0  0  0  0  0  0  0  0  0  0  0
    3.3675  143.1323   55.9308 C   0  0  0  0  0  0  0  0  0  0  0  0
    3.2243  141.7538   56.2592 C   0  0  0  0  0  0  0  0  0  0  0  0
    3.0846  140.6221   56.4764 N   0  0  0  0  0  0  0  0  0  0  0  0
    2.6237  141.0612   51.7127 S   0  0  0  0  0  0  0  0  0  0  0  0
    4.1086  140.1509   51.8006 C   0  0  0  0  0  0  0  0  0  0  0  0
    4.4373  139.4514   51.0400 H   0  0  0  0  0  0  0  0  0  0  0  0
  1  2  1  0
  2  3  1  0
  3  4  2  0
  4  5  1  0
  5  6  1  0
  5  7  1  0
  7  8  2  0
  8  9  1  0
  9 10  1  0
 10 11  1  0
 10 12  1  0
 12 13  2  0
 12 14  1  0
 14 15  1  0
 14 16  1  0
 14 17  1  0
 17 18  2  0
 18 19  1  0
 18 20  1  0
 20 21  1  0
 21 22  1  0
 22 23  1  0
 22 24  1  0
 22 25  1  0
 20 26  2  0
 26 27  1  0
 26 28  1  0
 28 29  1  0
 28 30  2  0
 30 31  1  0
 31 32  1  0
 32 33  1  0
 32 34  1  0
 32 35  1  0
  9 36  2  0
 36 37  1  0
 36 38  1  0
 38 39  1  0
 39 40  1  0
 39 41  1  0
 38 42  2  0
 42 43  1  0
 43 44  3  0
  4 45  1  0
 45 46  1  0
 46 47  1  0
 46  2  2  0
 42  7  1  0
 30 17  1  0
M  END
>  <score>  (366) 
7.30446

$$$$

     RDKit          3D

 53 55  0  0  0  0  0  0  0  0999 V2000
    0.2546  149.1514   51.2394 H   0  0  0  0  0  0  0  0  0  0  0  0
    0.6025  149.5638   52.1811 C   0  0  0  0  0  0  0  0  0  0  0  0
   -0.2023  150.4666   52.8977 C   0  0  0  0  0  0  0  0  0  0  0  0
   -1.9368  150.9497   52.2320 Br  0  0  0  0  0  0  0  0  0  0  0  0
    0.2867  151.0451   54.0810 C   0  0  0  0  0  0  0  0  0  0  0  0
   -0.4170  151.9876   54.7733 O   0  0  0  0  0  0  0  0  0  0  0  0
   -1.4381  151.4023   55.5754 C   0  0  0  0  0  0  0  0  0  0  0  0
   -1.9368  152.1872   56.1488 H   0  0  0  0  0  0  0  0  0  0  0  0
   -2.1729  150.8937   54.9430 H   0  0  0  0  0  0  0  0  0  0  0  0
   -1.0050  150.6807   56.2732 H   0  0  0  0  0  0  0  0  0  0  0  0
    1.5326  150.6577   54.5665 C   0  0  0  0  0  0  0  0  0  0  0  0
    1.8840  151.0997   55.4916 H   0  0  0  0  0  0  0  0  0  0  0  0
    2.3315  149.7540   53.8654 C   0  0  0  0  0  0  0  0  0  0  0  0
    3.6793  149.4162   54.4373 C   0  0  0  0  0  0  0  0  0  0  0  0
    4.4331  149.4287   53.6397 H   0  0  0  0  0  0  0  0  0  0  0  0
    3.9180  150.1688   55.1833 H   0  0  0  0  0  0  0  0  0  0  0  0
    3.6783  148.0840   55.1706 C   0  0  0  0  0  0  0  0  0  0  0  0
    3.7809  148.0687   56.3860 O   0  0  0  0  0  0  0  0  0  0  0  0
    3.6196  146.9232   54.4656 N   0  0  0  0  0  0  0  0  0  0  0  0
    3.3293  146.9363   53.4994 H   0  0  0  0  0  0  0  0  0  0  0  0
    3.4915  145.7292   55.0643 C   0  0  0  0  0  0  0  0  0  0  0  0
    3.0231  144.8587   54.2087 N   0  0  0  0  0  0  0  0  0  0  0  0
    2.9230  143.6022   54.6285 C   0  0  0  0  0  0  0  0  0  0  0  0
    2.5133  142.6222   53.7753 O   0  0  0  0  0  0  0  0  0  0  0  0
    1.7638  142.9732   52.6136 C   0  0  0  0  0  0  0  0  0  0  0  0
    1.3148  142.0460   52.2443 H   0  0  0  0  0  0  0  0  0  0  0  0
    0.6461  143.9836   52.8398 C   0  0  0  0  0  0  0  0  0  0  0  0
    0.9849  144.7994   53.4853 H   0  0  0  0  0  0  0  0  0  0  0  0
   -0.2287  143.5193   53.3041 H   0  0  0  0  0  0  0  0  0  0  0  0
    0.3377  144.5194   51.4395 C   0  0  0  0  0  0  0  0  0  0  0  0
    0.2394  145.6086   51.4645 H   0  0  0  0  0  0  0  0  0  0  0  0
   -0.5942  144.1057   51.0466 H   0  0  0  0  0  0  0  0  0  0  0  0
    1.5105  144.0900   50.5512 C   0  0  0  0  0  0  0  0  0  0  0  0
    1.8641  144.9029   49.9129 H   0  0  0  0  0  0  0  0  0  0  0  0
    1.1935  143.2612   49.9093 H   0  0  0  0  0  0  0  0  0  0  0  0
    2.5895  143.5830   51.4987 C   0  0  0  0  0  0  0  0  0  0  0  0
    3.2379  142.8383   51.0285 H   0  0  0  0  0  0  0  0  0  0  0  0
    3.2051  144.4121   51.8636 H   0  0  0  0  0  0  0  0  0  0  0  0
    3.2616  143.2162   55.9056 C   0  0  0  0  0  0  0  0  0  0  0  0
    3.1743  141.8453   56.2771 C   0  0  0  0  0  0  0  0  0  0  0  0
    3.1076  140.7048   56.4848 N   0  0  0  0  0  0  0  0  0  0  0  0
    3.7208  144.1612   56.7608 C   0  0  0  0  0  0  0  0  0  0  0  0
    4.1215  143.8159   58.0030 N   0  0  0  0  0  0  0  0  0  0  0  0
    4.0832  142.8387   58.2887 H   0  0  0  0  0  0  0  0  0  0  0  0
    4.4542  144.5426   58.6277 H   0  0  0  0  0  0  0  0  0  0  0  0
    3.8440  145.4495   56.3597 C   0  0  0  0  0  0  0  0  0  0  0  0
    4.2397  146.1899   57.0358 H   0  0  0  0  0  0  0  0  0  0  0  0
    1.8839  149.2136   52.6501 C   0  0  0  0  0  0  0  0  0  0  0  0
    2.7346  148.3843   51.9638 O   0  0  0  0  0  0  0  0  0  0  0  0
    2.1189  147.3023   51.2693 C   0  0  0  0  0  0  0  0  0  0  0  0
    2.8968  146.6394   50.8771 H   0  0  0  0  0  0  0  0  0  0  0  0
    1.4886  146.7351   51.9606 H   0  0  0  0  0  0  0  0  0  0  0  0
    1.5134  147.6744   50.4365 H   0  0  0  0  0  0  0  0  0  0  0  0
  1  2  1  0
  2  3  2  0
  3  4  1  0
  3  5  1  0
  5  6  1  0
  6  7  1  0
  7  8  1  0
  7  9  1  0
  7 10  1  0
  5 11  2  0
 11 12  1  0
 11 13  1  0
 13 14  1  0
 14 15  1  0
 14 16  1  0
 14 17  1  0
 17 18  2  0
 17 19  1  0
 19 20  1  0
 19 21  1  0
 21 22  2  0
 22 23  1  0
 23 24  1  0
 24 25  1  0
 25 26  1  0
 25 27  1  0
 27 28  1  0
 27 29  1  0
 27 30  1  0
 30 31  1  0
 30 32  1  0
 30 33  1  0
 33 34  1  0
 33 35  1  0
 33 36  1  0
 36 37  1  0
 36 38  1  0
 23 39  2  0
 39 40  1  0
 40 41  3  0
 39 42  1  0
 42 43  1  0
 43 44  1  0
 43 45  1  0
 42 46  2  0
 46 47  1  0
 13 48  2  0
 48 49  1  0
 49 50  1  0
 50 51  1  0
 50 52  1  0
 50 53  1  0
 48  2  1  0
 46 21  1  0
 36 25  1  0
M  END
>  <score>  (367) 
7.30718

$$$$

     RDKit          3D

 55 57  0  0  0  0  0  0  0  0999 V2000
    3.3211  144.6806   46.8625 H   0  0  0  0  0  0  0  0  0  0  0  0
    3.2067  144.4970   47.9236 C   0  0  0  0  0  0  0  0  0  0  0  0
    2.0671  144.9536   48.6005 C   0  0  0  0  0  0  0  0  0  0  0  0
    1.3306  145.5339   48.0571 H   0  0  0  0  0  0  0  0  0  0  0  0
    1.9357  144.7117   49.9791 C   0  0  0  0  0  0  0  0  0  0  0  0
    1.0971  145.0781   50.5719 H   0  0  0  0  0  0  0  0  0  0  0  0
    2.9305  143.9820   50.6346 C   0  0  0  0  0  0  0  0  0  0  0  0
    2.8941  143.7827   51.9923 N   0  0  0  0  0  0  0  0  0  0  0  0
    3.7798  143.8655   52.4792 H   0  0  0  0  0  0  0  0  0  0  0  0
    2.0987  142.8417   52.5844 C   0  0  0  0  0  0  0  0  0  0  0  0
    1.0277  141.8498   51.7989 S   0  0  0  0  0  0  0  0  0  0  0  0
    2.3645  142.6067   53.8968 N   0  0  0  0  0  0  0  0  0  0  0  0
    1.8839  141.8443   54.3487 H   0  0  0  0  0  0  0  0  0  0  0  0
    2.9518  143.5472   54.7013 C   0  0  0  0  0  0  0  0  0  0  0  0
    3.1080  144.7785   54.2332 N   0  0  0  0  0  0  0  0  0  0  0  0
    3.5723  145.6880   55.0672 C   0  0  0  0  0  0  0  0  0  0  0  0
    3.6538  146.9098   54.4910 N   0  0  0  0  0  0  0  0  0  0  0  0
    3.4032  146.9321   53.5151 H   0  0  0  0  0  0  0  0  0  0  0  0
    3.6776  148.0843   55.1944 C   0  0  0  0  0  0  0  0  0  0  0  0
    3.7826  148.0635   56.4081 O   0  0  0  0  0  0  0  0  0  0  0  0
    3.6608  149.4330   54.4802 C   0  0  0  0  0  0  0  0  0  0  0  0
    3.8774  150.2108   55.2112 H   0  0  0  0  0  0  0  0  0  0  0  0
    4.4344  149.4526   53.7099 H   0  0  0  0  0  0  0  0  0  0  0  0
    2.3283  149.7666   53.8748 C   0  0  0  0  0  0  0  0  0  0  0  0
    1.5228  150.6829   54.5583 C   0  0  0  0  0  0  0  0  0  0  0  0
    1.8672  151.1231   55.4899 H   0  0  0  0  0  0  0  0  0  0  0  0
    0.2767  151.0540   54.0587 C   0  0  0  0  0  0  0  0  0  0  0  0
   -0.4556  151.9845   54.7451 O   0  0  0  0  0  0  0  0  0  0  0  0
   -1.4732  151.3970   55.5592 C   0  0  0  0  0  0  0  0  0  0  0  0
   -1.0399  150.6639   56.2437 H   0  0  0  0  0  0  0  0  0  0  0  0
   -1.9677  152.1723   56.1517 H   0  0  0  0  0  0  0  0  0  0  0  0
   -2.2244  150.8981   54.9399 H   0  0  0  0  0  0  0  0  0  0  0  0
   -0.1881  150.4691   52.8690 C   0  0  0  0  0  0  0  0  0  0  0  0
   -1.9220  150.9056   52.1863 Br  0  0  0  0  0  0  0  0  0  0  0  0
    0.6201  149.5519   52.1786 C   0  0  0  0  0  0  0  0  0  0  0  0
    0.2641  149.1107   51.2543 H   0  0  0  0  0  0  0  0  0  0  0  0
    1.8912  149.2008   52.6639 C   0  0  0  0  0  0  0  0  0  0  0  0
    2.7277  148.3327   52.0001 O   0  0  0  0  0  0  0  0  0  0  0  0
    2.0964  147.2894   51.2466 C   0  0  0  0  0  0  0  0  0  0  0  0
    1.5482  147.6908   50.3886 H   0  0  0  0  0  0  0  0  0  0  0  0
    2.8577  146.5953   50.8768 H   0  0  0  0  0  0  0  0  0  0  0  0
    1.4017  146.7305   51.8811 H   0  0  0  0  0  0  0  0  0  0  0  0
    3.8940  145.4260   56.3738 C   0  0  0  0  0  0  0  0  0  0  0  0
    4.2600  146.1861   57.0416 H   0  0  0  0  0  0  0  0  0  0  0  0
    3.7303  144.1529   56.8131 C   0  0  0  0  0  0  0  0  0  0  0  0
    3.9983  143.8768   58.1017 N   0  0  0  0  0  0  0  0  0  0  0  0
    4.5026  144.5881   58.6223 H   0  0  0  0  0  0  0  0  0  0  0  0
    4.1427  142.8985   58.3332 H   0  0  0  0  0  0  0  0  0  0  0  0
    3.2850  143.1747   55.9761 C   0  0  0  0  0  0  0  0  0  0  0  0
    3.1699  141.8119   56.3686 C   0  0  0  0  0  0  0  0  0  0  0  0
    3.0675  140.6722   56.5780 N   0  0  0  0  0  0  0  0  0  0  0  0
    4.0417  143.4999   49.9562 C   0  0  0  0  0  0  0  0  0  0  0  0
    4.8147  142.9093   50.4426 H   0  0  0  0  0  0  0  0  0  0  0  0
    4.1910  143.7799   48.6132 C   0  0  0  0  0  0  0  0  0  0  0  0
    5.0947  143.4262   48.1584 H   0  0  0  0  0  0  0  0  0  0  0  0
  1  2  1  0
  2  3  2  0
  3  4  1  0
  3  5  1  0
  5  6  1  0
  5  7  2  0
  7  8  1  0
  8  9  1  0
  8 10  1  0
 10 11  2  0
 10 12  1  0
 12 13  1  0
 12 14  1  0
 14 15  2  0
 15 16  1  0
 16 17  1  0
 17 18  1  0
 17 19  1  0
 19 20  2  0
 19 21  1  0
 21 22  1  0
 21 23  1  0
 21 24  1  0
 24 25  2  0
 25 26  1  0
 25 27  1  0
 27 28  1  0
 28 29  1  0
 29 30  1  0
 29 31  1  0
 29 32  1  0
 27 33  2  0
 33 34  1  0
 33 35  1  0
 35 36  1  0
 35 37  2  0
 37 38  1  0
 38 39  1  0
 39 40  1  0
 39 41  1  0
 39 42  1  0
 16 43  2  0
 43 44  1  0
 43 45  1  0
 45 46  1  0
 46 47  1  0
 46 48  1  0
 45 49  2  0
 49 50  1  0
 50 51  3  0
  7 52  1  0
 52 53  1  0
 52 54  2  0
 54 55  1  0
 54  2  1  0
 49 14  1  0
 37 24  1  0
M  END
>  <score>  (368) 
7.30917

$$$$

     RDKit          3D

 55 56  0  0  0  0  0  0  0  0999 V2000
    0.2311  149.1106   51.2708 H   0  0  0  0  0  0  0  0  0  0  0  0
    0.5962  149.5495   52.1909 C   0  0  0  0  0  0  0  0  0  0  0  0
   -0.2226  150.4663   52.8658 C   0  0  0  0  0  0  0  0  0  0  0  0
   -1.9612  150.9030   52.1844 Br  0  0  0  0  0  0  0  0  0  0  0  0
    0.2422  151.0560   54.0478 C   0  0  0  0  0  0  0  0  0  0  0  0
   -0.4763  151.9979   54.7235 O   0  0  0  0  0  0  0  0  0  0  0  0
   -1.4732  151.4041   55.5487 C   0  0  0  0  0  0  0  0  0  0  0  0
   -1.0156  150.6726   56.2191 H   0  0  0  0  0  0  0  0  0  0  0  0
   -1.9693  152.1712   56.1511 H   0  0  0  0  0  0  0  0  0  0  0  0
   -2.2197  150.8980   54.9302 H   0  0  0  0  0  0  0  0  0  0  0  0
    1.4831  150.6971   54.5546 C   0  0  0  0  0  0  0  0  0  0  0  0
    1.8058  151.1266   55.4973 H   0  0  0  0  0  0  0  0  0  0  0  0
    2.3181  149.8157   53.8712 C   0  0  0  0  0  0  0  0  0  0  0  0
    3.6710  149.5814   54.4874 C   0  0  0  0  0  0  0  0  0  0  0  0
    4.4512  149.5709   53.7257 H   0  0  0  0  0  0  0  0  0  0  0  0
    3.8608  150.4170   55.1509 H   0  0  0  0  0  0  0  0  0  0  0  0
    3.7516  148.3010   55.2988 C   0  0  0  0  0  0  0  0  0  0  0  0
    3.7967  148.3087   56.5124 O   0  0  0  0  0  0  0  0  0  0  0  0
    3.7824  147.1377   54.6011 N   0  0  0  0  0  0  0  0  0  0  0  0
    3.5510  147.1998   53.6238 H   0  0  0  0  0  0  0  0  0  0  0  0
    3.7090  145.9040   55.1459 C   0  0  0  0  0  0  0  0  0  0  0  0
    3.3459  145.0511   54.2135 N   0  0  0  0  0  0  0  0  0  0  0  0
    3.1912  143.7394   54.4947 C   0  0  0  0  0  0  0  0  0  0  0  0
    2.7628  142.8030   53.3545 C   0  0  0  0  0  0  0  0  0  0  0  0
    2.7584  141.5828   53.5022 O   0  0  0  0  0  0  0  0  0  0  0  0
    2.2971  143.2729   52.1172 N   0  0  0  0  0  0  0  0  0  0  0  0
    2.3964  144.2672   51.9390 H   0  0  0  0  0  0  0  0  0  0  0  0
    1.6553  142.4658   51.0736 C   0  0  0  0  0  0  0  0  0  0  0  0
    0.6030  142.2910   51.3256 H   0  0  0  0  0  0  0  0  0  0  0  0
    2.1476  141.4939   50.9834 H   0  0  0  0  0  0  0  0  0  0  0  0
    1.7362  143.2102   49.7329 C   0  0  0  0  0  0  0  0  0  0  0  0
    2.7846  143.3595   49.4570 H   0  0  0  0  0  0  0  0  0  0  0  0
    1.2817  144.2005   49.8393 H   0  0  0  0  0  0  0  0  0  0  0  0
    1.0218  142.4603   48.5958 C   0  0  0  0  0  0  0  0  0  0  0  0
    1.0153  143.0873   47.7006 H   0  0  0  0  0  0  0  0  0  0  0  0
   -0.0162  142.2652   48.8568 H   0  0  0  0  0  0  0  0  0  0  0  0
    1.6969  141.1368   48.2640 C   0  0  0  0  0  0  0  0  0  0  0  0
    2.7136  141.3186   47.9135 H   0  0  0  0  0  0  0  0  0  0  0  0
    1.1444  140.6152   47.4776 H   0  0  0  0  0  0  0  0  0  0  0  0
    1.7407  140.4880   49.1402 H   0  0  0  0  0  0  0  0  0  0  0  0
    3.4015  143.3048   55.8234 C   0  0  0  0  0  0  0  0  0  0  0  0
    3.2312  141.9304   56.1822 C   0  0  0  0  0  0  0  0  0  0  0  0
    3.0858  140.8020   56.4216 N   0  0  0  0  0  0  0  0  0  0  0  0
    3.7709  144.2354   56.7851 C   0  0  0  0  0  0  0  0  0  0  0  0
    3.9577  143.8754   58.0881 N   0  0  0  0  0  0  0  0  0  0  0  0
    4.4667  144.5333   58.6738 H   0  0  0  0  0  0  0  0  0  0  0  0
    4.1217  142.8890   58.2648 H   0  0  0  0  0  0  0  0  0  0  0  0
    3.9528  145.5507   56.4472 C   0  0  0  0  0  0  0  0  0  0  0  0
    4.2623  146.2903   57.1722 H   0  0  0  0  0  0  0  0  0  0  0  0
    1.8832  149.2240   52.6686 C   0  0  0  0  0  0  0  0  0  0  0  0
    2.7281  148.3714   51.9957 O   0  0  0  0  0  0  0  0  0  0  0  0
    2.0910  147.3187   51.2598 C   0  0  0  0  0  0  0  0  0  0  0  0
    1.3945  146.7656   51.9005 H   0  0  0  0  0  0  0  0  0  0  0  0
    1.5427  147.7151   50.3988 H   0  0  0  0  0  0  0  0  0  0  0  0
    2.8520  146.6215   50.8975 H   0  0  0  0  0  0  0  0  0  0  0  0
  1  2  1  0
  2  3  2  0
  3  4  1  0
  3  5  1  0
  5  6  1  0
  6  7  1  0
  7  8  1  0
  7  9  1  0
  7 10  1  0
  5 11  2  0
 11 12  1  0
 11 13  1  0
 13 14  1  0
 14 15  1  0
 14 16  1  0
 14 17  1  0
 17 18  2  0
 17 19  1  0
 19 20  1  0
 19 21  1  0
 21 22  2  0
 22 23  1  0
 23 24  1  0
 24 25  2  0
 24 26  1  0
 26 27  1  0
 26 28  1  0
 28 29  1  0
 28 30  1  0
 28 31  1  0
 31 32  1  0
 31 33  1  0
 31 34  1  0
 34 35  1  0
 34 36  1  0
 34 37  1  0
 37 38  1  0
 37 39  1  0
 37 40  1  0
 23 41  2  0
 41 42  1  0
 42 43  3  0
 41 44  1  0
 44 45  1  0
 45 46  1  0
 45 47  1  0
 44 48  2  0
 48 49  1  0
 13 50  2  0
 50 51  1  0
 51 52  1  0
 52 53  1  0
 52 54  1  0
 52 55  1  0
 50  2  1  0
 48 21  1  0
M  END
>  <score>  (369) 
7.31076

$$$$

     RDKit          3D

 62 64  0  0  0  0  0  0  0  0999 V2000
    0.3057  149.1981   51.2478 H   0  0  0  0  0  0  0  0  0  0  0  0
    0.6579  149.6028   52.1941 C   0  0  0  0  0  0  0  0  0  0  0  0
   -0.1465  150.4980   52.9348 C   0  0  0  0  0  0  0  0  0  0  0  0
   -1.8728  150.9852   52.2777 Br  0  0  0  0  0  0  0  0  0  0  0  0
    0.3324  151.0583   54.1304 C   0  0  0  0  0  0  0  0  0  0  0  0
   -0.3794  151.9757   54.8587 O   0  0  0  0  0  0  0  0  0  0  0  0
   -1.4257  151.4033   55.6455 C   0  0  0  0  0  0  0  0  0  0  0  0
   -2.1518  150.8754   55.0190 H   0  0  0  0  0  0  0  0  0  0  0  0
   -1.9397  152.2022   56.1886 H   0  0  0  0  0  0  0  0  0  0  0  0
   -1.0127  150.7016   56.3717 H   0  0  0  0  0  0  0  0  0  0  0  0
    1.5938  150.6867   54.5734 C   0  0  0  0  0  0  0  0  0  0  0  0
    1.9881  151.1446   55.4708 H   0  0  0  0  0  0  0  0  0  0  0  0
    2.3779  149.7794   53.8608 C   0  0  0  0  0  0  0  0  0  0  0  0
    3.7219  149.4648   54.4033 C   0  0  0  0  0  0  0  0  0  0  0  0
    3.9951  150.3372   54.9872 H   0  0  0  0  0  0  0  0  0  0  0  0
    4.4080  149.3575   53.5605 H   0  0  0  0  0  0  0  0  0  0  0  0
    3.7453  148.1902   55.2571 C   0  0  0  0  0  0  0  0  0  0  0  0
    3.8465  148.2404   56.4746 O   0  0  0  0  0  0  0  0  0  0  0  0
    3.7061  146.9779   54.6246 N   0  0  0  0  0  0  0  0  0  0  0  0
    3.5033  146.9274   53.6389 H   0  0  0  0  0  0  0  0  0  0  0  0
    3.5427  145.7815   55.2011 C   0  0  0  0  0  0  0  0  0  0  0  0
    3.0622  144.9554   54.2935 N   0  0  0  0  0  0  0  0  0  0  0  0
    2.9132  143.6755   54.6342 C   0  0  0  0  0  0  0  0  0  0  0  0
    2.3759  142.7654   53.7556 O   0  0  0  0  0  0  0  0  0  0  0  0
    2.0849  143.1309   52.3915 C   0  0  0  0  0  0  0  0  0  0  0  0
    1.4049  142.3621   52.0082 H   0  0  0  0  0  0  0  0  0  0  0  0
    1.5653  144.0958   52.3304 H   0  0  0  0  0  0  0  0  0  0  0  0
    3.3472  143.1304   51.5216 C   0  0  0  0  0  0  0  0  0  0  0  0
    3.9442  142.2530   51.7896 H   0  0  0  0  0  0  0  0  0  0  0  0
    3.9293  144.0299   51.7408 H   0  0  0  0  0  0  0  0  0  0  0  0
    3.0569  143.0545   50.0114 C   0  0  0  0  0  0  0  0  0  0  0  0
    2.4410  142.1758   49.7823 H   0  0  0  0  0  0  0  0  0  0  0  0
    4.0066  142.9248   49.4836 H   0  0  0  0  0  0  0  0  0  0  0  0
    2.3968  144.2810   49.5208 N   0  0  0  0  0  0  0  0  0  0  0  0
    3.1230  145.0389   48.4779 C   0  0  0  0  0  0  0  0  0  0  0  0
    4.1924  145.0788   48.7151 H   0  0  0  0  0  0  0  0  0  0  0  0
    2.7396  146.0633   48.4511 H   0  0  0  0  0  0  0  0  0  0  0  0
    2.9169  144.3859   47.0968 C   0  0  0  0  0  0  0  0  0  0  0  0
    3.3575  143.3829   47.1183 H   0  0  0  0  0  0  0  0  0  0  0  0
    3.4413  144.9673   46.3282 H   0  0  0  0  0  0  0  0  0  0  0  0
    1.5144  144.2870   46.7714 O   0  0  0  0  0  0  0  0  0  0  0  0
    0.7953  143.5326   47.7700 C   0  0  0  0  0  0  0  0  0  0  0  0
   -0.2690  143.4875   47.5071 H   0  0  0  0  0  0  0  0  0  0  0  0
    1.1768  142.5067   47.7915 H   0  0  0  0  0  0  0  0  0  0  0  0
    0.9673  144.1515   49.1753 C   0  0  0  0  0  0  0  0  0  0  0  0
    0.4908  143.5245   49.9312 H   0  0  0  0  0  0  0  0  0  0  0  0
    0.4850  145.1355   49.1893 H   0  0  0  0  0  0  0  0  0  0  0  0
    3.2642  143.2144   55.8863 C   0  0  0  0  0  0  0  0  0  0  0  0
    3.1392  141.8370   56.2220 C   0  0  0  0  0  0  0  0  0  0  0  0
    3.0356  140.7008   56.4456 N   0  0  0  0  0  0  0  0  0  0  0  0
    3.7451  144.1185   56.7830 C   0  0  0  0  0  0  0  0  0  0  0  0
    4.1406  143.7303   58.0008 N   0  0  0  0  0  0  0  0  0  0  0  0
    4.0530  142.7524   58.2670 H   0  0  0  0  0  0  0  0  0  0  0  0
    4.4898  144.4373   58.6418 H   0  0  0  0  0  0  0  0  0  0  0  0
    3.8851  145.4297   56.4764 C   0  0  0  0  0  0  0  0  0  0  0  0
    4.2981  146.1201   57.1979 H   0  0  0  0  0  0  0  0  0  0  0  0
    1.9339  149.2350   52.6505 C   0  0  0  0  0  0  0  0  0  0  0  0
    2.7747  148.4000   51.9479 O   0  0  0  0  0  0  0  0  0  0  0  0
    2.1660  147.2929   51.2803 C   0  0  0  0  0  0  0  0  0  0  0  0
    1.6474  147.6318   50.3793 H   0  0  0  0  0  0  0  0  0  0  0  0
    2.9484  146.5807   50.9948 H   0  0  0  0  0  0  0  0  0  0  0  0
    1.4562  146.7840   51.9416 H   0  0  0  0  0  0  0  0  0  0  0  0
  1  2  1  0
  2  3  2  0
  3  4  1  0
  3  5  1  0
  5  6  1  0
  6  7  1  0
  7  8  1  0
  7  9  1  0
  7 10  1  0
  5 11  2  0
 11 12  1  0
 11 13  1  0
 13 14  1  0
 14 15  1  0
 14 16  1  0
 14 17  1  0
 17 18  2  0
 17 19  1  0
 19 20  1  0
 19 21  1  0
 21 22  2  0
 22 23  1  0
 23 24  1  0
 24 25  1  0
 25 26  1  0
 25 27  1  0
 25 28  1  0
 28 29  1  0
 28 30  1  0
 28 31  1  0
 31 32  1  0
 31 33  1  0
 31 34  1  0
 34 35  1  0
 35 36  1  0
 35 37  1  0
 35 38  1  0
 38 39  1  0
 38 40  1  0
 38 41  1  0
 41 42  1  0
 42 43  1  0
 42 44  1  0
 42 45  1  0
 45 46  1  0
 45 47  1  0
 23 48  2  0
 48 49  1  0
 49 50  3  0
 48 51  1  0
 51 52  1  0
 52 53  1  0
 52 54  1  0
 51 55  2  0
 55 56  1  0
 13 57  2  0
 57 58  1  0
 58 59  1  0
 59 60  1  0
 59 61  1  0
 59 62  1  0
 57  2  1  0
 55 21  1  0
 45 34  1  0
M  END
>  <score>  (370) 
7.31152

$$$$

     RDKit          3D

 53 56  0  0  0  0  0  0  0  0999 V2000
    0.2300  149.1052   51.2714 H   0  0  0  0  0  0  0  0  0  0  0  0
    0.6006  149.5524   52.1847 C   0  0  0  0  0  0  0  0  0  0  0  0
   -0.2165  150.4719   52.8591 C   0  0  0  0  0  0  0  0  0  0  0  0
   -1.9554  150.8942   52.1754 Br  0  0  0  0  0  0  0  0  0  0  0  0
    0.2417  151.0658   54.0436 C   0  0  0  0  0  0  0  0  0  0  0  0
   -0.4853  151.9996   54.7255 O   0  0  0  0  0  0  0  0  0  0  0  0
   -1.4825  151.4045   55.5529 C   0  0  0  0  0  0  0  0  0  0  0  0
   -1.0246  150.6726   56.2223 H   0  0  0  0  0  0  0  0  0  0  0  0
   -1.9797  152.1716   56.1558 H   0  0  0  0  0  0  0  0  0  0  0  0
   -2.2313  150.8981   54.9379 H   0  0  0  0  0  0  0  0  0  0  0  0
    1.4833  150.7109   54.5503 C   0  0  0  0  0  0  0  0  0  0  0  0
    1.8129  151.1377   55.4931 H   0  0  0  0  0  0  0  0  0  0  0  0
    2.3131  149.8232   53.8684 C   0  0  0  0  0  0  0  0  0  0  0  0
    3.6592  149.5894   54.4936 C   0  0  0  0  0  0  0  0  0  0  0  0
    3.8583  150.4208   55.1561 H   0  0  0  0  0  0  0  0  0  0  0  0
    4.4371  149.5662   53.7327 H   0  0  0  0  0  0  0  0  0  0  0  0
    3.7511  148.3094   55.2946 C   0  0  0  0  0  0  0  0  0  0  0  0
    3.8048  148.2964   56.5119 O   0  0  0  0  0  0  0  0  0  0  0  0
    3.9019  147.1746   54.5836 N   0  0  0  0  0  0  0  0  0  0  0  0
    3.6066  147.1813   53.6175 H   0  0  0  0  0  0  0  0  0  0  0  0
    3.8895  145.9554   55.1234 C   0  0  0  0  0  0  0  0  0  0  0  0
    3.5759  145.1630   54.1492 N   0  0  0  0  0  0  0  0  0  0  0  0
    3.3353  143.9027   54.4379 C   0  0  0  0  0  0  0  0  0  0  0  0
    2.6945  143.1834   53.3596 C   0  0  0  0  0  0  0  0  0  0  0  0
    1.6933  142.3100   53.6322 C   0  0  0  0  0  0  0  0  0  0  0  0
    1.3784  142.0325   54.6329 H   0  0  0  0  0  0  0  0  0  0  0  0
    1.1462  141.8763   52.4346 N   0  0  0  0  0  0  0  0  0  0  0  0
    0.3461  141.2579   52.3364 H   0  0  0  0  0  0  0  0  0  0  0  0
    1.8613  142.3884   51.3809 C   0  0  0  0  0  0  0  0  0  0  0  0
    1.7885  142.0731   50.0270 C   0  0  0  0  0  0  0  0  0  0  0  0
    1.0631  141.3373   49.6836 H   0  0  0  0  0  0  0  0  0  0  0  0
    2.7190  142.6698   49.1697 C   0  0  0  0  0  0  0  0  0  0  0  0
    2.7257  142.4008   48.1188 H   0  0  0  0  0  0  0  0  0  0  0  0
    3.6452  143.6042   49.6678 C   0  0  0  0  0  0  0  0  0  0  0  0
    4.3526  144.0493   48.9801 H   0  0  0  0  0  0  0  0  0  0  0  0
    3.6821  143.9319   51.0344 C   0  0  0  0  0  0  0  0  0  0  0  0
    4.4086  144.6548   51.3953 H   0  0  0  0  0  0  0  0  0  0  0  0
    2.8115  143.2667   51.9012 C   0  0  0  0  0  0  0  0  0  0  0  0
    3.4612  143.3918   55.7279 C   0  0  0  0  0  0  0  0  0  0  0  0
    3.2001  142.0128   55.9958 C   0  0  0  0  0  0  0  0  0  0  0  0
    2.9946  140.8845   56.1766 N   0  0  0  0  0  0  0  0  0  0  0  0
    3.8085  144.2702   56.7257 C   0  0  0  0  0  0  0  0  0  0  0  0
    3.9176  143.8585   58.0114 N   0  0  0  0  0  0  0  0  0  0  0  0
    4.4394  144.4812   58.6208 H   0  0  0  0  0  0  0  0  0  0  0  0
    4.0960  142.8652   58.1227 H   0  0  0  0  0  0  0  0  0  0  0  0
    4.0293  145.5885   56.4339 C   0  0  0  0  0  0  0  0  0  0  0  0
    4.2691  146.3087   57.1964 H   0  0  0  0  0  0  0  0  0  0  0  0
    1.8844  149.2256   52.6644 C   0  0  0  0  0  0  0  0  0  0  0  0
    2.7269  148.3631   51.9980 O   0  0  0  0  0  0  0  0  0  0  0  0
    2.0909  147.3075   51.2604 C   0  0  0  0  0  0  0  0  0  0  0  0
    2.8531  146.6171   50.8877 H   0  0  0  0  0  0  0  0  0  0  0  0
    1.4033  146.7420   51.8994 H   0  0  0  0  0  0  0  0  0  0  0  0
    1.5320  147.7010   50.4053 H   0  0  0  0  0  0  0  0  0  0  0  0
  1  2  1  0
  2  3  2  0
  3  4  1  0
  3  5  1  0
  5  6  1  0
  6  7  1  0
  7  8  1  0
  7  9  1  0
  7 10  1  0
  5 11  2  0
 11 12  1  0
 11 13  1  0
 13 14  1  0
 14 15  1  0
 14 16  1  0
 14 17  1  0
 17 18  2  0
 17 19  1  0
 19 20  1  0
 19 21  1  0
 21 22  2  0
 22 23  1  0
 23 24  1  0
 24 25  2  0
 25 26  1  0
 25 27  1  0
 27 28  1  0
 27 29  1  0
 29 30  2  0
 30 31  1  0
 30 32  1  0
 32 33  1  0
 32 34  2  0
 34 35  1  0
 34 36  1  0
 36 37  1  0
 36 38  2  0
 23 39  2  0
 39 40  1  0
 40 41  3  0
 39 42  1  0
 42 43  1  0
 43 44  1  0
 43 45  1  0
 42 46  2  0
 46 47  1  0
 13 48  2  0
 48 49  1  0
 49 50  1  0
 50 51  1  0
 50 52  1  0
 50 53  1  0
 48  2  1  0
 46 21  1  0
 38 24  1  0
 38 29  1  0
M  END
>  <score>  (371) 
7.31341

$$$$

     RDKit          3D

 55 56  0  0  0  0  0  0  0  0999 V2000
    0.2323  149.1166   51.2662 H   0  0  0  0  0  0  0  0  0  0  0  0
    0.5952  149.5499   52.1901 C   0  0  0  0  0  0  0  0  0  0  0  0
   -0.2215  150.4691   52.8680 C   0  0  0  0  0  0  0  0  0  0  0  0
   -1.9601  150.9099   52.1917 Br  0  0  0  0  0  0  0  0  0  0  0  0
    0.2409  151.0579   54.0545 C   0  0  0  0  0  0  0  0  0  0  0  0
   -0.4728  152.0032   54.7351 O   0  0  0  0  0  0  0  0  0  0  0  0
   -1.4695  151.4051   55.5555 C   0  0  0  0  0  0  0  0  0  0  0  0
   -1.9656  152.1742   56.1520 H   0  0  0  0  0  0  0  0  0  0  0  0
   -2.2130  150.8960   54.9349 H   0  0  0  0  0  0  0  0  0  0  0  0
   -1.0121  150.6769   56.2300 H   0  0  0  0  0  0  0  0  0  0  0  0
    1.4867  150.6995   54.5518 C   0  0  0  0  0  0  0  0  0  0  0  0
    1.8169  151.1361   55.4883 H   0  0  0  0  0  0  0  0  0  0  0  0
    2.3207  149.8169   53.8679 C   0  0  0  0  0  0  0  0  0  0  0  0
    3.6784  149.5867   54.4802 C   0  0  0  0  0  0  0  0  0  0  0  0
    3.8717  150.4342   55.1279 H   0  0  0  0  0  0  0  0  0  0  0  0
    4.4455  149.5613   53.7013 H   0  0  0  0  0  0  0  0  0  0  0  0
    3.7709  148.3224   55.3122 C   0  0  0  0  0  0  0  0  0  0  0  0
    3.8083  148.3443   56.5329 O   0  0  0  0  0  0  0  0  0  0  0  0
    3.8564  147.1561   54.6358 N   0  0  0  0  0  0  0  0  0  0  0  0
    3.5692  147.1873   53.6666 H   0  0  0  0  0  0  0  0  0  0  0  0
    3.7634  145.9425   55.1943 C   0  0  0  0  0  0  0  0  0  0  0  0
    3.3764  145.1198   54.2490 N   0  0  0  0  0  0  0  0  0  0  0  0
    3.1854  143.8121   54.5055 C   0  0  0  0  0  0  0  0  0  0  0  0
    2.7527  142.9012   53.3601 C   0  0  0  0  0  0  0  0  0  0  0  0
    2.5709  141.7068   53.5667 O   0  0  0  0  0  0  0  0  0  0  0  0
    2.5306  143.3522   52.0576 N   0  0  0  0  0  0  0  0  0  0  0  0
    2.7682  144.3168   51.8506 H   0  0  0  0  0  0  0  0  0  0  0  0
    1.8059  142.6301   51.0301 C   0  0  0  0  0  0  0  0  0  0  0  0
    2.3275  141.2020   50.9229 C   0  0  0  0  0  0  0  0  0  0  0  0
    3.4069  141.1926   50.7659 H   0  0  0  0  0  0  0  0  0  0  0  0
    1.8426  140.6753   50.0990 H   0  0  0  0  0  0  0  0  0  0  0  0
    2.1027  140.6583   51.8440 H   0  0  0  0  0  0  0  0  0  0  0  0
    1.9341  143.3952   49.6973 C   0  0  0  0  0  0  0  0  0  0  0  0
    1.5602  144.4197   49.8001 H   0  0  0  0  0  0  0  0  0  0  0  0
    2.9789  143.4497   49.3793 H   0  0  0  0  0  0  0  0  0  0  0  0
    1.3645  142.9076   48.9006 H   0  0  0  0  0  0  0  0  0  0  0  0
    0.3584  142.5485   51.4862 C   0  0  0  0  0  0  0  0  0  0  0  0
   -0.1162  143.5294   51.4845 H   0  0  0  0  0  0  0  0  0  0  0  0
   -0.1949  141.8900   50.8228 H   0  0  0  0  0  0  0  0  0  0  0  0
    0.3047  142.1473   52.5002 H   0  0  0  0  0  0  0  0  0  0  0  0
    3.3891  143.3567   55.8249 C   0  0  0  0  0  0  0  0  0  0  0  0
    3.2152  141.9810   56.1580 C   0  0  0  0  0  0  0  0  0  0  0  0
    3.0766  140.8439   56.3615 N   0  0  0  0  0  0  0  0  0  0  0  0
    3.7838  144.2591   56.8030 C   0  0  0  0  0  0  0  0  0  0  0  0
    3.9691  143.8632   58.0950 N   0  0  0  0  0  0  0  0  0  0  0  0
    4.4761  144.4983   58.7022 H   0  0  0  0  0  0  0  0  0  0  0  0
    4.1138  142.8695   58.2564 H   0  0  0  0  0  0  0  0  0  0  0  0
    3.9915  145.5769   56.4985 C   0  0  0  0  0  0  0  0  0  0  0  0
    4.3001  146.2908   57.2487 H   0  0  0  0  0  0  0  0  0  0  0  0
    1.8826  149.2238   52.6667 C   0  0  0  0  0  0  0  0  0  0  0  0
    2.7285  148.3749   51.9930 O   0  0  0  0  0  0  0  0  0  0  0  0
    2.0947  147.3175   51.2634 C   0  0  0  0  0  0  0  0  0  0  0  0
    1.5503  147.7131   50.3985 H   0  0  0  0  0  0  0  0  0  0  0  0
    1.3972  146.7679   51.9086 H   0  0  0  0  0  0  0  0  0  0  0  0
    2.8614  146.6211   50.9080 H   0  0  0  0  0  0  0  0  0  0  0  0
  1  2  1  0
  2  3  2  0
  3  4  1  0
  3  5  1  0
  5  6  1  0
  6  7  1  0
  7  8  1  0
  7  9  1  0
  7 10  1  0
  5 11  2  0
 11 12  1  0
 11 13  1  0
 13 14  1  0
 14 15  1  0
 14 16  1  0
 14 17  1  0
 17 18  2  0
 17 19  1  0
 19 20  1  0
 19 21  1  0
 21 22  2  0
 22 23  1  0
 23 24  1  0
 24 25  2  0
 24 26  1  0
 26 27  1  0
 26 28  1  0
 28 29  1  0
 29 30  1  0
 29 31  1  0
 29 32  1  0
 28 33  1  0
 33 34  1  0
 33 35  1  0
 33 36  1  0
 28 37  1  0
 37 38  1  0
 37 39  1  0
 37 40  1  0
 23 41  2  0
 41 42  1  0
 42 43  3  0
 41 44  1  0
 44 45  1  0
 45 46  1  0
 45 47  1  0
 44 48  2  0
 48 49  1  0
 13 50  2  0
 50 51  1  0
 51 52  1  0
 52 53  1  0
 52 54  1  0
 52 55  1  0
 50  2  1  0
 48 21  1  0
M  END
>  <score>  (372) 
7.31621

$$$$

     RDKit          3D

 56 58  0  0  0  0  0  0  0  0999 V2000
    3.7745  145.3177   47.4796 H   0  0  0  0  0  0  0  0  0  0  0  0
    3.2321  144.7678   48.2425 C   0  0  0  0  0  0  0  0  0  0  0  0
    1.8823  145.0422   48.4741 C   0  0  0  0  0  0  0  0  0  0  0  0
    1.3798  145.7976   47.8759 H   0  0  0  0  0  0  0  0  0  0  0  0
    1.1844  144.3470   49.4733 C   0  0  0  0  0  0  0  0  0  0  0  0
    0.1354  144.5747   49.6367 H   0  0  0  0  0  0  0  0  0  0  0  0
    1.8312  143.3731   50.2582 C   0  0  0  0  0  0  0  0  0  0  0  0
    1.0938  142.6235   51.3428 C   0  0  0  0  0  0  0  0  0  0  0  0
    1.3956  141.5675   51.3390 H   0  0  0  0  0  0  0  0  0  0  0  0
    0.0196  142.6534   51.1497 H   0  0  0  0  0  0  0  0  0  0  0  0
    1.3623  143.2586   52.6298 N   0  0  0  0  0  0  0  0  0  0  0  0
    1.0846  144.2329   52.7303 H   0  0  0  0  0  0  0  0  0  0  0  0
    2.3073  142.7810   53.5407 C   0  0  0  0  0  0  0  0  0  0  0  0
    2.6587  141.6076   53.4021 O   0  0  0  0  0  0  0  0  0  0  0  0
    2.8919  143.6770   54.6348 C   0  0  0  0  0  0  0  0  0  0  0  0
    3.0487  144.9946   54.3706 N   0  0  0  0  0  0  0  0  0  0  0  0
    3.5577  145.8221   55.2646 C   0  0  0  0  0  0  0  0  0  0  0  0
    3.7242  147.0187   54.6680 N   0  0  0  0  0  0  0  0  0  0  0  0
    3.5379  146.9833   53.6784 H   0  0  0  0  0  0  0  0  0  0  0  0
    3.7590  148.2343   55.2812 C   0  0  0  0  0  0  0  0  0  0  0  0
    3.8535  148.3019   56.4959 O   0  0  0  0  0  0  0  0  0  0  0  0
    3.7324  149.4849   54.3974 C   0  0  0  0  0  0  0  0  0  0  0  0
    4.0025  150.3676   54.9622 H   0  0  0  0  0  0  0  0  0  0  0  0
    4.4208  149.3590   53.5582 H   0  0  0  0  0  0  0  0  0  0  0  0
    2.3849  149.7911   53.8567 C   0  0  0  0  0  0  0  0  0  0  0  0
    1.5989  150.6939   54.5734 C   0  0  0  0  0  0  0  0  0  0  0  0
    1.9916  151.1474   55.4742 H   0  0  0  0  0  0  0  0  0  0  0  0
    0.3347  151.0595   54.1329 C   0  0  0  0  0  0  0  0  0  0  0  0
   -0.3796  151.9759   54.8623 O   0  0  0  0  0  0  0  0  0  0  0  0
   -1.4275  151.4050   55.6504 C   0  0  0  0  0  0  0  0  0  0  0  0
   -1.9451  152.2006   56.1949 H   0  0  0  0  0  0  0  0  0  0  0  0
   -1.0156  150.7044   56.3775 H   0  0  0  0  0  0  0  0  0  0  0  0
   -2.1537  150.8754   55.0259 H   0  0  0  0  0  0  0  0  0  0  0  0
   -0.1425  150.5013   52.9350 C   0  0  0  0  0  0  0  0  0  0  0  0
   -1.8683  150.9830   52.2747 Br  0  0  0  0  0  0  0  0  0  0  0  0
    0.6611  149.6065   52.1970 C   0  0  0  0  0  0  0  0  0  0  0  0
    0.3071  149.2028   51.2540 H   0  0  0  0  0  0  0  0  0  0  0  0
    1.9370  149.2396   52.6503 C   0  0  0  0  0  0  0  0  0  0  0  0
    2.7761  148.3994   51.9511 O   0  0  0  0  0  0  0  0  0  0  0  0
    2.1668  147.2933   51.2794 C   0  0  0  0  0  0  0  0  0  0  0  0
    2.9492  146.5887   50.9771 H   0  0  0  0  0  0  0  0  0  0  0  0
    1.6330  147.6314   50.3870 H   0  0  0  0  0  0  0  0  0  0  0  0
    1.4693  146.7712   51.9430 H   0  0  0  0  0  0  0  0  0  0  0  0
    3.9143  145.4445   56.5309 C   0  0  0  0  0  0  0  0  0  0  0  0
    4.3309  146.1366   57.2518 H   0  0  0  0  0  0  0  0  0  0  0  0
    3.7683  144.1153   56.8233 C   0  0  0  0  0  0  0  0  0  0  0  0
    4.1553  143.7199   58.0511 N   0  0  0  0  0  0  0  0  0  0  0  0
    4.0730  142.7417   58.3204 H   0  0  0  0  0  0  0  0  0  0  0  0
    4.5098  144.4236   58.6923 H   0  0  0  0  0  0  0  0  0  0  0  0
    3.2775  143.2043   55.9012 C   0  0  0  0  0  0  0  0  0  0  0  0
    3.1544  141.8234   56.2406 C   0  0  0  0  0  0  0  0  0  0  0  0
    3.0402  140.6903   56.4825 N   0  0  0  0  0  0  0  0  0  0  0  0
    3.1863  143.1039   50.0078 C   0  0  0  0  0  0  0  0  0  0  0  0
    3.7086  142.3579   50.5998 H   0  0  0  0  0  0  0  0  0  0  0  0
    3.8793  143.7918   49.0043 C   0  0  0  0  0  0  0  0  0  0  0  0
    4.9234  143.5629   48.8236 H   0  0  0  0  0  0  0  0  0  0  0  0
  1  2  1  0
  2  3  2  0
  3  4  1  0
  3  5  1  0
  5  6  1  0
  5  7  2  0
  7  8  1  0
  8  9  1  0
  8 10  1  0
  8 11  1  0
 11 12  1  0
 11 13  1  0
 13 14  2  0
 13 15  1  0
 15 16  2  0
 16 17  1  0
 17 18  1  0
 18 19  1  0
 18 20  1  0
 20 21  2  0
 20 22  1  0
 22 23  1  0
 22 24  1  0
 22 25  1  0
 25 26  2  0
 26 27  1  0
 26 28  1  0
 28 29  1  0
 29 30  1  0
 30 31  1  0
 30 32  1  0
 30 33  1  0
 28 34  2  0
 34 35  1  0
 34 36  1  0
 36 37  1  0
 36 38  2  0
 38 39  1  0
 39 40  1  0
 40 41  1  0
 40 42  1  0
 40 43  1  0
 17 44  2  0
 44 45  1  0
 44 46  1  0
 46 47  1  0
 47 48  1  0
 47 49  1  0
 46 50  2  0
 50 51  1  0
 51 52  3  0
  7 53  1  0
 53 54  1  0
 53 55  2  0
 55 56  1  0
 55  2  1  0
 50 15  1  0
 38 25  1  0
M  END
>  <score>  (373) 
7.3174

$$$$

     RDKit          3D

 49 51  0  0  0  0  0  0  0  0999 V2000
    3.2025  140.1790   51.6901 H   0  0  0  0  0  0  0  0  0  0  0  0
    2.6049  140.9831   52.0951 C   0  0  0  0  0  0  0  0  0  0  0  0
    3.0540  141.6750   53.2131 C   0  0  0  0  0  0  0  0  0  0  0  0
    3.9955  141.3737   53.6709 H   0  0  0  0  0  0  0  0  0  0  0  0
    2.3377  142.8024   53.6502 C   0  0  0  0  0  0  0  0  0  0  0  0
    2.8832  143.6857   54.6716 C   0  0  0  0  0  0  0  0  0  0  0  0
    3.0157  144.9734   54.3441 N   0  0  0  0  0  0  0  0  0  0  0  0
    3.5303  145.8036   55.2264 C   0  0  0  0  0  0  0  0  0  0  0  0
    3.7056  146.9894   54.6240 N   0  0  0  0  0  0  0  0  0  0  0  0
    3.4892  146.9472   53.6423 H   0  0  0  0  0  0  0  0  0  0  0  0
    3.7522  148.1973   55.2569 C   0  0  0  0  0  0  0  0  0  0  0  0
    3.8402  148.2531   56.4719 O   0  0  0  0  0  0  0  0  0  0  0  0
    3.7169  149.4670   54.4068 C   0  0  0  0  0  0  0  0  0  0  0  0
    4.4122  149.3754   53.5723 H   0  0  0  0  0  0  0  0  0  0  0  0
    3.9938  150.3259   55.0041 H   0  0  0  0  0  0  0  0  0  0  0  0
    2.3690  149.7808   53.8637 C   0  0  0  0  0  0  0  0  0  0  0  0
    1.5875  150.6884   54.5770 C   0  0  0  0  0  0  0  0  0  0  0  0
    1.9803  151.1437   55.4790 H   0  0  0  0  0  0  0  0  0  0  0  0
    0.3251  151.0529   54.1251 C   0  0  0  0  0  0  0  0  0  0  0  0
   -0.3815  151.9760   54.8497 O   0  0  0  0  0  0  0  0  0  0  0  0
   -1.4248  151.4038   55.6385 C   0  0  0  0  0  0  0  0  0  0  0  0
   -2.1494  150.8781   55.0099 H   0  0  0  0  0  0  0  0  0  0  0  0
   -1.9386  152.2013   56.1832 H   0  0  0  0  0  0  0  0  0  0  0  0
   -1.0107  150.6981   56.3607 H   0  0  0  0  0  0  0  0  0  0  0  0
   -0.1535  150.4922   52.9246 C   0  0  0  0  0  0  0  0  0  0  0  0
   -1.8855  150.9849   52.2742 Br  0  0  0  0  0  0  0  0  0  0  0  0
    0.6487  149.5940   52.1895 C   0  0  0  0  0  0  0  0  0  0  0  0
    0.3002  149.1929   51.2422 H   0  0  0  0  0  0  0  0  0  0  0  0
    1.9243  149.2317   52.6534 C   0  0  0  0  0  0  0  0  0  0  0  0
    2.7711  148.4039   51.9532 O   0  0  0  0  0  0  0  0  0  0  0  0
    2.1598  147.3004   51.2813 C   0  0  0  0  0  0  0  0  0  0  0  0
    2.9415  146.5992   50.9687 H   0  0  0  0  0  0  0  0  0  0  0  0
    1.4688  146.7750   51.9512 H   0  0  0  0  0  0  0  0  0  0  0  0
    1.6167  147.6442   50.3952 H   0  0  0  0  0  0  0  0  0  0  0  0
    3.8937  145.4445   56.4953 C   0  0  0  0  0  0  0  0  0  0  0  0
    4.3126  146.1312   57.2169 H   0  0  0  0  0  0  0  0  0  0  0  0
    3.7597  144.1227   56.8039 C   0  0  0  0  0  0  0  0  0  0  0  0
    4.1594  143.7312   58.0256 N   0  0  0  0  0  0  0  0  0  0  0  0
    4.4941  144.4345   58.6754 H   0  0  0  0  0  0  0  0  0  0  0  0
    4.0646  142.7569   58.2973 H   0  0  0  0  0  0  0  0  0  0  0  0
    3.2764  143.2030   55.9072 C   0  0  0  0  0  0  0  0  0  0  0  0
    3.1581  141.8174   56.2291 C   0  0  0  0  0  0  0  0  0  0  0  0
    3.0505  140.6789   56.4505 N   0  0  0  0  0  0  0  0  0  0  0  0
    1.1352  143.1539   53.0293 C   0  0  0  0  0  0  0  0  0  0  0  0
    0.4646  144.2655   53.4100 F   0  0  0  0  0  0  0  0  0  0  0  0
    0.6567  142.3905   51.9752 C   0  0  0  0  0  0  0  0  0  0  0  0
   -0.2907  142.6437   51.5235 H   0  0  0  0  0  0  0  0  0  0  0  0
    1.4222  141.3546   51.4537 C   0  0  0  0  0  0  0  0  0  0  0  0
    1.0535  140.7860   50.2870 F   0  0  0  0  0  0  0  0  0  0  0  0
  1  2  1  0
  2  3  2  0
  3  4  1  0
  3  5  1  0
  5  6  1  0
  6  7  2  0
  7  8  1  0
  8  9  1  0
  9 10  1  0
  9 11  1  0
 11 12  2  0
 11 13  1  0
 13 14  1  0
 13 15  1  0
 13 16  1  0
 16 17  2  0
 17 18  1  0
 17 19  1  0
 19 20  1  0
 20 21  1  0
 21 22  1  0
 21 23  1  0
 21 24  1  0
 19 25  2  0
 25 26  1  0
 25 27  1  0
 27 28  1  0
 27 29  2  0
 29 30  1  0
 30 31  1  0
 31 32  1  0
 31 33  1  0
 31 34  1  0
  8 35  2  0
 35 36  1  0
 35 37  1  0
 37 38  1  0
 38 39  1  0
 38 40  1  0
 37 41  2  0
 41 42  1  0
 42 43  3  0
  5 44  2  0
 44 45  1  0
 44 46  1  0
 46 47  1  0
 46 48  2  0
 48 49  1  0
 48  2  1  0
 41  6  1  0
 29 16  1  0
M  END
>  <score>  (374) 
7.31823

$$$$

     RDKit          3D

 58 61  0  0  0  0  0  0  0  0999 V2000
    0.2671  149.1654   51.2433 H   0  0  0  0  0  0  0  0  0  0  0  0
    0.6128  149.5738   52.1864 C   0  0  0  0  0  0  0  0  0  0  0  0
   -0.1933  150.4755   52.9012 C   0  0  0  0  0  0  0  0  0  0  0  0
   -1.9273  150.9601   52.2409 Br  0  0  0  0  0  0  0  0  0  0  0  0
    0.2954  151.0441   54.0896 C   0  0  0  0  0  0  0  0  0  0  0  0
   -0.4059  151.9835   54.7896 O   0  0  0  0  0  0  0  0  0  0  0  0
   -1.4330  151.4064   55.5943 C   0  0  0  0  0  0  0  0  0  0  0  0
   -2.1640  150.8903   54.9669 H   0  0  0  0  0  0  0  0  0  0  0  0
   -1.9438  152.1870   56.1648 H   0  0  0  0  0  0  0  0  0  0  0  0
   -1.0091  150.6887   56.2987 H   0  0  0  0  0  0  0  0  0  0  0  0
    1.5461  150.6754   54.5695 C   0  0  0  0  0  0  0  0  0  0  0  0
    1.9082  151.1204   55.4909 H   0  0  0  0  0  0  0  0  0  0  0  0
    2.3418  149.7748   53.8658 C   0  0  0  0  0  0  0  0  0  0  0  0
    3.6947  149.4637   54.4261 C   0  0  0  0  0  0  0  0  0  0  0  0
    3.9403  150.2620   55.1082 H   0  0  0  0  0  0  0  0  0  0  0  0
    4.4356  149.4259   53.6222 H   0  0  0  0  0  0  0  0  0  0  0  0
    3.7323  148.1860   55.2342 C   0  0  0  0  0  0  0  0  0  0  0  0
    3.8095  148.2196   56.4497 O   0  0  0  0  0  0  0  0  0  0  0  0
    3.7303  147.0022   54.5881 N   0  0  0  0  0  0  0  0  0  0  0  0
    3.4305  146.9934   53.6263 H   0  0  0  0  0  0  0  0  0  0  0  0
    3.5932  145.8223   55.2029 C   0  0  0  0  0  0  0  0  0  0  0  0
    3.0900  145.0088   54.3203 N   0  0  0  0  0  0  0  0  0  0  0  0
    2.9285  143.7456   54.6716 C   0  0  0  0  0  0  0  0  0  0  0  0
    2.2937  142.8869   53.6425 C   0  0  0  0  0  0  0  0  0  0  0  0
    1.5557  143.4684   53.0790 H   0  0  0  0  0  0  0  0  0  0  0  0
    1.7619  142.0868   54.1539 H   0  0  0  0  0  0  0  0  0  0  0  0
    3.3246  142.3317   52.7082 C   0  0  0  0  0  0  0  0  0  0  0  0
    3.7979  143.0790   51.6234 C   0  0  0  0  0  0  0  0  0  0  0  0
    3.5419  144.1311   51.5550 H   0  0  0  0  0  0  0  0  0  0  0  0
    4.6212  142.4898   50.6601 C   0  0  0  0  0  0  0  0  0  0  0  0
    4.9836  143.0784   49.8231 H   0  0  0  0  0  0  0  0  0  0  0  0
    5.0279  141.1594   50.8085 C   0  0  0  0  0  0  0  0  0  0  0  0
    5.8189  140.5270   49.8474 C   0  0  0  0  0  0  0  0  0  0  0  0
    6.1253  141.0547   48.9548 H   0  0  0  0  0  0  0  0  0  0  0  0
    6.2797  139.2247   50.0499 C   0  0  0  0  0  0  0  0  0  0  0  0
    6.9599  138.8088   49.3136 H   0  0  0  0  0  0  0  0  0  0  0  0
    5.9384  138.5321   51.2154 C   0  0  0  0  0  0  0  0  0  0  0  0
    6.2888  137.5196   51.4089 H   0  0  0  0  0  0  0  0  0  0  0  0
    5.0989  139.1426   52.1484 C   0  0  0  0  0  0  0  0  0  0  0  0
    4.8188  138.5844   53.0288 H   0  0  0  0  0  0  0  0  0  0  0  0
    4.6403  140.4474   51.9637 C   0  0  0  0  0  0  0  0  0  0  0  0
    3.7931  141.0370   52.9038 C   0  0  0  0  0  0  0  0  0  0  0  0
    3.4833  140.5089   53.8011 H   0  0  0  0  0  0  0  0  0  0  0  0
    3.2827  143.2668   55.9225 C   0  0  0  0  0  0  0  0  0  0  0  0
    3.1610  141.8807   56.2252 C   0  0  0  0  0  0  0  0  0  0  0  0
    3.0809  140.7341   56.4000 N   0  0  0  0  0  0  0  0  0  0  0  0
    3.7686  144.1696   56.8320 C   0  0  0  0  0  0  0  0  0  0  0  0
    4.1219  143.7809   58.0764 N   0  0  0  0  0  0  0  0  0  0  0  0
    4.5024  144.4712   58.7195 H   0  0  0  0  0  0  0  0  0  0  0  0
    4.0963  142.7914   58.3159 H   0  0  0  0  0  0  0  0  0  0  0  0
    3.9220  145.4811   56.4918 C   0  0  0  0  0  0  0  0  0  0  0  0
    4.3092  146.1910   57.2020 H   0  0  0  0  0  0  0  0  0  0  0  0
    1.8903  149.2252   52.6587 C   0  0  0  0  0  0  0  0  0  0  0  0
    2.7441  148.3968   51.9726 O   0  0  0  0  0  0  0  0  0  0  0  0
    2.1329  147.3108   51.2719 C   0  0  0  0  0  0  0  0  0  0  0  0
    1.5833  147.6685   50.3970 H   0  0  0  0  0  0  0  0  0  0  0  0
    1.4460  146.7756   51.9334 H   0  0  0  0  0  0  0  0  0  0  0  0
    2.9019  146.6083   50.9354 H   0  0  0  0  0  0  0  0  0  0  0  0
  1  2  1  0
  2  3  2  0
  3  4  1  0
  3  5  1  0
  5  6  1  0
  6  7  1  0
  7  8  1  0
  7  9  1  0
  7 10  1  0
  5 11  2  0
 11 12  1  0
 11 13  1  0
 13 14  1  0
 14 15  1  0
 14 16  1  0
 14 17  1  0
 17 18  2  0
 17 19  1  0
 19 20  1  0
 19 21  1  0
 21 22  2  0
 22 23  1  0
 23 24  1  0
 24 25  1  0
 24 26  1  0
 24 27  1  0
 27 28  2  0
 28 29  1  0
 28 30  1  0
 30 31  1  0
 30 32  2  0
 32 33  1  0
 33 34  1  0
 33 35  2  0
 35 36  1  0
 35 37  1  0
 37 38  1  0
 37 39  2  0
 39 40  1  0
 39 41  1  0
 41 42  2  0
 42 43  1  0
 23 44  2  0
 44 45  1  0
 45 46  3  0
 44 47  1  0
 47 48  1  0
 48 49  1  0
 48 50  1  0
 47 51  2  0
 51 52  1  0
 13 53  2  0
 53 54  1  0
 54 55  1  0
 55 56  1  0
 55 57  1  0
 55 58  1  0
 53  2  1  0
 51 21  1  0
 42 27  1  0
 41 32  1  0
M  END
>  <score>  (375) 
7.32152

$$$$

     RDKit          3D

 54 57  0  0  0  0  0  0  0  0999 V2000
    1.0443  140.8146   47.9105 H   0  0  0  0  0  0  0  0  0  0  0  0
    1.5998  141.2993   48.7156 C   0  0  0  0  0  0  0  0  0  0  0  0
    1.0212  141.3598   49.9232 N   0  0  0  0  0  0  0  0  0  0  0  0
    1.6916  141.9365   50.9370 C   0  0  0  0  0  0  0  0  0  0  0  0
    1.1149  141.8983   52.1975 C   0  0  0  0  0  0  0  0  0  0  0  0
    0.1301  141.4539   52.2820 H   0  0  0  0  0  0  0  0  0  0  0  0
    1.8029  142.3825   53.3118 C   0  0  0  0  0  0  0  0  0  0  0  0
    1.3802  142.2785   54.3006 H   0  0  0  0  0  0  0  0  0  0  0  0
    3.0119  143.0697   53.1548 C   0  0  0  0  0  0  0  0  0  0  0  0
    3.5199  143.8215   54.3226 C   0  0  0  0  0  0  0  0  0  0  0  0
    3.7410  145.1069   54.0739 N   0  0  0  0  0  0  0  0  0  0  0  0
    3.9185  145.9274   55.0752 C   0  0  0  0  0  0  0  0  0  0  0  0
    3.8507  147.1623   54.5735 N   0  0  0  0  0  0  0  0  0  0  0  0
    3.6362  147.1758   53.5915 H   0  0  0  0  0  0  0  0  0  0  0  0
    3.7029  148.3023   55.2998 C   0  0  0  0  0  0  0  0  0  0  0  0
    3.7963  148.2739   56.5112 O   0  0  0  0  0  0  0  0  0  0  0  0
    3.6338  149.6124   54.5361 C   0  0  0  0  0  0  0  0  0  0  0  0
    3.8105  150.4429   55.2219 H   0  0  0  0  0  0  0  0  0  0  0  0
    4.4226  149.6138   53.7845 H   0  0  0  0  0  0  0  0  0  0  0  0
    2.2983  149.8363   53.8854 C   0  0  0  0  0  0  0  0  0  0  0  0
    1.4581  150.7288   54.5470 C   0  0  0  0  0  0  0  0  0  0  0  0
    1.7789  151.1702   55.4857 H   0  0  0  0  0  0  0  0  0  0  0  0
    0.2204  151.0768   54.0222 C   0  0  0  0  0  0  0  0  0  0  0  0
   -0.5304  152.0032   54.6906 O   0  0  0  0  0  0  0  0  0  0  0  0
   -1.5111  151.3974   55.5322 C   0  0  0  0  0  0  0  0  0  0  0  0
   -1.0479  150.6586   56.1918 H   0  0  0  0  0  0  0  0  0  0  0  0
   -2.2736  150.9008   54.9263 H   0  0  0  0  0  0  0  0  0  0  0  0
   -1.9945  152.1608   56.1483 H   0  0  0  0  0  0  0  0  0  0  0  0
   -0.2248  150.4638   52.8403 C   0  0  0  0  0  0  0  0  0  0  0  0
   -1.9622  150.8645   52.1409 Br  0  0  0  0  0  0  0  0  0  0  0  0
    0.5991  149.5388   52.1803 C   0  0  0  0  0  0  0  0  0  0  0  0
    0.2391  149.0654   51.2708 H   0  0  0  0  0  0  0  0  0  0  0  0
    1.8782  149.2227   52.6807 C   0  0  0  0  0  0  0  0  0  0  0  0
    2.7107  148.3351   52.0332 O   0  0  0  0  0  0  0  0  0  0  0  0
    2.0676  147.3118   51.2518 C   0  0  0  0  0  0  0  0  0  0  0  0
    1.3560  146.7540   51.8681 H   0  0  0  0  0  0  0  0  0  0  0  0
    1.5306  147.7352   50.3964 H   0  0  0  0  0  0  0  0  0  0  0  0
    2.8143  146.6058   50.8735 H   0  0  0  0  0  0  0  0  0  0  0  0
    3.9758  145.5590   56.3848 C   0  0  0  0  0  0  0  0  0  0  0  0
    4.0981  146.2858   57.1733 H   0  0  0  0  0  0  0  0  0  0  0  0
    3.8096  144.2289   56.6437 C   0  0  0  0  0  0  0  0  0  0  0  0
    3.8780  143.8391   57.9351 N   0  0  0  0  0  0  0  0  0  0  0  0
    4.0428  142.8460   58.0933 H   0  0  0  0  0  0  0  0  0  0  0  0
    4.3270  144.5119   58.5524 H   0  0  0  0  0  0  0  0  0  0  0  0
    3.5462  143.3287   55.6288 C   0  0  0  0  0  0  0  0  0  0  0  0
    3.2688  141.9558   55.9000 C   0  0  0  0  0  0  0  0  0  0  0  0
    3.0404  140.8346   56.1122 N   0  0  0  0  0  0  0  0  0  0  0  0
    3.5719  143.1792   51.8607 C   0  0  0  0  0  0  0  0  0  0  0  0
    4.4743  143.7687   51.6886 H   0  0  0  0  0  0  0  0  0  0  0  0
    2.9544  142.5472   50.7661 C   0  0  0  0  0  0  0  0  0  0  0  0
    3.5495  142.5152   49.5044 C   0  0  0  0  0  0  0  0  0  0  0  0
    4.5236  142.9794   49.3436 H   0  0  0  0  0  0  0  0  0  0  0  0
    2.8762  141.8333   48.4784 C   0  0  0  0  0  0  0  0  0  0  0  0
    3.3190  141.7038   47.4974 H   0  0  0  0  0  0  0  0  0  0  0  0
  1  2  1  0
  2  3  2  0
  3  4  1  0
  4  5  2  0
  5  6  1  0
  5  7  1  0
  7  8  1  0
  7  9  2  0
  9 10  1  0
 10 11  2  0
 11 12  1  0
 12 13  1  0
 13 14  1  0
 13 15  1  0
 15 16  2  0
 15 17  1  0
 17 18  1  0
 17 19  1  0
 17 20  1  0
 20 21  2  0
 21 22  1  0
 21 23  1  0
 23 24  1  0
 24 25  1  0
 25 26  1  0
 25 27  1  0
 25 28  1  0
 23 29  2  0
 29 30  1  0
 29 31  1  0
 31 32  1  0
 31 33  2  0
 33 34  1  0
 34 35  1  0
 35 36  1  0
 35 37  1  0
 35 38  1  0
 12 39  2  0
 39 40  1  0
 39 41  1  0
 41 42  1  0
 42 43  1  0
 42 44  1  0
 41 45  2  0
 45 46  1  0
 46 47  3  0
  9 48  1  0
 48 49  1  0
 48 50  2  0
 50 51  1  0
 51 52  1  0
 51 53  2  0
 53 54  1  0
 53  2  1  0
 50  4  1  0
 45 10  1  0
 33 20  1  0
M  END
>  <score>  (376) 
7.32403

$$$$

     RDKit          3D

 53 55  0  0  0  0  0  0  0  0999 V2000
    1.3814  140.8828   47.6702 H   0  0  0  0  0  0  0  0  0  0  0  0
    1.5009  141.3859   48.6234 C   0  0  0  0  0  0  0  0  0  0  0  0
    2.5173  140.9737   49.4818 C   0  0  0  0  0  0  0  0  0  0  0  0
    3.2089  140.2033   49.1723 H   0  0  0  0  0  0  0  0  0  0  0  0
    2.6723  141.5546   50.7380 C   0  0  0  0  0  0  0  0  0  0  0  0
    3.4797  141.2267   51.3847 H   0  0  0  0  0  0  0  0  0  0  0  0
    1.8135  142.5862   51.1177 C   0  0  0  0  0  0  0  0  0  0  0  0
    1.9020  143.2211   52.3395 N   0  0  0  0  0  0  0  0  0  0  0  0
    1.3776  144.0848   52.4255 H   0  0  0  0  0  0  0  0  0  0  0  0
    2.5513  142.7364   53.4743 C   0  0  0  0  0  0  0  0  0  0  0  0
    2.8462  141.5418   53.5178 O   0  0  0  0  0  0  0  0  0  0  0  0
    2.9464  143.6710   54.6064 C   0  0  0  0  0  0  0  0  0  0  0  0
    3.0651  144.9808   54.3141 N   0  0  0  0  0  0  0  0  0  0  0  0
    3.5435  145.8169   55.2066 C   0  0  0  0  0  0  0  0  0  0  0  0
    3.6998  147.0109   54.6061 N   0  0  0  0  0  0  0  0  0  0  0  0
    3.4448  147.0143   53.6286 H   0  0  0  0  0  0  0  0  0  0  0  0
    3.7337  148.1981   55.2595 C   0  0  0  0  0  0  0  0  0  0  0  0
    3.8098  148.2426   56.4762 O   0  0  0  0  0  0  0  0  0  0  0  0
    3.7036  149.4734   54.4349 C   0  0  0  0  0  0  0  0  0  0  0  0
    4.4439  149.4315   53.6235 H   0  0  0  0  0  0  0  0  0  0  0  0
    3.9381  150.2850   55.1130 H   0  0  0  0  0  0  0  0  0  0  0  0
    2.3426  149.7680   53.8707 C   0  0  0  0  0  0  0  0  0  0  0  0
    1.5416  150.6717   54.5715 C   0  0  0  0  0  0  0  0  0  0  0  0
    1.8993  151.1237   55.4908 H   0  0  0  0  0  0  0  0  0  0  0  0
    0.2927  151.0512   54.0896 C   0  0  0  0  0  0  0  0  0  0  0  0
   -0.4149  151.9896   54.7876 O   0  0  0  0  0  0  0  0  0  0  0  0
   -1.4373  151.4048   55.5916 C   0  0  0  0  0  0  0  0  0  0  0  0
   -1.0063  150.6864   56.2943 H   0  0  0  0  0  0  0  0  0  0  0  0
   -1.9437  152.1888   56.1621 H   0  0  0  0  0  0  0  0  0  0  0  0
   -2.1692  150.8904   54.9603 H   0  0  0  0  0  0  0  0  0  0  0  0
   -0.1963  150.4739   52.9050 C   0  0  0  0  0  0  0  0  0  0  0  0
   -1.9276  150.9536   52.2358 Br  0  0  0  0  0  0  0  0  0  0  0  0
    0.6103  149.5711   52.1869 C   0  0  0  0  0  0  0  0  0  0  0  0
    0.2658  149.1567   51.2435 H   0  0  0  0  0  0  0  0  0  0  0  0
    1.8908  149.2203   52.6587 C   0  0  0  0  0  0  0  0  0  0  0  0
    2.7422  148.3857   51.9753 O   0  0  0  0  0  0  0  0  0  0  0  0
    2.1284  147.3088   51.2687 C   0  0  0  0  0  0  0  0  0  0  0  0
    2.8991  146.6007   50.9464 H   0  0  0  0  0  0  0  0  0  0  0  0
    1.4251  146.7861   51.9246 H   0  0  0  0  0  0  0  0  0  0  0  0
    1.5993  147.6797   50.3861 H   0  0  0  0  0  0  0  0  0  0  0  0
    3.8914  145.4607   56.4857 C   0  0  0  0  0  0  0  0  0  0  0  0
    4.3117  146.1641   57.1884 H   0  0  0  0  0  0  0  0  0  0  0  0
    3.7413  144.1461   56.8282 C   0  0  0  0  0  0  0  0  0  0  0  0
    4.1273  143.7732   58.0761 N   0  0  0  0  0  0  0  0  0  0  0  0
    4.4954  144.4868   58.7045 H   0  0  0  0  0  0  0  0  0  0  0  0
    4.1047  142.7873   58.3406 H   0  0  0  0  0  0  0  0  0  0  0  0
    3.2706  143.2289   55.9047 C   0  0  0  0  0  0  0  0  0  0  0  0
    3.1678  141.8500   56.2547 C   0  0  0  0  0  0  0  0  0  0  0  0
    3.1027  140.7162   56.5072 N   0  0  0  0  0  0  0  0  0  0  0  0
    0.8668  143.0743   50.2275 C   0  0  0  0  0  0  0  0  0  0  0  0
    0.2517  143.9282   50.5008 H   0  0  0  0  0  0  0  0  0  0  0  0
    0.6892  142.4680   48.9879 C   0  0  0  0  0  0  0  0  0  0  0  0
   -0.0815  142.8458   48.3323 H   0  0  0  0  0  0  0  0  0  0  0  0
  1  2  1  0
  2  3  2  0
  3  4  1  0
  3  5  1  0
  5  6  1  0
  5  7  2  0
  7  8  1  0
  8  9  1  0
  8 10  1  0
 10 11  2  0
 10 12  1  0
 12 13  2  0
 13 14  1  0
 14 15  1  0
 15 16  1  0
 15 17  1  0
 17 18  2  0
 17 19  1  0
 19 20  1  0
 19 21  1  0
 19 22  1  0
 22 23  2  0
 23 24  1  0
 23 25  1  0
 25 26  1  0
 26 27  1  0
 27 28  1  0
 27 29  1  0
 27 30  1  0
 25 31  2  0
 31 32  1  0
 31 33  1  0
 33 34  1  0
 33 35  2  0
 35 36  1  0
 36 37  1  0
 37 38  1  0
 37 39  1  0
 37 40  1  0
 14 41  2  0
 41 42  1  0
 41 43  1  0
 43 44  1  0
 44 45  1  0
 44 46  1  0
 43 47  2  0
 47 48  1  0
 48 49  3  0
  7 50  1  0
 50 51  1  0
 50 52  2  0
 52 53  1  0
 52  2  1  0
 47 12  1  0
 35 22  1  0
M  END
>  <score>  (377) 
7.32497

$$$$

     RDKit          3D

 58 60  0  0  0  0  0  0  0  0999 V2000
    0.4424  142.4560   48.1242 H   0  0  0  0  0  0  0  0  0  0  0  0
    0.4761  142.0090   48.9869 O   0  0  0  0  0  0  0  0  0  0  0  0
    1.7196  142.2845   49.6462 C   0  0  0  0  0  0  0  0  0  0  0  0
    1.8360  143.3644   49.7887 H   0  0  0  0  0  0  0  0  0  0  0  0
    2.5454  141.9331   49.0194 H   0  0  0  0  0  0  0  0  0  0  0  0
    1.7573  141.5650   51.0021 C   0  0  0  0  0  0  0  0  0  0  0  0
    1.5247  140.5195   50.8064 H   0  0  0  0  0  0  0  0  0  0  0  0
    3.1562  141.6376   51.6620 C   0  0  0  0  0  0  0  0  0  0  0  0
    3.7584  140.7887   51.3271 H   0  0  0  0  0  0  0  0  0  0  0  0
    3.6584  142.5512   51.3356 H   0  0  0  0  0  0  0  0  0  0  0  0
    3.1113  141.6542   53.2016 C   0  0  0  0  0  0  0  0  0  0  0  0
    4.1302  141.7208   53.5815 H   0  0  0  0  0  0  0  0  0  0  0  0
    2.6895  140.7233   53.5867 H   0  0  0  0  0  0  0  0  0  0  0  0
    2.3172  142.8043   53.6682 N   0  0  0  0  0  0  0  0  0  0  0  0
    2.8601  143.6612   54.6168 C   0  0  0  0  0  0  0  0  0  0  0  0
    2.9904  144.9288   54.2607 N   0  0  0  0  0  0  0  0  0  0  0  0
    3.5122  145.7459   55.1335 C   0  0  0  0  0  0  0  0  0  0  0  0
    3.6622  146.9243   54.5272 N   0  0  0  0  0  0  0  0  0  0  0  0
    3.3678  146.9126   53.5629 H   0  0  0  0  0  0  0  0  0  0  0  0
    3.7228  148.1091   55.1893 C   0  0  0  0  0  0  0  0  0  0  0  0
    3.8022  148.1340   56.4020 O   0  0  0  0  0  0  0  0  0  0  0  0
    3.6829  149.4199   54.4255 C   0  0  0  0  0  0  0  0  0  0  0  0
    3.9522  150.1995   55.1257 H   0  0  0  0  0  0  0  0  0  0  0  0
    4.4129  149.4109   53.6162 H   0  0  0  0  0  0  0  0  0  0  0  0
    2.3290  149.7504   53.8772 C   0  0  0  0  0  0  0  0  0  0  0  0
    1.5553  150.6695   54.5796 C   0  0  0  0  0  0  0  0  0  0  0  0
    1.9333  151.1261   55.4964 H   0  0  0  0  0  0  0  0  0  0  0  0
    0.3047  151.0310   54.0945 C   0  0  0  0  0  0  0  0  0  0  0  0
   -0.3859  151.9746   54.7967 O   0  0  0  0  0  0  0  0  0  0  0  0
   -1.4190  151.4048   55.5975 C   0  0  0  0  0  0  0  0  0  0  0  0
   -2.1455  150.8884   54.9655 H   0  0  0  0  0  0  0  0  0  0  0  0
   -1.0038  150.6845   56.3060 H   0  0  0  0  0  0  0  0  0  0  0  0
   -1.9302  152.1943   56.1569 H   0  0  0  0  0  0  0  0  0  0  0  0
   -0.1912  150.4691   52.9010 C   0  0  0  0  0  0  0  0  0  0  0  0
   -1.9263  150.9769   52.2620 Br  0  0  0  0  0  0  0  0  0  0  0  0
    0.6101  149.5672   52.1789 C   0  0  0  0  0  0  0  0  0  0  0  0
    0.2808  149.1666   51.2263 H   0  0  0  0  0  0  0  0  0  0  0  0
    1.8817  149.2135   52.6601 C   0  0  0  0  0  0  0  0  0  0  0  0
    2.7507  148.4058   51.9688 O   0  0  0  0  0  0  0  0  0  0  0  0
    2.1404  147.3157   51.2779 C   0  0  0  0  0  0  0  0  0  0  0  0
    1.4458  146.7955   51.9431 H   0  0  0  0  0  0  0  0  0  0  0  0
    2.9056  146.6041   50.9553 H   0  0  0  0  0  0  0  0  0  0  0  0
    1.5969  147.6663   50.3963 H   0  0  0  0  0  0  0  0  0  0  0  0
    3.8695  145.4177   56.4143 C   0  0  0  0  0  0  0  0  0  0  0  0
    4.2634  146.1230   57.1327 H   0  0  0  0  0  0  0  0  0  0  0  0
    3.7448  144.1055   56.7398 C   0  0  0  0  0  0  0  0  0  0  0  0
    4.1450  143.7498   57.9721 N   0  0  0  0  0  0  0  0  0  0  0  0
    4.0648  142.7804   58.2596 H   0  0  0  0  0  0  0  0  0  0  0  0
    4.4552  144.4680   58.6220 H   0  0  0  0  0  0  0  0  0  0  0  0
    3.2583  143.1883   55.8449 C   0  0  0  0  0  0  0  0  0  0  0  0
    3.1515  141.7987   56.1518 C   0  0  0  0  0  0  0  0  0  0  0  0
    3.0815  140.6676   56.4058 N   0  0  0  0  0  0  0  0  0  0  0  0
    1.2135  143.2737   52.8128 C   0  0  0  0  0  0  0  0  0  0  0  0
    0.3997  143.6608   53.4290 H   0  0  0  0  0  0  0  0  0  0  0  0
    1.5649  144.0836   52.1724 H   0  0  0  0  0  0  0  0  0  0  0  0
    0.6839  142.1209   51.9481 C   0  0  0  0  0  0  0  0  0  0  0  0
    0.3791  141.3058   52.5976 H   0  0  0  0  0  0  0  0  0  0  0  0
   -0.2006  142.4365   51.3878 H   0  0  0  0  0  0  0  0  0  0  0  0
  1  2  1  0
  2  3  1  0
  3  4  1  0
  3  5  1  0
  3  6  1  0
  6  7  1  0
  6  8  1  0
  8  9  1  0
  8 10  1  0
  8 11  1  0
 11 12  1  0
 11 13  1  0
 11 14  1  0
 14 15  1  0
 15 16  2  0
 16 17  1  0
 17 18  1  0
 18 19  1  0
 18 20  1  0
 20 21  2  0
 20 22  1  0
 22 23  1  0
 22 24  1  0
 22 25  1  0
 25 26  2  0
 26 27  1  0
 26 28  1  0
 28 29  1  0
 29 30  1  0
 30 31  1  0
 30 32  1  0
 30 33  1  0
 28 34  2  0
 34 35  1  0
 34 36  1  0
 36 37  1  0
 36 38  2  0
 38 39  1  0
 39 40  1  0
 40 41  1  0
 40 42  1  0
 40 43  1  0
 17 44  2  0
 44 45  1  0
 44 46  1  0
 46 47  1  0
 47 48  1  0
 47 49  1  0
 46 50  2  0
 50 51  1  0
 51 52  3  0
 14 53  1  0
 53 54  1  0
 53 55  1  0
 53 56  1  0
 56 57  1  0
 56 58  1  0
 56  6  1  0
 50 15  1  0
 38 25  1  0
M  END
>  <score>  (378) 
7.32575

$$$$

     RDKit          3D

 54 57  0  0  0  0  0  0  0  0999 V2000
    0.3056  149.0052   51.2909 H   0  0  0  0  0  0  0  0  0  0  0  0
    0.5935  149.5079   52.2080 C   0  0  0  0  0  0  0  0  0  0  0  0
   -0.2800  150.4276   52.8048 C   0  0  0  0  0  0  0  0  0  0  0  0
   -1.9923  150.7794   52.0189 Br  0  0  0  0  0  0  0  0  0  0  0  0
    0.1138  151.0903   53.9747 C   0  0  0  0  0  0  0  0  0  0  0  0
   -0.6978  151.9987   54.5983 O   0  0  0  0  0  0  0  0  0  0  0  0
   -1.6145  151.3816   55.5063 C   0  0  0  0  0  0  0  0  0  0  0  0
   -2.4142  150.8805   54.9536 H   0  0  0  0  0  0  0  0  0  0  0  0
   -2.0604  152.1399   56.1572 H   0  0  0  0  0  0  0  0  0  0  0  0
   -1.1064  150.6436   56.1335 H   0  0  0  0  0  0  0  0  0  0  0  0
    1.3679  150.8265   54.5190 C   0  0  0  0  0  0  0  0  0  0  0  0
    1.6643  151.3672   55.4102 H   0  0  0  0  0  0  0  0  0  0  0  0
    2.2454  149.9108   53.9329 C   0  0  0  0  0  0  0  0  0  0  0  0
    3.5934  149.7678   54.5883 C   0  0  0  0  0  0  0  0  0  0  0  0
    4.3731  149.8551   53.8298 H   0  0  0  0  0  0  0  0  0  0  0  0
    3.7134  150.5822   55.3017 H   0  0  0  0  0  0  0  0  0  0  0  0
    3.7664  148.4646   55.3420 C   0  0  0  0  0  0  0  0  0  0  0  0
    3.6807  148.4014   56.5531 O   0  0  0  0  0  0  0  0  0  0  0  0
    4.1034  147.3604   54.6481 N   0  0  0  0  0  0  0  0  0  0  0  0
    4.0201  147.3892   53.6418 H   0  0  0  0  0  0  0  0  0  0  0  0
    4.0753  146.1238   55.1513 C   0  0  0  0  0  0  0  0  0  0  0  0
    3.9253  145.3390   54.1200 N   0  0  0  0  0  0  0  0  0  0  0  0
    3.7392  144.0256   54.3047 C   0  0  0  0  0  0  0  0  0  0  0  0
    3.3008  143.2021   53.1186 C   0  0  0  0  0  0  0  0  0  0  0  0
    3.8286  143.3244   51.8703 N   0  0  0  0  0  0  0  0  0  0  0  0
    3.2305  142.6990   50.8403 C   0  0  0  0  0  0  0  0  0  0  0  0
    3.7264  142.8913   49.5501 C   0  0  0  0  0  0  0  0  0  0  0  0
    4.5920  143.5353   49.4332 H   0  0  0  0  0  0  0  0  0  0  0  0
    3.0938  142.2925   48.4431 C   0  0  0  0  0  0  0  0  0  0  0  0
    3.4760  142.4466   47.4377 H   0  0  0  0  0  0  0  0  0  0  0  0
    1.9400  141.5131   48.6263 C   0  0  0  0  0  0  0  0  0  0  0  0
    1.3992  141.0705   47.7888 H   0  0  0  0  0  0  0  0  0  0  0  0
    1.4425  141.3217   49.9133 C   0  0  0  0  0  0  0  0  0  0  0  0
    0.5485  140.7375   50.0698 H   0  0  0  0  0  0  0  0  0  0  0  0
    2.0710  141.9145   51.0100 C   0  0  0  0  0  0  0  0  0  0  0  0
    1.5211  141.7898   52.2750 C   0  0  0  0  0  0  0  0  0  0  0  0
    0.5962  141.2447   52.4259 H   0  0  0  0  0  0  0  0  0  0  0  0
    2.1617  142.4128   53.3326 C   0  0  0  0  0  0  0  0  0  0  0  0
    1.7534  142.3500   54.3348 H   0  0  0  0  0  0  0  0  0  0  0  0
    3.7770  143.5005   55.6131 C   0  0  0  0  0  0  0  0  0  0  0  0
    3.5073  142.1230   55.8522 C   0  0  0  0  0  0  0  0  0  0  0  0
    3.2201  141.0048   56.0129 N   0  0  0  0  0  0  0  0  0  0  0  0
    3.9525  144.3712   56.6762 C   0  0  0  0  0  0  0  0  0  0  0  0
    3.9114  143.9653   57.9712 N   0  0  0  0  0  0  0  0  0  0  0  0
    4.2141  144.6576   58.6552 H   0  0  0  0  0  0  0  0  0  0  0  0
    4.0876  142.9806   58.1594 H   0  0  0  0  0  0  0  0  0  0  0  0
    4.0700  145.7116   56.4615 C   0  0  0  0  0  0  0  0  0  0  0  0
    4.1151  146.3922   57.2978 H   0  0  0  0  0  0  0  0  0  0  0  0
    1.8554  149.2216   52.7609 C   0  0  0  0  0  0  0  0  0  0  0  0
    2.6953  148.3028   52.1664 O   0  0  0  0  0  0  0  0  0  0  0  0
    2.0629  147.3500   51.2894 C   0  0  0  0  0  0  0  0  0  0  0  0
    1.3222  146.7620   51.8411 H   0  0  0  0  0  0  0  0  0  0  0  0
    1.5575  147.8547   50.4596 H   0  0  0  0  0  0  0  0  0  0  0  0
    2.8022  146.6610   50.8691 H   0  0  0  0  0  0  0  0  0  0  0  0
  1  2  1  0
  2  3  2  0
  3  4  1  0
  3  5  1  0
  5  6  1  0
  6  7  1  0
  7  8  1  0
  7  9  1  0
  7 10  1  0
  5 11  2  0
 11 12  1  0
 11 13  1  0
 13 14  1  0
 14 15  1  0
 14 16  1  0
 14 17  1  0
 17 18  2  0
 17 19  1  0
 19 20  1  0
 19 21  1  0
 21 22  2  0
 22 23  1  0
 23 24  1  0
 24 25  2  0
 25 26  1  0
 26 27  2  0
 27 28  1  0
 27 29  1  0
 29 30  1  0
 29 31  2  0
 31 32  1  0
 31 33  1  0
 33 34  1  0
 33 35  2  0
 35 36  1  0
 36 37  1  0
 36 38  2  0
 38 39  1  0
 23 40  2  0
 40 41  1  0
 41 42  3  0
 40 43  1  0
 43 44  1  0
 44 45  1  0
 44 46  1  0
 43 47  2  0
 47 48  1  0
 13 49  2  0
 49 50  1  0
 50 51  1  0
 51 52  1  0
 51 53  1  0
 51 54  1  0
 49  2  1  0
 47 21  1  0
 38 24  1  0
 35 26  1  0
M  END
>  <score>  (379) 
7.32778

$$$$

     RDKit          3D

 53 55  0  0  0  0  0  0  0  0999 V2000
    0.0595  142.8740   48.2266 H   0  0  0  0  0  0  0  0  0  0  0  0
    0.7915  142.5002   48.9348 C   0  0  0  0  0  0  0  0  0  0  0  0
    0.9695  143.1132   50.1909 C   0  0  0  0  0  0  0  0  0  0  0  0
    0.4046  143.9948   50.4886 H   0  0  0  0  0  0  0  0  0  0  0  0
    1.8721  142.5935   51.1123 C   0  0  0  0  0  0  0  0  0  0  0  0
    1.9724  143.2137   52.3547 N   0  0  0  0  0  0  0  0  0  0  0  0
    1.5265  144.1243   52.4441 H   0  0  0  0  0  0  0  0  0  0  0  0
    2.6318  142.7065   53.4705 C   0  0  0  0  0  0  0  0  0  0  0  0
    2.9277  141.5106   53.4806 O   0  0  0  0  0  0  0  0  0  0  0  0
    3.0184  143.6418   54.6005 C   0  0  0  0  0  0  0  0  0  0  0  0
    3.1201  144.9519   54.2919 N   0  0  0  0  0  0  0  0  0  0  0  0
    3.5472  145.8115   55.1788 C   0  0  0  0  0  0  0  0  0  0  0  0
    3.6466  147.0251   54.5975 N   0  0  0  0  0  0  0  0  0  0  0  0
    3.4347  147.0500   53.6106 H   0  0  0  0  0  0  0  0  0  0  0  0
    3.7088  148.1969   55.2722 C   0  0  0  0  0  0  0  0  0  0  0  0
    3.8127  148.1977   56.4848 O   0  0  0  0  0  0  0  0  0  0  0  0
    3.6723  149.4943   54.4814 C   0  0  0  0  0  0  0  0  0  0  0  0
    4.4481  149.4672   53.7151 H   0  0  0  0  0  0  0  0  0  0  0  0
    3.9005  150.2963   55.1718 H   0  0  0  0  0  0  0  0  0  0  0  0
    2.3279  149.7988   53.8669 C   0  0  0  0  0  0  0  0  0  0  0  0
    1.5063  150.6985   54.5512 C   0  0  0  0  0  0  0  0  0  0  0  0
    1.8386  151.1270   55.4923 H   0  0  0  0  0  0  0  0  0  0  0  0
    0.2578  151.0604   54.0562 C   0  0  0  0  0  0  0  0  0  0  0  0
   -0.4655  151.9967   54.7416 O   0  0  0  0  0  0  0  0  0  0  0  0
   -1.4735  151.4061   55.5621 C   0  0  0  0  0  0  0  0  0  0  0  0
   -1.9758  152.1739   56.1595 H   0  0  0  0  0  0  0  0  0  0  0  0
   -1.0208  150.6786   56.2392 H   0  0  0  0  0  0  0  0  0  0  0  0
   -2.2193  150.8960   54.9450 H   0  0  0  0  0  0  0  0  0  0  0  0
   -0.2068  150.4757   52.8700 C   0  0  0  0  0  0  0  0  0  0  0  0
   -1.9439  150.9068   52.1888 Br  0  0  0  0  0  0  0  0  0  0  0  0
    0.6066  149.5605   52.1881 C   0  0  0  0  0  0  0  0  0  0  0  0
    0.2363  149.1282   51.2696 H   0  0  0  0  0  0  0  0  0  0  0  0
    1.8875  149.2221   52.6615 C   0  0  0  0  0  0  0  0  0  0  0  0
    2.7292  148.3644   51.9923 O   0  0  0  0  0  0  0  0  0  0  0  0
    2.0956  147.3097   51.2557 C   0  0  0  0  0  0  0  0  0  0  0  0
    2.8592  146.6038   50.9150 H   0  0  0  0  0  0  0  0  0  0  0  0
    1.5677  147.7007   50.3795 H   0  0  0  0  0  0  0  0  0  0  0  0
    1.3834  146.7649   51.8867 H   0  0  0  0  0  0  0  0  0  0  0  0
    3.8876  145.4678   56.4573 C   0  0  0  0  0  0  0  0  0  0  0  0
    4.2831  146.2026   57.1370 H   0  0  0  0  0  0  0  0  0  0  0  0
    3.7434  144.1546   56.8230 C   0  0  0  0  0  0  0  0  0  0  0  0
    4.0689  143.8159   58.1027 N   0  0  0  0  0  0  0  0  0  0  0  0
    4.4824  144.5189   58.7069 H   0  0  0  0  0  0  0  0  0  0  0  0
    4.1353  142.8347   58.3673 H   0  0  0  0  0  0  0  0  0  0  0  0
    3.3110  143.2142   55.9072 C   0  0  0  0  0  0  0  0  0  0  0  0
    3.2030  141.8357   56.2739 C   0  0  0  0  0  0  0  0  0  0  0  0
    3.1187  140.7063   56.5305 N   0  0  0  0  0  0  0  0  0  0  0  0
    2.6834  141.5166   50.7428 C   0  0  0  0  0  0  0  0  0  0  0  0
    3.4560  141.1563   51.4137 H   0  0  0  0  0  0  0  0  0  0  0  0
    2.5516  140.9488   49.4678 C   0  0  0  0  0  0  0  0  0  0  0  0
    3.2337  140.1605   49.1618 H   0  0  0  0  0  0  0  0  0  0  0  0
    1.5799  141.3970   48.5766 C   0  0  0  0  0  0  0  0  0  0  0  0
    1.3999  140.6059   47.0248 Cl  0  0  0  0  0  0  0  0  0  0  0  0
  1  2  1  0
  2  3  2  0
  3  4  1  0
  3  5  1  0
  5  6  1  0
  6  7  1  0
  6  8  1  0
  8  9  2  0
  8 10  1  0
 10 11  2  0
 11 12  1  0
 12 13  1  0
 13 14  1  0
 13 15  1  0
 15 16  2  0
 15 17  1  0
 17 18  1  0
 17 19  1  0
 17 20  1  0
 20 21  2  0
 21 22  1  0
 21 23  1  0
 23 24  1  0
 24 25  1  0
 25 26  1  0
 25 27  1  0
 25 28  1  0
 23 29  2  0
 29 30  1  0
 29 31  1  0
 31 32  1  0
 31 33  2  0
 33 34  1  0
 34 35  1  0
 35 36  1  0
 35 37  1  0
 35 38  1  0
 12 39  2  0
 39 40  1  0
 39 41  1  0
 41 42  1  0
 42 43  1  0
 42 44  1  0
 41 45  2  0
 45 46  1  0
 46 47  3  0
  5 48  2  0
 48 49  1  0
 48 50  1  0
 50 51  1  0
 50 52  2  0
 52 53  1  0
 52  2  1  0
 45 10  1  0
 33 20  1  0
M  END
>  <score>  (380) 
7.33103

$$$$

     RDKit          3D

 50 52  0  0  0  0  0  0  0  0999 V2000
   -0.1616  145.7658   51.3411 H   0  0  0  0  0  0  0  0  0  0  0  0
    0.3810  144.8261   51.3814 C   0  0  0  0  0  0  0  0  0  0  0  0
    0.8852  144.3581   52.5986 C   0  0  0  0  0  0  0  0  0  0  0  0
    0.7333  144.9165   53.5213 H   0  0  0  0  0  0  0  0  0  0  0  0
    1.6375  143.1769   52.6349 C   0  0  0  0  0  0  0  0  0  0  0  0
    2.2152  142.7093   53.7832 O   0  0  0  0  0  0  0  0  0  0  0  0
    2.7676  143.6359   54.6361 C   0  0  0  0  0  0  0  0  0  0  0  0
    2.9251  144.9023   54.2443 N   0  0  0  0  0  0  0  0  0  0  0  0
    3.4693  145.7450   55.0864 C   0  0  0  0  0  0  0  0  0  0  0  0
    3.6292  146.9399   54.4985 N   0  0  0  0  0  0  0  0  0  0  0  0
    3.3526  146.9690   53.5308 H   0  0  0  0  0  0  0  0  0  0  0  0
    3.6881  148.1073   55.1924 C   0  0  0  0  0  0  0  0  0  0  0  0
    3.7810  148.0972   56.4071 O   0  0  0  0  0  0  0  0  0  0  0  0
    3.6817  149.4302   54.4431 C   0  0  0  0  0  0  0  0  0  0  0  0
    4.4337  149.4276   53.6481 H   0  0  0  0  0  0  0  0  0  0  0  0
    3.9188  150.2040   55.1647 H   0  0  0  0  0  0  0  0  0  0  0  0
    2.3394  149.7604   53.8663 C   0  0  0  0  0  0  0  0  0  0  0  0
    1.5388  150.6611   54.5671 C   0  0  0  0  0  0  0  0  0  0  0  0
    1.8931  151.0989   55.4929 H   0  0  0  0  0  0  0  0  0  0  0  0
    0.2929  151.0439   54.0850 C   0  0  0  0  0  0  0  0  0  0  0  0
   -0.4122  151.9856   54.7792 O   0  0  0  0  0  0  0  0  0  0  0  0
   -1.4370  151.4031   55.5796 C   0  0  0  0  0  0  0  0  0  0  0  0
   -1.9397  152.1850   56.1542 H   0  0  0  0  0  0  0  0  0  0  0  0
   -1.0074  150.6815   56.2779 H   0  0  0  0  0  0  0  0  0  0  0  0
   -2.1722  150.8929   54.9500 H   0  0  0  0  0  0  0  0  0  0  0  0
   -0.1929  150.4727   52.8992 C   0  0  0  0  0  0  0  0  0  0  0  0
   -1.9268  150.9498   52.2356 Br  0  0  0  0  0  0  0  0  0  0  0  0
    0.6134  149.5683   52.1871 C   0  0  0  0  0  0  0  0  0  0  0  0
    0.2614  149.1553   51.2489 H   0  0  0  0  0  0  0  0  0  0  0  0
    1.8919  149.2152   52.6546 C   0  0  0  0  0  0  0  0  0  0  0  0
    2.7388  148.3793   51.9679 O   0  0  0  0  0  0  0  0  0  0  0  0
    2.1165  147.3019   51.2679 C   0  0  0  0  0  0  0  0  0  0  0  0
    1.4083  146.7865   51.9243 H   0  0  0  0  0  0  0  0  0  0  0  0
    1.5913  147.6700   50.3813 H   0  0  0  0  0  0  0  0  0  0  0  0
    2.8838  146.5878   50.9528 H   0  0  0  0  0  0  0  0  0  0  0  0
    3.8397  145.4349   56.3661 C   0  0  0  0  0  0  0  0  0  0  0  0
    4.2645  146.1570   57.0470 H   0  0  0  0  0  0  0  0  0  0  0  0
    3.7023  144.1394   56.7395 C   0  0  0  0  0  0  0  0  0  0  0  0
    4.1349  143.7819   57.9634 N   0  0  0  0  0  0  0  0  0  0  0  0
    4.4455  144.5027   58.6087 H   0  0  0  0  0  0  0  0  0  0  0  0
    4.0610  142.8126   58.2636 H   0  0  0  0  0  0  0  0  0  0  0  0
    3.1860  143.2126   55.8794 C   0  0  0  0  0  0  0  0  0  0  0  0
    3.1212  141.8339   56.2213 C   0  0  0  0  0  0  0  0  0  0  0  0
    3.0844  140.6896   56.4245 N   0  0  0  0  0  0  0  0  0  0  0  0
    1.8322  142.4496   51.4612 C   0  0  0  0  0  0  0  0  0  0  0  0
    2.4318  141.5512   51.5306 H   0  0  0  0  0  0  0  0  0  0  0  0
    1.3252  142.9076   50.2429 C   0  0  0  0  0  0  0  0  0  0  0  0
    1.5207  142.3402   49.3369 H   0  0  0  0  0  0  0  0  0  0  0  0
    0.6011  144.1052   50.2032 C   0  0  0  0  0  0  0  0  0  0  0  0
    0.0856  144.5595   49.0442 F   0  0  0  0  0  0  0  0  0  0  0  0
  1  2  1  0
  2  3  2  0
  3  4  1  0
  3  5  1  0
  5  6  1  0
  6  7  1  0
  7  8  2  0
  8  9  1  0
  9 10  1  0
 10 11  1  0
 10 12  1  0
 12 13  2  0
 12 14  1  0
 14 15  1  0
 14 16  1  0
 14 17  1  0
 17 18  2  0
 18 19  1  0
 18 20  1  0
 20 21  1  0
 21 22  1  0
 22 23  1  0
 22 24  1  0
 22 25  1  0
 20 26  2  0
 26 27  1  0
 26 28  1  0
 28 29  1  0
 28 30  2  0
 30 31  1  0
 31 32  1  0
 32 33  1  0
 32 34  1  0
 32 35  1  0
  9 36  2  0
 36 37  1  0
 36 38  1  0
 38 39  1  0
 39 40  1  0
 39 41  1  0
 38 42  2  0
 42 43  1  0
 43 44  3  0
  5 45  2  0
 45 46  1  0
 45 47  1  0
 47 48  1  0
 47 49  2  0
 49 50  1  0
 49  2  1  0
 42  7  1  0
 30 17  1  0
M  END
>  <score>  (381) 
7.33634

$$$$

     RDKit          3D

 50 52  0  0  0  0  0  0  0  0999 V2000
    0.2876  149.1797   51.2363 H   0  0  0  0  0  0  0  0  0  0  0  0
    0.6262  149.5807   52.1852 C   0  0  0  0  0  0  0  0  0  0  0  0
   -0.1737  150.4814   52.9109 C   0  0  0  0  0  0  0  0  0  0  0  0
   -1.9093  150.9779   52.2636 Br  0  0  0  0  0  0  0  0  0  0  0  0
    0.3159  151.0403   54.1075 C   0  0  0  0  0  0  0  0  0  0  0  0
   -0.3832  151.9753   54.8180 O   0  0  0  0  0  0  0  0  0  0  0  0
   -1.4215  151.4056   55.6156 C   0  0  0  0  0  0  0  0  0  0  0  0
   -1.0075  150.6912   56.3295 H   0  0  0  0  0  0  0  0  0  0  0  0
   -2.1477  150.8848   54.9863 H   0  0  0  0  0  0  0  0  0  0  0  0
   -1.9371  152.1952   56.1715 H   0  0  0  0  0  0  0  0  0  0  0  0
    1.5719  150.6780   54.5807 C   0  0  0  0  0  0  0  0  0  0  0  0
    1.9548  151.1270   55.4971 H   0  0  0  0  0  0  0  0  0  0  0  0
    2.3506  149.7646   53.8700 C   0  0  0  0  0  0  0  0  0  0  0  0
    3.7025  149.4340   54.4158 C   0  0  0  0  0  0  0  0  0  0  0  0
    3.9770  150.2362   55.0844 H   0  0  0  0  0  0  0  0  0  0  0  0
    4.4245  149.3893   53.6011 H   0  0  0  0  0  0  0  0  0  0  0  0
    3.7295  148.1398   55.2088 C   0  0  0  0  0  0  0  0  0  0  0  0
    3.8108  148.1751   56.4228 O   0  0  0  0  0  0  0  0  0  0  0  0
    3.6613  146.9511   54.5531 N   0  0  0  0  0  0  0  0  0  0  0  0
    3.4167  146.9593   53.5719 H   0  0  0  0  0  0  0  0  0  0  0  0
    3.4863  145.7661   55.1545 C   0  0  0  0  0  0  0  0  0  0  0  0
    2.9601  144.9321   54.2939 N   0  0  0  0  0  0  0  0  0  0  0  0
    2.8239  143.6786   54.6713 C   0  0  0  0  0  0  0  0  0  0  0  0
    2.3632  142.8172   53.7307 N   0  0  0  0  0  0  0  0  0  0  0  0
    2.7339  141.8813   53.7277 H   0  0  0  0  0  0  0  0  0  0  0  0
    1.6327  143.2648   52.6682 C   0  0  0  0  0  0  0  0  0  0  0  0
    1.0423  144.3273   52.7573 O   0  0  0  0  0  0  0  0  0  0  0  0
    1.4228  142.3685   51.4558 C   0  0  0  0  0  0  0  0  0  0  0  0
    0.6108  141.6634   51.6107 H   0  0  0  0  0  0  0  0  0  0  0  0
    1.6126  142.9164   50.0405 C   0  0  0  0  0  0  0  0  0  0  0  0
    1.9346  143.9608   49.9365 H   0  0  0  0  0  0  0  0  0  0  0  0
    0.9511  142.5396   49.2514 H   0  0  0  0  0  0  0  0  0  0  0  0
    2.6081  141.9128   50.6056 C   0  0  0  0  0  0  0  0  0  0  0  0
    3.6077  142.2705   50.8788 H   0  0  0  0  0  0  0  0  0  0  0  0
    2.5745  140.9158   50.1586 H   0  0  0  0  0  0  0  0  0  0  0  0
    3.2196  143.1986   55.8880 C   0  0  0  0  0  0  0  0  0  0  0  0
    3.1273  141.8071   56.1974 C   0  0  0  0  0  0  0  0  0  0  0  0
    3.0680  140.6676   56.4171 N   0  0  0  0  0  0  0  0  0  0  0  0
    3.7254  144.1180   56.7632 C   0  0  0  0  0  0  0  0  0  0  0  0
    4.1591  143.7395   57.9724 N   0  0  0  0  0  0  0  0  0  0  0  0
    4.4623  144.4518   58.6282 H   0  0  0  0  0  0  0  0  0  0  0  0
    4.0491  142.7721   58.2584 H   0  0  0  0  0  0  0  0  0  0  0  0
    3.8573  145.4314   56.4304 C   0  0  0  0  0  0  0  0  0  0  0  0
    4.2865  146.1297   57.1371 H   0  0  0  0  0  0  0  0  0  0  0  0
    1.8986  149.2216   52.6568 C   0  0  0  0  0  0  0  0  0  0  0  0
    2.7581  148.4019   51.9630 O   0  0  0  0  0  0  0  0  0  0  0  0
    2.1471  147.3047   51.2799 C   0  0  0  0  0  0  0  0  0  0  0  0
    1.6290  147.6449   50.3788 H   0  0  0  0  0  0  0  0  0  0  0  0
    2.9127  146.5795   50.9879 H   0  0  0  0  0  0  0  0  0  0  0  0
    1.4308  146.8012   51.9361 H   0  0  0  0  0  0  0  0  0  0  0  0
  1  2  1  0
  2  3  2  0
  3  4  1  0
  3  5  1  0
  5  6  1  0
  6  7  1  0
  7  8  1  0
  7  9  1  0
  7 10  1  0
  5 11  2  0
 11 12  1  0
 11 13  1  0
 13 14  1  0
 14 15  1  0
 14 16  1  0
 14 17  1  0
 17 18  2  0
 17 19  1  0
 19 20  1  0
 19 21  1  0
 21 22  2  0
 22 23  1  0
 23 24  1  0
 24 25  1  0
 24 26  1  0
 26 27  2  0
 26 28  1  0
 28 29  1  0
 28 30  1  0
 30 31  1  0
 30 32  1  0
 30 33  1  0
 33 34  1  0
 33 35  1  0
 23 36  2  0
 36 37  1  0
 37 38  3  0
 36 39  1  0
 39 40  1  0
 40 41  1  0
 40 42  1  0
 39 43  2  0
 43 44  1  0
 13 45  2  0
 45 46  1  0
 46 47  1  0
 47 48  1  0
 47 49  1  0
 47 50  1  0
 45  2  1  0
 43 21  1  0
 33 28  1  0
M  END
>  <score>  (382) 
7.33658

$$$$

     RDKit          3D

 53 55  0  0  0  0  0  0  0  0999 V2000
    2.3559  142.1290   53.7184 H   0  0  0  0  0  0  0  0  0  0  0  0
    2.6199  143.1705   53.6001 C   0  0  0  0  0  0  0  0  0  0  0  0
    2.4797  143.8118   52.3670 C   0  0  0  0  0  0  0  0  0  0  0  0
    2.7992  144.8445   52.2287 H   0  0  0  0  0  0  0  0  0  0  0  0
    1.8895  143.1187   51.2710 C   0  0  0  0  0  0  0  0  0  0  0  0
    1.0351  142.0819   51.6098 C   0  0  0  0  0  0  0  0  0  0  0  0
    0.7855  141.8724   52.6420 H   0  0  0  0  0  0  0  0  0  0  0  0
    0.5929  141.2279   50.6510 C   0  0  0  0  0  0  0  0  0  0  0  0
    0.0138  140.3969   51.0221 H   0  0  0  0  0  0  0  0  0  0  0  0
    0.9287  141.4493   49.3136 C   0  0  0  0  0  0  0  0  0  0  0  0
    0.6201  140.7360   48.5626 H   0  0  0  0  0  0  0  0  0  0  0  0
    1.6943  142.5658   48.9496 C   0  0  0  0  0  0  0  0  0  0  0  0
    1.9593  142.7491   47.9130 H   0  0  0  0  0  0  0  0  0  0  0  0
    2.1813  143.4238   49.9348 C   0  0  0  0  0  0  0  0  0  0  0  0
    2.8293  144.2560   49.6559 H   0  0  0  0  0  0  0  0  0  0  0  0
    3.0948  143.8860   54.7571 C   0  0  0  0  0  0  0  0  0  0  0  0
    3.2518  145.1555   54.4789 N   0  0  0  0  0  0  0  0  0  0  0  0
    3.7059  145.9409   55.3837 C   0  0  0  0  0  0  0  0  0  0  0  0
    3.8029  147.0991   54.7352 N   0  0  0  0  0  0  0  0  0  0  0  0
    3.4795  147.0365   53.7794 H   0  0  0  0  0  0  0  0  0  0  0  0
    3.7273  148.2932   55.3481 C   0  0  0  0  0  0  0  0  0  0  0  0
    3.7944  148.3471   56.5620 O   0  0  0  0  0  0  0  0  0  0  0  0
    3.6658  149.5455   54.4997 C   0  0  0  0  0  0  0  0  0  0  0  0
    3.8747  150.3879   55.1490 H   0  0  0  0  0  0  0  0  0  0  0  0
    4.4370  149.4958   53.7305 H   0  0  0  0  0  0  0  0  0  0  0  0
    2.3213  149.7968   53.8798 C   0  0  0  0  0  0  0  0  0  0  0  0
    1.5001  150.6941   54.5592 C   0  0  0  0  0  0  0  0  0  0  0  0
    1.8388  151.1324   55.4928 H   0  0  0  0  0  0  0  0  0  0  0  0
    0.2598  151.0581   54.0524 C   0  0  0  0  0  0  0  0  0  0  0  0
   -0.4670  151.9917   54.7355 O   0  0  0  0  0  0  0  0  0  0  0  0
   -1.4744  151.4003   55.5547 C   0  0  0  0  0  0  0  0  0  0  0  0
   -1.9704  152.1712   56.1517 H   0  0  0  0  0  0  0  0  0  0  0  0
   -2.2228  150.8989   54.9357 H   0  0  0  0  0  0  0  0  0  0  0  0
   -1.0306  150.6665   56.2312 H   0  0  0  0  0  0  0  0  0  0  0  0
   -0.2043  150.4677   52.8671 C   0  0  0  0  0  0  0  0  0  0  0  0
   -1.9416  150.9021   52.1875 Br  0  0  0  0  0  0  0  0  0  0  0  0
    0.6084  149.5493   52.1844 C   0  0  0  0  0  0  0  0  0  0  0  0
    0.2456  149.1048   51.2634 H   0  0  0  0  0  0  0  0  0  0  0  0
    1.8875  149.2134   52.6710 C   0  0  0  0  0  0  0  0  0  0  0  0
    2.7259  148.3520   52.0007 O   0  0  0  0  0  0  0  0  0  0  0  0
    2.0879  147.3068   51.2537 C   0  0  0  0  0  0  0  0  0  0  0  0
    1.3787  146.7630   51.8850 H   0  0  0  0  0  0  0  0  0  0  0  0
    2.8418  146.5980   50.8977 H   0  0  0  0  0  0  0  0  0  0  0  0
    1.5520  147.7077   50.3883 H   0  0  0  0  0  0  0  0  0  0  0  0
    4.0104  145.5834   56.6683 C   0  0  0  0  0  0  0  0  0  0  0  0
    4.4009  146.2981   57.3808 H   0  0  0  0  0  0  0  0  0  0  0  0
    3.8164  144.2575   56.9733 C   0  0  0  0  0  0  0  0  0  0  0  0
    4.1040  143.8639   58.2359 N   0  0  0  0  0  0  0  0  0  0  0  0
    4.5412  144.5369   58.8638 H   0  0  0  0  0  0  0  0  0  0  0  0
    4.1572  142.8698   58.4399 H   0  0  0  0  0  0  0  0  0  0  0  0
    3.3640  143.3601   56.0164 C   0  0  0  0  0  0  0  0  0  0  0  0
    3.2128  141.9663   56.2812 C   0  0  0  0  0  0  0  0  0  0  0  0
    3.0929  140.8182   56.4345 N   0  0  0  0  0  0  0  0  0  0  0  0
  1  2  1  0
  2  3  2  3
  3  4  1  0
  3  5  1  0
  5  6  2  0
  6  7  1  0
  6  8  1  0
  8  9  1  0
  8 10  2  0
 10 11  1  0
 10 12  1  0
 12 13  1  0
 12 14  2  0
 14 15  1  0
  2 16  1  0
 16 17  2  0
 17 18  1  0
 18 19  1  0
 19 20  1  0
 19 21  1  0
 21 22  2  0
 21 23  1  0
 23 24  1  0
 23 25  1  0
 23 26  1  0
 26 27  2  0
 27 28  1  0
 27 29  1  0
 29 30  1  0
 30 31  1  0
 31 32  1  0
 31 33  1  0
 31 34  1  0
 29 35  2  0
 35 36  1  0
 35 37  1  0
 37 38  1  0
 37 39  2  0
 39 40  1  0
 40 41  1  0
 41 42  1  0
 41 43  1  0
 41 44  1  0
 18 45  2  0
 45 46  1  0
 45 47  1  0
 47 48  1  0
 48 49  1  0
 48 50  1  0
 47 51  2  0
 51 52  1  0
 52 53  3  0
 14  5  1  0
 51 16  1  0
 39 26  1  0
M  END
>  <score>  (383) 
7.33688

$$$$

     RDKit          3D

 51 53  0  0  0  0  0  0  0  0999 V2000
    3.1765  141.1771   52.1235 H   0  0  0  0  0  0  0  0  0  0  0  0
    2.5868  141.2421   51.3513 O   0  0  0  0  0  0  0  0  0  0  0  0
    1.8606  142.4085   51.4018 C   0  0  0  0  0  0  0  0  0  0  0  0
    1.3770  142.9310   50.2035 C   0  0  0  0  0  0  0  0  0  0  0  0
    1.5815  142.3873   49.2936 H   0  0  0  0  0  0  0  0  0  0  0  0
    0.6857  144.1431   50.1564 C   0  0  0  0  0  0  0  0  0  0  0  0
    0.1300  144.7752   48.6278 Cl  0  0  0  0  0  0  0  0  0  0  0  0
    0.4248  144.8169   51.3511 C   0  0  0  0  0  0  0  0  0  0  0  0
   -0.1233  145.7542   51.3324 H   0  0  0  0  0  0  0  0  0  0  0  0
    0.9053  144.3089   52.5679 C   0  0  0  0  0  0  0  0  0  0  0  0
    0.7299  144.8490   53.4959 H   0  0  0  0  0  0  0  0  0  0  0  0
    1.6694  143.1273   52.6002 C   0  0  0  0  0  0  0  0  0  0  0  0
    2.2599  142.7033   53.7762 O   0  0  0  0  0  0  0  0  0  0  0  0
    2.7830  143.6459   54.6394 C   0  0  0  0  0  0  0  0  0  0  0  0
    2.9377  144.9150   54.2458 N   0  0  0  0  0  0  0  0  0  0  0  0
    3.4787  145.7530   55.0947 C   0  0  0  0  0  0  0  0  0  0  0  0
    3.6381  146.9453   54.5030 N   0  0  0  0  0  0  0  0  0  0  0  0
    3.3587  146.9670   53.5337 H   0  0  0  0  0  0  0  0  0  0  0  0
    3.6935  148.1118   55.1999 C   0  0  0  0  0  0  0  0  0  0  0  0
    3.7821  148.1082   56.4177 O   0  0  0  0  0  0  0  0  0  0  0  0
    3.6812  149.4301   54.4437 C   0  0  0  0  0  0  0  0  0  0  0  0
    4.4338  149.4301   53.6468 H   0  0  0  0  0  0  0  0  0  0  0  0
    3.9187  150.2049   55.1636 H   0  0  0  0  0  0  0  0  0  0  0  0
    2.3335  149.7578   53.8675 C   0  0  0  0  0  0  0  0  0  0  0  0
    1.5339  150.6653   54.5671 C   0  0  0  0  0  0  0  0  0  0  0  0
    1.8879  151.1076   55.4929 H   0  0  0  0  0  0  0  0  0  0  0  0
    0.2871  151.0473   54.0826 C   0  0  0  0  0  0  0  0  0  0  0  0
   -0.4188  151.9897   54.7769 O   0  0  0  0  0  0  0  0  0  0  0  0
   -1.4404  151.4035   55.5780 C   0  0  0  0  0  0  0  0  0  0  0  0
   -2.1756  150.8938   54.9462 H   0  0  0  0  0  0  0  0  0  0  0  0
   -1.9412  152.1874   56.1520 H   0  0  0  0  0  0  0  0  0  0  0  0
   -1.0065  150.6809   56.2748 H   0  0  0  0  0  0  0  0  0  0  0  0
   -0.1975  150.4702   52.8965 C   0  0  0  0  0  0  0  0  0  0  0  0
   -1.9319  150.9461   52.2306 Br  0  0  0  0  0  0  0  0  0  0  0  0
    0.6081  149.5622   52.1847 C   0  0  0  0  0  0  0  0  0  0  0  0
    0.2573  149.1482   51.2456 H   0  0  0  0  0  0  0  0  0  0  0  0
    1.8870  149.2103   52.6547 C   0  0  0  0  0  0  0  0  0  0  0  0
    2.7361  148.3729   51.9727 O   0  0  0  0  0  0  0  0  0  0  0  0
    2.1127  147.3018   51.2663 C   0  0  0  0  0  0  0  0  0  0  0  0
    2.8817  146.5901   50.9484 H   0  0  0  0  0  0  0  0  0  0  0  0
    1.4037  146.7855   51.9226 H   0  0  0  0  0  0  0  0  0  0  0  0
    1.5888  147.6784   50.3816 H   0  0  0  0  0  0  0  0  0  0  0  0
    3.8471  145.4421   56.3789 C   0  0  0  0  0  0  0  0  0  0  0  0
    4.2745  146.1672   57.0574 H   0  0  0  0  0  0  0  0  0  0  0  0
    3.7071  144.1436   56.7552 C   0  0  0  0  0  0  0  0  0  0  0  0
    4.1446  143.7866   57.9831 N   0  0  0  0  0  0  0  0  0  0  0  0
    4.0695  142.8215   58.2938 H   0  0  0  0  0  0  0  0  0  0  0  0
    4.4505  144.5118   58.6229 H   0  0  0  0  0  0  0  0  0  0  0  0
    3.1906  143.2191   55.8919 C   0  0  0  0  0  0  0  0  0  0  0  0
    3.1274  141.8352   56.2338 C   0  0  0  0  0  0  0  0  0  0  0  0
    3.0960  140.6936   56.4418 N   0  0  0  0  0  0  0  0  0  0  0  0
  1  2  1  0
  2  3  1  0
  3  4  2  0
  4  5  1  0
  4  6  1  0
  6  7  1  0
  6  8  2  0
  8  9  1  0
  8 10  1  0
 10 11  1  0
 10 12  2  0
 12 13  1  0
 13 14  1  0
 14 15  2  0
 15 16  1  0
 16 17  1  0
 17 18  1  0
 17 19  1  0
 19 20  2  0
 19 21  1  0
 21 22  1  0
 21 23  1  0
 21 24  1  0
 24 25  2  0
 25 26  1  0
 25 27  1  0
 27 28  1  0
 28 29  1  0
 29 30  1  0
 29 31  1  0
 29 32  1  0
 27 33  2  0
 33 34  1  0
 33 35  1  0
 35 36  1  0
 35 37  2  0
 37 38  1  0
 38 39  1  0
 39 40  1  0
 39 41  1  0
 39 42  1  0
 16 43  2  0
 43 44  1  0
 43 45  1  0
 45 46  1  0
 46 47  1  0
 46 48  1  0
 45 49  2  0
 49 50  1  0
 50 51  3  0
 12  3  1  0
 49 14  1  0
 37 24  1  0
M  END
>  <score>  (384) 
7.34112

$$$$

     RDKit          3D

 58 60  0  0  0  0  0  0  0  0999 V2000
    0.2264  149.1008   51.2584 H   0  0  0  0  0  0  0  0  0  0  0  0
    0.6002  149.5493   52.1722 C   0  0  0  0  0  0  0  0  0  0  0  0
   -0.2056  150.4694   52.8550 C   0  0  0  0  0  0  0  0  0  0  0  0
   -1.9429  150.8942   52.1730 Br  0  0  0  0  0  0  0  0  0  0  0  0
    0.2617  151.0567   54.0395 C   0  0  0  0  0  0  0  0  0  0  0  0
   -0.4710  151.9895   54.7192 O   0  0  0  0  0  0  0  0  0  0  0  0
   -1.4806  151.4022   55.5402 C   0  0  0  0  0  0  0  0  0  0  0  0
   -1.0346  150.6647   56.2100 H   0  0  0  0  0  0  0  0  0  0  0  0
   -1.9739  152.1712   56.1436 H   0  0  0  0  0  0  0  0  0  0  0  0
   -2.2346  150.9044   54.9256 H   0  0  0  0  0  0  0  0  0  0  0  0
    1.4986  150.6753   54.5527 C   0  0  0  0  0  0  0  0  0  0  0  0
    1.8254  151.0966   55.4973 H   0  0  0  0  0  0  0  0  0  0  0  0
    2.3123  149.7666   53.8728 C   0  0  0  0  0  0  0  0  0  0  0  0
    3.6405  149.4241   54.4931 C   0  0  0  0  0  0  0  0  0  0  0  0
    3.8711  150.1696   55.2559 H   0  0  0  0  0  0  0  0  0  0  0  0
    4.4280  149.4628   53.7449 H   0  0  0  0  0  0  0  0  0  0  0  0
    3.6450  148.0458   55.1336 C   0  0  0  0  0  0  0  0  0  0  0  0
    3.7563  147.9728   56.3443 O   0  0  0  0  0  0  0  0  0  0  0  0
    3.5733  146.9059   54.3834 N   0  0  0  0  0  0  0  0  0  0  0  0
    3.3100  146.9747   53.4124 H   0  0  0  0  0  0  0  0  0  0  0  0
    3.4832  145.6711   54.9290 C   0  0  0  0  0  0  0  0  0  0  0  0
    2.9536  144.7981   54.1082 N   0  0  0  0  0  0  0  0  0  0  0  0
    2.7842  143.5509   54.5518 C   0  0  0  0  0  0  0  0  0  0  0  0
    2.0681  142.6565   53.7895 O   0  0  0  0  0  0  0  0  0  0  0  0
    1.4850  143.1148   52.5435 C   0  0  0  0  0  0  0  0  0  0  0  0
    0.4786  142.6982   52.4435 H   0  0  0  0  0  0  0  0  0  0  0  0
    1.3968  144.2109   52.5206 H   0  0  0  0  0  0  0  0  0  0  0  0
    2.3782  142.6343   51.3825 C   0  0  0  0  0  0  0  0  0  0  0  0
    2.5309  141.5510   51.4761 H   0  0  0  0  0  0  0  0  0  0  0  0
    3.6863  143.3747   51.5795 C   0  0  0  0  0  0  0  0  0  0  0  0
    3.4976  144.4455   51.4545 H   0  0  0  0  0  0  0  0  0  0  0  0
    4.0495  143.2057   52.5994 H   0  0  0  0  0  0  0  0  0  0  0  0
    4.7408  142.9970   50.5671 C   0  0  0  0  0  0  0  0  0  0  0  0
    5.0928  141.9637   50.6717 H   0  0  0  0  0  0  0  0  0  0  0  0
    5.5445  143.6670   50.8225 H   0  0  0  0  0  0  0  0  0  0  0  0
    4.2550  143.2321   49.1999 N   0  0  0  0  0  0  0  0  0  0  0  0
    4.1848  144.2329   49.0106 H   0  0  0  0  0  0  0  0  0  0  0  0
    2.9903  142.5406   48.9235 C   0  0  0  0  0  0  0  0  0  0  0  0
    2.6643  142.7753   47.9051 H   0  0  0  0  0  0  0  0  0  0  0  0
    3.1793  141.4618   48.9877 H   0  0  0  0  0  0  0  0  0  0  0  0
    1.8942  142.9401   49.9419 C   0  0  0  0  0  0  0  0  0  0  0  0
    1.6580  144.0077   49.8373 H   0  0  0  0  0  0  0  0  0  0  0  0
    0.9897  142.3677   49.7148 H   0  0  0  0  0  0  0  0  0  0  0  0
    3.2241  143.1468   55.8006 C   0  0  0  0  0  0  0  0  0  0  0  0
    3.1407  141.7792   56.1829 C   0  0  0  0  0  0  0  0  0  0  0  0
    3.0974  140.6503   56.4602 N   0  0  0  0  0  0  0  0  0  0  0  0
    3.7105  144.1065   56.6440 C   0  0  0  0  0  0  0  0  0  0  0  0
    4.0214  143.8472   57.9338 N   0  0  0  0  0  0  0  0  0  0  0  0
    4.4175  144.5937   58.5052 H   0  0  0  0  0  0  0  0  0  0  0  0
    4.0974  142.8790   58.2320 H   0  0  0  0  0  0  0  0  0  0  0  0
    3.8483  145.3810   56.2135 C   0  0  0  0  0  0  0  0  0  0  0  0
    4.2337  146.1389   56.8692 H   0  0  0  0  0  0  0  0  0  0  0  0
    1.8751  149.2035   52.6576 C   0  0  0  0  0  0  0  0  0  0  0  0
    2.7091  148.3360   51.9904 O   0  0  0  0  0  0  0  0  0  0  0  0
    2.0716  147.2933   51.2423 C   0  0  0  0  0  0  0  0  0  0  0  0
    2.8299  146.6041   50.8601 H   0  0  0  0  0  0  0  0  0  0  0  0
    1.5117  147.6990   50.3959 H   0  0  0  0  0  0  0  0  0  0  0  0
    1.3847  146.7268   51.8770 H   0  0  0  0  0  0  0  0  0  0  0  0
  1  2  1  0
  2  3  2  0
  3  4  1  0
  3  5  1  0
  5  6  1  0
  6  7  1  0
  7  8  1  0
  7  9  1  0
  7 10  1  0
  5 11  2  0
 11 12  1  0
 11 13  1  0
 13 14  1  0
 14 15  1  0
 14 16  1  0
 14 17  1  0
 17 18  2  0
 17 19  1  0
 19 20  1  0
 19 21  1  0
 21 22  2  0
 22 23  1  0
 23 24  1  0
 24 25  1  0
 25 26  1  0
 25 27  1  0
 25 28  1  0
 28 29  1  0
 28 30  1  0
 30 31  1  0
 30 32  1  0
 30 33  1  0
 33 34  1  0
 33 35  1  0
 33 36  1  0
 36 37  1  0
 36 38  1  0
 38 39  1  0
 38 40  1  0
 38 41  1  0
 41 42  1  0
 41 43  1  0
 23 44  2  0
 44 45  1  0
 45 46  3  0
 44 47  1  0
 47 48  1  0
 48 49  1  0
 48 50  1  0
 47 51  2  0
 51 52  1  0
 13 53  2  0
 53 54  1  0
 54 55  1  0
 55 56  1  0
 55 57  1  0
 55 58  1  0
 53  2  1  0
 51 21  1  0
 41 28  1  0
M  END
>  <score>  (385) 
7.3426

$$$$

     RDKit          3D

 49 51  0  0  0  0  0  0  0  0999 V2000
    0.2230  149.0772   51.2670 H   0  0  0  0  0  0  0  0  0  0  0  0
    0.5964  149.5400   52.1737 C   0  0  0  0  0  0  0  0  0  0  0  0
   -0.2163  150.4631   52.8456 C   0  0  0  0  0  0  0  0  0  0  0  0
   -1.9582  150.8779   52.1583 Br  0  0  0  0  0  0  0  0  0  0  0  0
    0.2446  151.0641   54.0267 C   0  0  0  0  0  0  0  0  0  0  0  0
   -0.4965  151.9941   54.6992 O   0  0  0  0  0  0  0  0  0  0  0  0
   -1.4929  151.3990   55.5301 C   0  0  0  0  0  0  0  0  0  0  0  0
   -2.2506  150.9044   54.9166 H   0  0  0  0  0  0  0  0  0  0  0  0
   -1.0377  150.6575   56.1921 H   0  0  0  0  0  0  0  0  0  0  0  0
   -1.9818  152.1656   56.1406 H   0  0  0  0  0  0  0  0  0  0  0  0
    1.4817  150.7002   54.5485 C   0  0  0  0  0  0  0  0  0  0  0  0
    1.8023  151.1252   55.4958 H   0  0  0  0  0  0  0  0  0  0  0  0
    2.3050  149.7975   53.8735 C   0  0  0  0  0  0  0  0  0  0  0  0
    3.6354  149.5033   54.5124 C   0  0  0  0  0  0  0  0  0  0  0  0
    3.8368  150.2805   55.2459 H   0  0  0  0  0  0  0  0  0  0  0  0
    4.4316  149.5332   53.7728 H   0  0  0  0  0  0  0  0  0  0  0  0
    3.6645  148.1557   55.2059 C   0  0  0  0  0  0  0  0  0  0  0  0
    3.7688  148.1091   56.4205 O   0  0  0  0  0  0  0  0  0  0  0  0
    3.6290  147.0043   54.4817 N   0  0  0  0  0  0  0  0  0  0  0  0
    3.3725  147.0453   53.5050 H   0  0  0  0  0  0  0  0  0  0  0  0
    3.5655  145.7827   55.0522 C   0  0  0  0  0  0  0  0  0  0  0  0
    3.1784  144.8861   54.1798 N   0  0  0  0  0  0  0  0  0  0  0  0
    3.0503  143.6256   54.5852 C   0  0  0  0  0  0  0  0  0  0  0  0
    2.7243  142.6102   53.5508 C   0  0  0  0  0  0  0  0  0  0  0  0
    3.6513  142.1937   53.1551 H   0  0  0  0  0  0  0  0  0  0  0  0
    2.1466  141.8138   54.0090 H   0  0  0  0  0  0  0  0  0  0  0  0
    1.9344  143.2408   52.4635 C   0  0  0  0  0  0  0  0  0  0  0  0
    0.6225  143.6583   52.6116 N   0  0  0  0  0  0  0  0  0  0  0  0
    0.2876  144.1760   51.4500 C   0  0  0  0  0  0  0  0  0  0  0  0
   -0.6893  144.5764   51.2034 H   0  0  0  0  0  0  0  0  0  0  0  0
    1.3454  144.1018   50.5621 N   0  0  0  0  0  0  0  0  0  0  0  0
    1.3012  144.3372   49.5697 H   0  0  0  0  0  0  0  0  0  0  0  0
    2.4081  143.5200   51.2155 C   0  0  0  0  0  0  0  0  0  0  0  0
    3.4172  143.3385   50.8505 H   0  0  0  0  0  0  0  0  0  0  0  0
    3.3061  143.2345   55.8945 C   0  0  0  0  0  0  0  0  0  0  0  0
    3.2001  141.8562   56.2553 C   0  0  0  0  0  0  0  0  0  0  0  0
    3.1188  140.7106   56.4517 N   0  0  0  0  0  0  0  0  0  0  0  0
    3.7082  144.2100   56.7827 C   0  0  0  0  0  0  0  0  0  0  0  0
    3.9687  143.9102   58.0811 N   0  0  0  0  0  0  0  0  0  0  0  0
    4.4437  144.6109   58.6498 H   0  0  0  0  0  0  0  0  0  0  0  0
    4.1004  142.9247   58.2994 H   0  0  0  0  0  0  0  0  0  0  0  0
    3.8648  145.5029   56.3628 C   0  0  0  0  0  0  0  0  0  0  0  0
    4.2201  146.2773   57.0255 H   0  0  0  0  0  0  0  0  0  0  0  0
    1.8752  149.2103   52.6641 C   0  0  0  0  0  0  0  0  0  0  0  0
    2.7067  148.3292   52.0095 O   0  0  0  0  0  0  0  0  0  0  0  0
    2.0602  147.2931   51.2538 C   0  0  0  0  0  0  0  0  0  0  0  0
    1.3529  146.7408   51.8796 H   0  0  0  0  0  0  0  0  0  0  0  0
    2.8094  146.5863   50.8857 H   0  0  0  0  0  0  0  0  0  0  0  0
    1.5170  147.7008   50.3958 H   0  0  0  0  0  0  0  0  0  0  0  0
  1  2  1  0
  2  3  2  0
  3  4  1  0
  3  5  1  0
  5  6  1  0
  6  7  1  0
  7  8  1  0
  7  9  1  0
  7 10  1  0
  5 11  2  0
 11 12  1  0
 11 13  1  0
 13 14  1  0
 14 15  1  0
 14 16  1  0
 14 17  1  0
 17 18  2  0
 17 19  1  0
 19 20  1  0
 19 21  1  0
 21 22  2  0
 22 23  1  0
 23 24  1  0
 24 25  1  0
 24 26  1  0
 24 27  1  0
 27 28  1  0
 28 29  2  0
 29 30  1  0
 29 31  1  0
 31 32  1  0
 31 33  1  0
 33 34  1  0
 23 35  2  0
 35 36  1  0
 36 37  3  0
 35 38  1  0
 38 39  1  0
 39 40  1  0
 39 41  1  0
 38 42  2  0
 42 43  1  0
 13 44  2  0
 44 45  1  0
 45 46  1  0
 46 47  1  0
 46 48  1  0
 46 49  1  0
 44  2  1  0
 42 21  1  0
 33 27  2  0
M  END
>  <score>  (386) 
7.34529

$$$$

     RDKit          3D

 51 53  0  0  0  0  0  0  0  0999 V2000
    4.7039  144.3541   49.8404 H   0  0  0  0  0  0  0  0  0  0  0  0
    3.8219  143.8620   50.2096 C   0  0  0  0  0  0  0  0  0  0  0  0
    3.6637  143.6623   51.5728 C   0  0  0  0  0  0  0  0  0  0  0  0
    4.4357  143.9762   52.2498 H   0  0  0  0  0  0  0  0  0  0  0  0
    2.4977  143.0937   52.0694 C   0  0  0  0  0  0  0  0  0  0  0  0
    2.2974  142.9734   53.5148 C   0  0  0  0  0  0  0  0  0  0  0  0
    1.3413  142.2925   53.8247 O   0  0  0  0  0  0  0  0  0  0  0  0
    3.0149  143.7777   54.5708 C   0  0  0  0  0  0  0  0  0  0  0  0
    3.2927  145.0559   54.2829 N   0  0  0  0  0  0  0  0  0  0  0  0
    3.7515  145.8564   55.2139 C   0  0  0  0  0  0  0  0  0  0  0  0
    3.8126  147.0556   54.6258 N   0  0  0  0  0  0  0  0  0  0  0  0
    3.4899  147.0298   53.6686 H   0  0  0  0  0  0  0  0  0  0  0  0
    3.7656  148.2443   55.2647 C   0  0  0  0  0  0  0  0  0  0  0  0
    3.8393  148.3105   56.4806 O   0  0  0  0  0  0  0  0  0  0  0  0
    3.7012  149.4950   54.4189 C   0  0  0  0  0  0  0  0  0  0  0  0
    4.4342  149.4350   53.6137 H   0  0  0  0  0  0  0  0  0  0  0  0
    3.9563  150.3272   55.0552 H   0  0  0  0  0  0  0  0  0  0  0  0
    2.3421  149.7815   53.8668 C   0  0  0  0  0  0  0  0  0  0  0  0
    1.5581  150.6863   54.5753 C   0  0  0  0  0  0  0  0  0  0  0  0
    1.9337  151.1362   55.4944 H   0  0  0  0  0  0  0  0  0  0  0  0
    0.3036  151.0417   54.0977 C   0  0  0  0  0  0  0  0  0  0  0  0
   -0.3940  151.9786   54.8049 O   0  0  0  0  0  0  0  0  0  0  0  0
   -1.4262  151.4059   55.6094 C   0  0  0  0  0  0  0  0  0  0  0  0
   -2.1525  150.8863   54.9797 H   0  0  0  0  0  0  0  0  0  0  0  0
   -1.9414  152.1924   56.1709 H   0  0  0  0  0  0  0  0  0  0  0  0
   -1.0078  150.6898   56.3193 H   0  0  0  0  0  0  0  0  0  0  0  0
   -0.1868  150.4776   52.9052 C   0  0  0  0  0  0  0  0  0  0  0  0
   -1.9200  150.9737   52.2550 Br  0  0  0  0  0  0  0  0  0  0  0  0
    0.6179  149.5773   52.1827 C   0  0  0  0  0  0  0  0  0  0  0  0
    0.2789  149.1716   51.2365 H   0  0  0  0  0  0  0  0  0  0  0  0
    1.8941  149.2286   52.6566 C   0  0  0  0  0  0  0  0  0  0  0  0
    2.7563  148.4052   51.9715 O   0  0  0  0  0  0  0  0  0  0  0  0
    2.1472  147.3110   51.2775 C   0  0  0  0  0  0  0  0  0  0  0  0
    2.9140  146.6068   50.9401 H   0  0  0  0  0  0  0  0  0  0  0  0
    1.5913  147.6585   50.4026 H   0  0  0  0  0  0  0  0  0  0  0  0
    1.4653  146.7770   51.9446 H   0  0  0  0  0  0  0  0  0  0  0  0
    3.9967  145.4952   56.5150 C   0  0  0  0  0  0  0  0  0  0  0  0
    4.2772  146.1942   57.2860 H   0  0  0  0  0  0  0  0  0  0  0  0
    3.8201  144.1782   56.8097 C   0  0  0  0  0  0  0  0  0  0  0  0
    4.1072  143.7909   58.0762 N   0  0  0  0  0  0  0  0  0  0  0  0
    4.0833  142.7977   58.2882 H   0  0  0  0  0  0  0  0  0  0  0  0
    4.5045  144.4615   58.7382 H   0  0  0  0  0  0  0  0  0  0  0  0
    3.3313  143.2903   55.8584 C   0  0  0  0  0  0  0  0  0  0  0  0
    3.1752  141.9100   56.1909 C   0  0  0  0  0  0  0  0  0  0  0  0
    3.0587  140.7813   56.4430 N   0  0  0  0  0  0  0  0  0  0  0  0
    1.5060  142.6675   51.1643 C   0  0  0  0  0  0  0  0  0  0  0  0
    0.5835  142.2226   51.5292 H   0  0  0  0  0  0  0  0  0  0  0  0
    1.6844  142.8556   49.7947 C   0  0  0  0  0  0  0  0  0  0  0  0
    0.9273  142.5572   49.0857 H   0  0  0  0  0  0  0  0  0  0  0  0
    2.8446  143.4621   49.3128 C   0  0  0  0  0  0  0  0  0  0  0  0
    3.0362  143.6521   47.9904 F   0  0  0  0  0  0  0  0  0  0  0  0
  1  2  1  0
  2  3  2  0
  3  4  1  0
  3  5  1  0
  5  6  1  0
  6  7  2  0
  6  8  1  0
  8  9  2  0
  9 10  1  0
 10 11  1  0
 11 12  1  0
 11 13  1  0
 13 14  2  0
 13 15  1  0
 15 16  1  0
 15 17  1  0
 15 18  1  0
 18 19  2  0
 19 20  1  0
 19 21  1  0
 21 22  1  0
 22 23  1  0
 23 24  1  0
 23 25  1  0
 23 26  1  0
 21 27  2  0
 27 28  1  0
 27 29  1  0
 29 30  1  0
 29 31  2  0
 31 32  1  0
 32 33  1  0
 33 34  1  0
 33 35  1  0
 33 36  1  0
 10 37  2  0
 37 38  1  0
 37 39  1  0
 39 40  1  0
 40 41  1  0
 40 42  1  0
 39 43  2  0
 43 44  1  0
 44 45  3  0
  5 46  2  0
 46 47  1  0
 46 48  1  0
 48 49  1  0
 48 50  2  0
 50 51  1  0
 50  2  1  0
 43  8  1  0
 31 18  1  0
M  END
>  <score>  (387) 
7.34991

$$$$

     RDKit          3D

 53 56  0  0  0  0  0  0  0  0999 V2000
    0.2633  149.0725   51.2736 H   0  0  0  0  0  0  0  0  0  0  0  0
    0.6082  149.5471   52.1861 C   0  0  0  0  0  0  0  0  0  0  0  0
   -0.2215  150.4679   52.8479 C   0  0  0  0  0  0  0  0  0  0  0  0
   -1.9529  150.8657   52.1338 Br  0  0  0  0  0  0  0  0  0  0  0  0
    0.2170  151.0820   54.0324 C   0  0  0  0  0  0  0  0  0  0  0  0
   -0.5437  152.0032   54.6998 O   0  0  0  0  0  0  0  0  0  0  0  0
   -1.5206  151.3962   55.5474 C   0  0  0  0  0  0  0  0  0  0  0  0
   -2.0014  152.1632   56.1595 H   0  0  0  0  0  0  0  0  0  0  0  0
   -1.0583  150.6647   56.2159 H   0  0  0  0  0  0  0  0  0  0  0  0
   -2.2862  150.8948   54.9484 H   0  0  0  0  0  0  0  0  0  0  0  0
    1.4654  150.7475   54.5460 C   0  0  0  0  0  0  0  0  0  0  0  0
    1.7910  151.2051   55.4769 H   0  0  0  0  0  0  0  0  0  0  0  0
    2.3026  149.8456   53.8809 C   0  0  0  0  0  0  0  0  0  0  0  0
    3.6413  149.6092   54.5128 C   0  0  0  0  0  0  0  0  0  0  0  0
    4.4231  149.6005   53.7491 H   0  0  0  0  0  0  0  0  0  0  0  0
    3.8073  150.4555   55.1776 H   0  0  0  0  0  0  0  0  0  0  0  0
    3.7175  148.3103   55.3070 C   0  0  0  0  0  0  0  0  0  0  0  0
    3.8038  148.3111   56.5215 O   0  0  0  0  0  0  0  0  0  0  0  0
    3.8505  147.1557   54.6019 N   0  0  0  0  0  0  0  0  0  0  0  0
    3.6972  147.1836   53.6086 H   0  0  0  0  0  0  0  0  0  0  0  0
    3.8995  145.9121   55.0971 C   0  0  0  0  0  0  0  0  0  0  0  0
    3.7387  145.0795   54.1054 N   0  0  0  0  0  0  0  0  0  0  0  0
    3.5569  143.7875   54.3689 C   0  0  0  0  0  0  0  0  0  0  0  0
    3.0634  143.0287   53.2085 C   0  0  0  0  0  0  0  0  0  0  0  0
    1.7831  142.4526   53.2876 C   0  0  0  0  0  0  0  0  0  0  0  0
    1.2944  142.3510   54.2356 H   0  0  0  0  0  0  0  0  0  0  0  0
    1.0782  142.0809   52.1420 C   0  0  0  0  0  0  0  0  0  0  0  0
    0.0589  141.7103   52.1680 H   0  0  0  0  0  0  0  0  0  0  0  0
    1.7328  142.1281   50.9305 C   0  0  0  0  0  0  0  0  0  0  0  0
    1.2723  141.8518   49.6032 C   0  0  0  0  0  0  0  0  0  0  0  0
    0.2533  141.6880   49.3132 H   0  0  0  0  0  0  0  0  0  0  0  0
    2.3601  141.8754   48.7834 C   0  0  0  0  0  0  0  0  0  0  0  0
    2.3410  141.6688   47.7236 H   0  0  0  0  0  0  0  0  0  0  0  0
    3.4593  142.2525   49.5483 N   0  0  0  0  0  0  0  0  0  0  0  0
    4.4319  142.2097   49.2514 H   0  0  0  0  0  0  0  0  0  0  0  0
    3.0604  142.4870   50.8496 C   0  0  0  0  0  0  0  0  0  0  0  0
    3.7036  143.0350   51.9481 C   0  0  0  0  0  0  0  0  0  0  0  0
    4.6544  143.5041   51.7495 H   0  0  0  0  0  0  0  0  0  0  0  0
    3.5916  143.3033   55.6757 C   0  0  0  0  0  0  0  0  0  0  0  0
    3.2965  141.9395   55.9784 C   0  0  0  0  0  0  0  0  0  0  0  0
    3.0553  140.8232   56.2001 N   0  0  0  0  0  0  0  0  0  0  0  0
    3.8511  144.2157   56.6718 C   0  0  0  0  0  0  0  0  0  0  0  0
    3.9289  143.8548   57.9664 N   0  0  0  0  0  0  0  0  0  0  0  0
    4.0549  142.8663   58.1685 H   0  0  0  0  0  0  0  0  0  0  0  0
    4.3298  144.5467   58.5936 H   0  0  0  0  0  0  0  0  0  0  0  0
    3.9788  145.5437   56.4035 C   0  0  0  0  0  0  0  0  0  0  0  0
    4.1198  146.2684   57.1871 H   0  0  0  0  0  0  0  0  0  0  0  0
    1.8836  149.2270   52.6834 C   0  0  0  0  0  0  0  0  0  0  0  0
    2.7161  148.3320   52.0439 O   0  0  0  0  0  0  0  0  0  0  0  0
    2.0773  147.3102   51.2570 C   0  0  0  0  0  0  0  0  0  0  0  0
    2.8264  146.6063   50.8790 H   0  0  0  0  0  0  0  0  0  0  0  0
    1.5444  147.7328   50.3983 H   0  0  0  0  0  0  0  0  0  0  0  0
    1.3653  146.7511   51.8718 H   0  0  0  0  0  0  0  0  0  0  0  0
  1  2  1  0
  2  3  2  0
  3  4  1  0
  3  5  1  0
  5  6  1  0
  6  7  1  0
  7  8  1  0
  7  9  1  0
  7 10  1  0
  5 11  2  0
 11 12  1  0
 11 13  1  0
 13 14  1  0
 14 15  1  0
 14 16  1  0
 14 17  1  0
 17 18  2  0
 17 19  1  0
 19 20  1  0
 19 21  1  0
 21 22  2  0
 22 23  1  0
 23 24  1  0
 24 25  2  0
 25 26  1  0
 25 27  1  0
 27 28  1  0
 27 29  2  0
 29 30  1  0
 30 31  1  0
 30 32  2  0
 32 33  1  0
 32 34  1  0
 34 35  1  0
 34 36  1  0
 36 37  2  0
 37 38  1  0
 23 39  2  0
 39 40  1  0
 40 41  3  0
 39 42  1  0
 42 43  1  0
 43 44  1  0
 43 45  1  0
 42 46  2  0
 46 47  1  0
 13 48  2  0
 48 49  1  0
 49 50  1  0
 50 51  1  0
 50 52  1  0
 50 53  1  0
 48  2  1  0
 46 21  1  0
 37 24  1  0
 36 29  1  0
M  END
>  <score>  (388) 
7.34992

$$$$

     RDKit          3D

 50 52  0  0  0  0  0  0  0  0999 V2000
    1.5542  142.3316   49.3309 H   0  0  0  0  0  0  0  0  0  0  0  0
    1.3642  142.8949   50.2416 C   0  0  0  0  0  0  0  0  0  0  0  0
    1.8406  142.4305   51.4749 C   0  0  0  0  0  0  0  0  0  0  0  0
    2.4328  141.5287   51.5379 H   0  0  0  0  0  0  0  0  0  0  0  0
    1.6348  143.1630   52.6428 C   0  0  0  0  0  0  0  0  0  0  0  0
    2.2516  142.7203   53.7753 O   0  0  0  0  0  0  0  0  0  0  0  0
    2.7803  143.6520   54.6400 C   0  0  0  0  0  0  0  0  0  0  0  0
    2.9416  144.9209   54.2540 N   0  0  0  0  0  0  0  0  0  0  0  0
    3.4842  145.7530   55.1050 C   0  0  0  0  0  0  0  0  0  0  0  0
    3.6511  146.9407   54.5047 N   0  0  0  0  0  0  0  0  0  0  0  0
    3.3597  146.9530   53.5426 H   0  0  0  0  0  0  0  0  0  0  0  0
    3.6998  148.1129   55.1951 C   0  0  0  0  0  0  0  0  0  0  0  0
    3.7894  148.1109   56.4125 O   0  0  0  0  0  0  0  0  0  0  0  0
    3.6874  149.4261   54.4337 C   0  0  0  0  0  0  0  0  0  0  0  0
    4.4340  149.4229   53.6297 H   0  0  0  0  0  0  0  0  0  0  0  0
    3.9268  150.1984   55.1553 H   0  0  0  0  0  0  0  0  0  0  0  0
    2.3379  149.7574   53.8681 C   0  0  0  0  0  0  0  0  0  0  0  0
    1.5411  150.6639   54.5687 C   0  0  0  0  0  0  0  0  0  0  0  0
    1.8982  151.1109   55.4901 H   0  0  0  0  0  0  0  0  0  0  0  0
    0.2936  151.0462   54.0863 C   0  0  0  0  0  0  0  0  0  0  0  0
   -0.4109  151.9876   54.7829 O   0  0  0  0  0  0  0  0  0  0  0  0
   -1.4349  151.4035   55.5845 C   0  0  0  0  0  0  0  0  0  0  0  0
   -2.1677  150.8914   54.9520 H   0  0  0  0  0  0  0  0  0  0  0  0
   -1.0049  150.6831   56.2863 H   0  0  0  0  0  0  0  0  0  0  0  0
   -1.9384  152.1886   56.1553 H   0  0  0  0  0  0  0  0  0  0  0  0
   -0.1978  150.4702   52.9020 C   0  0  0  0  0  0  0  0  0  0  0  0
   -1.9307  150.9554   52.2382 Br  0  0  0  0  0  0  0  0  0  0  0  0
    0.6082  149.5678   52.1841 C   0  0  0  0  0  0  0  0  0  0  0  0
    0.2624  149.1569   51.2405 H   0  0  0  0  0  0  0  0  0  0  0  0
    1.8869  149.2165   52.6554 C   0  0  0  0  0  0  0  0  0  0  0  0
    2.7368  148.3824   51.9713 O   0  0  0  0  0  0  0  0  0  0  0  0
    2.1199  147.3035   51.2700 C   0  0  0  0  0  0  0  0  0  0  0  0
    1.5957  147.6699   50.3816 H   0  0  0  0  0  0  0  0  0  0  0  0
    1.4123  146.7900   51.9285 H   0  0  0  0  0  0  0  0  0  0  0  0
    2.8893  146.5896   50.9569 H   0  0  0  0  0  0  0  0  0  0  0  0
    3.8495  145.4371   56.3895 C   0  0  0  0  0  0  0  0  0  0  0  0
    4.2693  146.1557   57.0757 H   0  0  0  0  0  0  0  0  0  0  0  0
    3.7056  144.1374   56.7536 C   0  0  0  0  0  0  0  0  0  0  0  0
    4.1409  143.7769   57.9779 N   0  0  0  0  0  0  0  0  0  0  0  0
    4.0611  142.8003   58.2668 H   0  0  0  0  0  0  0  0  0  0  0  0
    4.4525  144.5052   58.6181 H   0  0  0  0  0  0  0  0  0  0  0  0
    3.1906  143.2201   55.8856 C   0  0  0  0  0  0  0  0  0  0  0  0
    3.1253  141.8392   56.2277 C   0  0  0  0  0  0  0  0  0  0  0  0
    3.0875  140.6953   56.4297 N   0  0  0  0  0  0  0  0  0  0  0  0
    0.8740  144.3315   52.5891 C   0  0  0  0  0  0  0  0  0  0  0  0
    0.6974  144.8738   53.5061 H   0  0  0  0  0  0  0  0  0  0  0  0
    0.3938  144.8147   51.3638 C   0  0  0  0  0  0  0  0  0  0  0  0
   -0.1490  145.7558   51.3517 H   0  0  0  0  0  0  0  0  0  0  0  0
    0.6610  144.1086   50.1847 C   0  0  0  0  0  0  0  0  0  0  0  0
    0.1291  144.7283   48.6364 Cl  0  0  0  0  0  0  0  0  0  0  0  0
  1  2  1  0
  2  3  2  0
  3  4  1  0
  3  5  1  0
  5  6  1  0
  6  7  1  0
  7  8  2  0
  8  9  1  0
  9 10  1  0
 10 11  1  0
 10 12  1  0
 12 13  2  0
 12 14  1  0
 14 15  1  0
 14 16  1  0
 14 17  1  0
 17 18  2  0
 18 19  1  0
 18 20  1  0
 20 21  1  0
 21 22  1  0
 22 23  1  0
 22 24  1  0
 22 25  1  0
 20 26  2  0
 26 27  1  0
 26 28  1  0
 28 29  1  0
 28 30  2  0
 30 31  1  0
 31 32  1  0
 32 33  1  0
 32 34  1  0
 32 35  1  0
  9 36  2  0
 36 37  1  0
 36 38  1  0
 38 39  1  0
 39 40  1  0
 39 41  1  0
 38 42  2  0
 42 43  1  0
 43 44  3  0
  5 45  2  0
 45 46  1  0
 45 47  1  0
 47 48  1  0
 47 49  2  0
 49 50  1  0
 49  2  1  0
 42  7  1  0
 30 17  1  0
M  END
>  <score>  (389) 
7.35099

$$$$

     RDKit          3D

 52 55  0  0  0  0  0  0  0  0999 V2000
    0.2572  149.0694   51.2669 H   0  0  0  0  0  0  0  0  0  0  0  0
    0.6066  149.5342   52.1815 C   0  0  0  0  0  0  0  0  0  0  0  0
   -0.2170  150.4598   52.8407 C   0  0  0  0  0  0  0  0  0  0  0  0
   -1.9505  150.8582   52.1289 Br  0  0  0  0  0  0  0  0  0  0  0  0
    0.2270  151.0680   54.0255 C   0  0  0  0  0  0  0  0  0  0  0  0
   -0.5285  151.9940   54.6924 O   0  0  0  0  0  0  0  0  0  0  0  0
   -1.5182  151.3932   55.5302 C   0  0  0  0  0  0  0  0  0  0  0  0
   -2.2856  150.9012   54.9250 H   0  0  0  0  0  0  0  0  0  0  0  0
   -1.9963  152.1588   56.1482 H   0  0  0  0  0  0  0  0  0  0  0  0
   -1.0612  150.6529   56.1919 H   0  0  0  0  0  0  0  0  0  0  0  0
    1.4712  150.7166   54.5450 C   0  0  0  0  0  0  0  0  0  0  0  0
    1.7972  151.1694   55.4779 H   0  0  0  0  0  0  0  0  0  0  0  0
    2.2990  149.7973   53.8872 C   0  0  0  0  0  0  0  0  0  0  0  0
    3.6320  149.5080   54.5285 C   0  0  0  0  0  0  0  0  0  0  0  0
    4.4233  149.4917   53.7765 H   0  0  0  0  0  0  0  0  0  0  0  0
    3.8318  150.3254   55.2173 H   0  0  0  0  0  0  0  0  0  0  0  0
    3.6731  148.2156   55.3357 C   0  0  0  0  0  0  0  0  0  0  0  0
    3.8134  148.2623   56.5443 O   0  0  0  0  0  0  0  0  0  0  0  0
    3.6469  147.0049   54.7129 N   0  0  0  0  0  0  0  0  0  0  0  0
    3.4038  146.9602   53.7369 H   0  0  0  0  0  0  0  0  0  0  0  0
    3.5937  145.8194   55.3495 C   0  0  0  0  0  0  0  0  0  0  0  0
    3.0997  144.9189   54.5407 N   0  0  0  0  0  0  0  0  0  0  0  0
    3.0273  143.6473   54.9479 C   0  0  0  0  0  0  0  0  0  0  0  0
    2.6135  142.7041   53.9027 C   0  0  0  0  0  0  0  0  0  0  0  0
    3.3972  141.5780   53.5490 C   0  0  0  0  0  0  0  0  0  0  0  0
    4.2598  141.3209   54.1537 H   0  0  0  0  0  0  0  0  0  0  0  0
    3.2041  140.9084   52.3253 C   0  0  0  0  0  0  0  0  0  0  0  0
    3.9013  140.1253   52.0221 H   0  0  0  0  0  0  0  0  0  0  0  0
    2.1711  141.3450   51.4757 C   0  0  0  0  0  0  0  0  0  0  0  0
    1.6643  141.0455   50.1388 C   0  0  0  0  0  0  0  0  0  0  0  0
    2.0188  140.2620   49.4822 H   0  0  0  0  0  0  0  0  0  0  0  0
    0.6683  141.8334   49.7922 N   0  0  0  0  0  0  0  0  0  0  0  0
    0.5019  142.6604   50.8640 N   0  0  0  0  0  0  0  0  0  0  0  0
   -0.2023  143.3980   50.9180 H   0  0  0  0  0  0  0  0  0  0  0  0
    1.3868  142.4017   51.8727 C   0  0  0  0  0  0  0  0  0  0  0  0
    1.5632  143.0829   53.0557 C   0  0  0  0  0  0  0  0  0  0  0  0
    0.9143  143.9348   53.2502 H   0  0  0  0  0  0  0  0  0  0  0  0
    3.4342  143.2708   56.2185 C   0  0  0  0  0  0  0  0  0  0  0  0
    3.3808  141.9049   56.6182 C   0  0  0  0  0  0  0  0  0  0  0  0
    3.3058  140.7638   56.8329 N   0  0  0  0  0  0  0  0  0  0  0  0
    3.9024  144.2612   57.0508 C   0  0  0  0  0  0  0  0  0  0  0  0
    4.3244  144.0033   58.3080 N   0  0  0  0  0  0  0  0  0  0  0  0
    4.2762  143.0577   58.6737 H   0  0  0  0  0  0  0  0  0  0  0  0
    4.5552  144.7795   58.9258 H   0  0  0  0  0  0  0  0  0  0  0  0
    4.0062  145.5512   56.6238 C   0  0  0  0  0  0  0  0  0  0  0  0
    4.4227  146.3108   57.2671 H   0  0  0  0  0  0  0  0  0  0  0  0
    1.8763  149.1962   52.6828 C   0  0  0  0  0  0  0  0  0  0  0  0
    2.7064  148.3050   52.0367 O   0  0  0  0  0  0  0  0  0  0  0  0
    2.0593  147.3013   51.2386 C   0  0  0  0  0  0  0  0  0  0  0  0
    1.5296  147.7444   50.3885 H   0  0  0  0  0  0  0  0  0  0  0  0
    1.3445  146.7379   51.8479 H   0  0  0  0  0  0  0  0  0  0  0  0
    2.8055  146.6014   50.8497 H   0  0  0  0  0  0  0  0  0  0  0  0
  1  2  1  0
  2  3  2  0
  3  4  1  0
  3  5  1  0
  5  6  1  0
  6  7  1  0
  7  8  1  0
  7  9  1  0
  7 10  1  0
  5 11  2  0
 11 12  1  0
 11 13  1  0
 13 14  1  0
 14 15  1  0
 14 16  1  0
 14 17  1  0
 17 18  2  0
 17 19  1  0
 19 20  1  0
 19 21  1  0
 21 22  2  0
 22 23  1  0
 23 24  1  0
 24 25  2  0
 25 26  1  0
 25 27  1  0
 27 28  1  0
 27 29  2  0
 29 30  1  0
 30 31  1  0
 30 32  2  0
 32 33  1  0
 33 34  1  0
 33 35  1  0
 35 36  2  0
 36 37  1  0
 23 38  2  0
 38 39  1  0
 39 40  3  0
 38 41  1  0
 41 42  1  0
 42 43  1  0
 42 44  1  0
 41 45  2  0
 45 46  1  0
 13 47  2  0
 47 48  1  0
 48 49  1  0
 49 50  1  0
 49 51  1  0
 49 52  1  0
 47  2  1  0
 45 21  1  0
 36 24  1  0
 35 29  1  0
M  END
>  <score>  (390) 
7.35161

$$$$

     RDKit          3D

 52 55  0  0  0  0  0  0  0  0999 V2000
    1.4232  142.0973   54.5006 H   0  0  0  0  0  0  0  0  0  0  0  0
    1.7599  142.2827   53.4897 C   0  0  0  0  0  0  0  0  0  0  0  0
    0.9816  141.5448   52.1029 S   0  0  0  0  0  0  0  0  0  0  0  0
    2.1340  142.3438   51.0746 C   0  0  0  0  0  0  0  0  0  0  0  0
    2.2401  142.0383   49.7266 C   0  0  0  0  0  0  0  0  0  0  0  0
    1.5633  141.3057   49.3004 H   0  0  0  0  0  0  0  0  0  0  0  0
    3.2603  142.6269   48.9815 C   0  0  0  0  0  0  0  0  0  0  0  0
    3.4071  142.3288   47.9440 H   0  0  0  0  0  0  0  0  0  0  0  0
    4.0690  143.6006   49.5835 C   0  0  0  0  0  0  0  0  0  0  0  0
    4.7952  144.0896   48.9504 H   0  0  0  0  0  0  0  0  0  0  0  0
    3.9496  143.9124   50.9578 C   0  0  0  0  0  0  0  0  0  0  0  0
    4.5968  144.6554   51.4205 H   0  0  0  0  0  0  0  0  0  0  0  0
    3.0167  143.2034   51.7333 C   0  0  0  0  0  0  0  0  0  0  0  0
    2.7973  143.1261   53.1892 C   0  0  0  0  0  0  0  0  0  0  0  0
    3.4091  143.8813   54.2835 C   0  0  0  0  0  0  0  0  0  0  0  0
    3.6782  145.1492   54.0074 N   0  0  0  0  0  0  0  0  0  0  0  0
    3.9237  145.9493   55.0029 C   0  0  0  0  0  0  0  0  0  0  0  0
    3.9373  147.1965   54.5254 N   0  0  0  0  0  0  0  0  0  0  0  0
    3.7396  147.2417   53.5414 H   0  0  0  0  0  0  0  0  0  0  0  0
    3.7335  148.3087   55.2771 C   0  0  0  0  0  0  0  0  0  0  0  0
    3.7866  148.2552   56.4939 O   0  0  0  0  0  0  0  0  0  0  0  0
    3.6223  149.6355   54.5543 C   0  0  0  0  0  0  0  0  0  0  0  0
    3.7686  150.4535   55.2643 H   0  0  0  0  0  0  0  0  0  0  0  0
    4.4259  149.6789   53.8194 H   0  0  0  0  0  0  0  0  0  0  0  0
    2.2842  149.8474   53.8935 C   0  0  0  0  0  0  0  0  0  0  0  0
    1.4344  150.7469   54.5425 C   0  0  0  0  0  0  0  0  0  0  0  0
    1.7406  151.1936   55.4858 H   0  0  0  0  0  0  0  0  0  0  0  0
    0.1993  151.0871   53.9996 C   0  0  0  0  0  0  0  0  0  0  0  0
   -0.5733  152.0072   54.6537 O   0  0  0  0  0  0  0  0  0  0  0  0
   -1.5402  151.3971   55.5143 C   0  0  0  0  0  0  0  0  0  0  0  0
   -2.0168  152.1521   56.1470 H   0  0  0  0  0  0  0  0  0  0  0  0
   -2.3162  150.9042   54.9232 H   0  0  0  0  0  0  0  0  0  0  0  0
   -1.0685  150.6538   56.1629 H   0  0  0  0  0  0  0  0  0  0  0  0
   -0.2330  150.4613   52.8197 C   0  0  0  0  0  0  0  0  0  0  0  0
   -1.9692  150.8294   52.1007 Br  0  0  0  0  0  0  0  0  0  0  0  0
    0.5957  149.5298   52.1809 C   0  0  0  0  0  0  0  0  0  0  0  0
    0.2358  149.0351   51.2842 H   0  0  0  0  0  0  0  0  0  0  0  0
    1.8700  149.2178   52.6923 C   0  0  0  0  0  0  0  0  0  0  0  0
    2.6961  148.3101   52.0604 O   0  0  0  0  0  0  0  0  0  0  0  0
    2.0517  147.3066   51.2466 C   0  0  0  0  0  0  0  0  0  0  0  0
    1.3359  146.7356   51.8432 H   0  0  0  0  0  0  0  0  0  0  0  0
    1.5151  147.7454   50.3985 H   0  0  0  0  0  0  0  0  0  0  0  0
    2.7901  146.6022   50.8492 H   0  0  0  0  0  0  0  0  0  0  0  0
    4.0050  145.5827   56.3102 C   0  0  0  0  0  0  0  0  0  0  0  0
    4.2312  146.3086   57.0711 H   0  0  0  0  0  0  0  0  0  0  0  0
    3.8104  144.2660   56.5837 C   0  0  0  0  0  0  0  0  0  0  0  0
    3.9141  143.8919   57.8742 N   0  0  0  0  0  0  0  0  0  0  0  0
    4.3183  144.5758   58.5129 H   0  0  0  0  0  0  0  0  0  0  0  0
    4.0549  142.8981   58.0496 H   0  0  0  0  0  0  0  0  0  0  0  0
    3.4874  143.3816   55.5863 C   0  0  0  0  0  0  0  0  0  0  0  0
    3.2154  142.0126   55.8734 C   0  0  0  0  0  0  0  0  0  0  0  0
    3.0021  140.8903   56.0934 N   0  0  0  0  0  0  0  0  0  0  0  0
  1  2  1  0
  2  3  1  0
  3  4  1  0
  4  5  2  0
  5  6  1  0
  5  7  1  0
  7  8  1  0
  7  9  2  0
  9 10  1  0
  9 11  1  0
 11 12  1  0
 11 13  2  0
 13 14  1  0
 14 15  1  0
 15 16  2  0
 16 17  1  0
 17 18  1  0
 18 19  1  0
 18 20  1  0
 20 21  2  0
 20 22  1  0
 22 23  1  0
 22 24  1  0
 22 25  1  0
 25 26  2  0
 26 27  1  0
 26 28  1  0
 28 29  1  0
 29 30  1  0
 30 31  1  0
 30 32  1  0
 30 33  1  0
 28 34  2  0
 34 35  1  0
 34 36  1  0
 36 37  1  0
 36 38  2  0
 38 39  1  0
 39 40  1  0
 40 41  1  0
 40 42  1  0
 40 43  1  0
 17 44  2  0
 44 45  1  0
 44 46  1  0
 46 47  1  0
 47 48  1  0
 47 49  1  0
 46 50  2  0
 50 51  1  0
 51 52  3  0
 14  2  2  0
 50 15  1  0
 13  4  1  0
 38 25  1  0
M  END
>  <score>  (391) 
7.35412

$$$$

     RDKit          3D

 52 54  0  0  0  0  0  0  0  0999 V2000
   -0.1789  142.4740   48.6056 H   0  0  0  0  0  0  0  0  0  0  0  0
    0.6565  142.2430   49.2530 C   0  0  0  0  0  0  0  0  0  0  0  0
    1.5331  141.3372   48.8183 N   0  0  0  0  0  0  0  0  0  0  0  0
    2.5341  141.0091   49.6473 C   0  0  0  0  0  0  0  0  0  0  0  0
    3.2820  140.3062   49.3138 H   0  0  0  0  0  0  0  0  0  0  0  0
    2.6754  141.5287   50.9412 C   0  0  0  0  0  0  0  0  0  0  0  0
    3.5100  141.1901   51.5481 H   0  0  0  0  0  0  0  0  0  0  0  0
    1.7732  142.5090   51.3892 C   0  0  0  0  0  0  0  0  0  0  0  0
    1.8244  143.2226   52.6818 C   0  0  0  0  0  0  0  0  0  0  0  0
    1.2282  144.2866   52.7911 O   0  0  0  0  0  0  0  0  0  0  0  0
    2.5179  142.7724   53.7717 N   0  0  0  0  0  0  0  0  0  0  0  0
    2.8931  141.8398   53.7923 H   0  0  0  0  0  0  0  0  0  0  0  0
    2.9131  143.6543   54.7313 C   0  0  0  0  0  0  0  0  0  0  0  0
    3.0340  144.9012   54.3292 N   0  0  0  0  0  0  0  0  0  0  0  0
    3.5160  145.7646   55.1761 C   0  0  0  0  0  0  0  0  0  0  0  0
    3.6503  146.9448   54.5443 N   0  0  0  0  0  0  0  0  0  0  0  0
    3.3643  146.9425   53.5762 H   0  0  0  0  0  0  0  0  0  0  0  0
    3.7044  148.1285   55.2002 C   0  0  0  0  0  0  0  0  0  0  0  0
    3.7985  148.1490   56.4146 O   0  0  0  0  0  0  0  0  0  0  0  0
    3.6912  149.4287   54.4276 C   0  0  0  0  0  0  0  0  0  0  0  0
    4.4348  149.4160   53.6250 H   0  0  0  0  0  0  0  0  0  0  0  0
    3.9449  150.1979   55.1428 H   0  0  0  0  0  0  0  0  0  0  0  0
    2.3400  149.7575   53.8707 C   0  0  0  0  0  0  0  0  0  0  0  0
    1.5520  150.6639   54.5753 C   0  0  0  0  0  0  0  0  0  0  0  0
    1.9158  151.1085   55.4976 H   0  0  0  0  0  0  0  0  0  0  0  0
    0.3036  151.0400   54.0912 C   0  0  0  0  0  0  0  0  0  0  0  0
   -0.3963  151.9804   54.7896 O   0  0  0  0  0  0  0  0  0  0  0  0
   -1.4258  151.4045   55.5912 C   0  0  0  0  0  0  0  0  0  0  0  0
   -1.0049  150.6847   56.2959 H   0  0  0  0  0  0  0  0  0  0  0  0
   -1.9365  152.1875   56.1594 H   0  0  0  0  0  0  0  0  0  0  0  0
   -2.1548  150.8907   54.9598 H   0  0  0  0  0  0  0  0  0  0  0  0
   -0.1933  150.4726   52.9048 C   0  0  0  0  0  0  0  0  0  0  0  0
   -1.9268  150.9659   52.2485 Br  0  0  0  0  0  0  0  0  0  0  0  0
    0.6100  149.5724   52.1839 C   0  0  0  0  0  0  0  0  0  0  0  0
    0.2702  149.1634   51.2366 H   0  0  0  0  0  0  0  0  0  0  0  0
    1.8866  149.2189   52.6580 C   0  0  0  0  0  0  0  0  0  0  0  0
    2.7417  148.3944   51.9685 O   0  0  0  0  0  0  0  0  0  0  0  0
    2.1304  147.3056   51.2756 C   0  0  0  0  0  0  0  0  0  0  0  0
    1.4187  146.7982   51.9315 H   0  0  0  0  0  0  0  0  0  0  0  0
    1.6097  147.6578   50.3819 H   0  0  0  0  0  0  0  0  0  0  0  0
    2.8939  146.5835   50.9714 H   0  0  0  0  0  0  0  0  0  0  0  0
    3.8760  145.4572   56.4680 C   0  0  0  0  0  0  0  0  0  0  0  0
    4.2909  146.1842   57.1439 H   0  0  0  0  0  0  0  0  0  0  0  0
    3.7510  144.1518   56.8435 C   0  0  0  0  0  0  0  0  0  0  0  0
    4.1940  143.7762   58.0532 N   0  0  0  0  0  0  0  0  0  0  0  0
    4.4765  144.4957   58.7146 H   0  0  0  0  0  0  0  0  0  0  0  0
    4.0735  142.8042   58.3310 H   0  0  0  0  0  0  0  0  0  0  0  0
    3.2634  143.2146   55.9770 C   0  0  0  0  0  0  0  0  0  0  0  0
    3.1696  141.8262   56.2777 C   0  0  0  0  0  0  0  0  0  0  0  0
    3.0983  140.6757   56.4308 N   0  0  0  0  0  0  0  0  0  0  0  0
    0.7584  142.8627   50.5077 C   0  0  0  0  0  0  0  0  0  0  0  0
    0.0435  143.6117   50.8490 H   0  0  0  0  0  0  0  0  0  0  0  0
  1  2  1  0
  2  3  2  0
  3  4  1  0
  4  5  1  0
  4  6  2  0
  6  7  1  0
  6  8  1  0
  8  9  1  0
  9 10  2  0
  9 11  1  0
 11 12  1  0
 11 13  1  0
 13 14  2  0
 14 15  1  0
 15 16  1  0
 16 17  1  0
 16 18  1  0
 18 19  2  0
 18 20  1  0
 20 21  1  0
 20 22  1  0
 20 23  1  0
 23 24  2  0
 24 25  1  0
 24 26  1  0
 26 27  1  0
 27 28  1  0
 28 29  1  0
 28 30  1  0
 28 31  1  0
 26 32  2  0
 32 33  1  0
 32 34  1  0
 34 35  1  0
 34 36  2  0
 36 37  1  0
 37 38  1  0
 38 39  1  0
 38 40  1  0
 38 41  1  0
 15 42  2  0
 42 43  1  0
 42 44  1  0
 44 45  1  0
 45 46  1  0
 45 47  1  0
 44 48  2  0
 48 49  1  0
 49 50  3  0
  8 51  2  0
 51 52  1  0
 51  2  1  0
 48 13  1  0
 36 23  1  0
M  END
>  <score>  (392) 
7.3623

$$$$

     RDKit          3D

 49 51  0  0  0  0  0  0  0  0999 V2000
    0.8965  140.6134   50.7138 H   0  0  0  0  0  0  0  0  0  0  0  0
    1.3019  141.1894   51.5393 C   0  0  0  0  0  0  0  0  0  0  0  0
    2.5676  140.9444   52.0689 C   0  0  0  0  0  0  0  0  0  0  0  0
    3.2134  140.1772   51.6700 H   0  0  0  0  0  0  0  0  0  0  0  0
    3.0715  141.7004   53.1216 C   0  0  0  0  0  0  0  0  0  0  0  0
    4.2873  141.3619   53.6023 F   0  0  0  0  0  0  0  0  0  0  0  0
    2.3412  142.7956   53.6050 C   0  0  0  0  0  0  0  0  0  0  0  0
    2.8927  143.6668   54.6393 C   0  0  0  0  0  0  0  0  0  0  0  0
    3.0213  144.9557   54.3240 N   0  0  0  0  0  0  0  0  0  0  0  0
    3.5286  145.7858   55.2181 C   0  0  0  0  0  0  0  0  0  0  0  0
    3.7074  146.9852   54.6355 N   0  0  0  0  0  0  0  0  0  0  0  0
    3.5081  146.9429   53.6473 H   0  0  0  0  0  0  0  0  0  0  0  0
    3.7470  148.2012   55.2617 C   0  0  0  0  0  0  0  0  0  0  0  0
    3.8481  148.2534   56.4801 O   0  0  0  0  0  0  0  0  0  0  0  0
    3.7243  149.4722   54.4038 C   0  0  0  0  0  0  0  0  0  0  0  0
    4.4068  149.3629   53.5586 H   0  0  0  0  0  0  0  0  0  0  0  0
    3.9940  150.3489   54.9849 H   0  0  0  0  0  0  0  0  0  0  0  0
    2.3778  149.7793   53.8604 C   0  0  0  0  0  0  0  0  0  0  0  0
    1.5926  150.6872   54.5727 C   0  0  0  0  0  0  0  0  0  0  0  0
    1.9875  151.1449   55.4701 H   0  0  0  0  0  0  0  0  0  0  0  0
    0.3312  151.0581   54.1298 C   0  0  0  0  0  0  0  0  0  0  0  0
   -0.3793  151.9770   54.8588 O   0  0  0  0  0  0  0  0  0  0  0  0
   -1.4257  151.4030   55.6454 C   0  0  0  0  0  0  0  0  0  0  0  0
   -2.1526  150.8748   55.0176 H   0  0  0  0  0  0  0  0  0  0  0  0
   -1.0119  150.7005   56.3723 H   0  0  0  0  0  0  0  0  0  0  0  0
   -1.9393  152.2031   56.1883 H   0  0  0  0  0  0  0  0  0  0  0  0
   -0.1476  150.4975   52.9345 C   0  0  0  0  0  0  0  0  0  0  0  0
   -1.8721  150.9853   52.2782 Br  0  0  0  0  0  0  0  0  0  0  0  0
    0.6560  149.6035   52.1934 C   0  0  0  0  0  0  0  0  0  0  0  0
    0.3065  149.1980   51.2483 H   0  0  0  0  0  0  0  0  0  0  0  0
    1.9320  149.2372   52.6489 C   0  0  0  0  0  0  0  0  0  0  0  0
    2.7744  148.4021   51.9489 O   0  0  0  0  0  0  0  0  0  0  0  0
    2.1629  147.2971   51.2819 C   0  0  0  0  0  0  0  0  0  0  0  0
    1.4727  146.7709   51.9522 H   0  0  0  0  0  0  0  0  0  0  0  0
    1.6202  147.6405   50.3955 H   0  0  0  0  0  0  0  0  0  0  0  0
    2.9496  146.5996   50.9725 H   0  0  0  0  0  0  0  0  0  0  0  0
    3.8888  145.4243   56.4905 C   0  0  0  0  0  0  0  0  0  0  0  0
    4.3059  146.1184   57.2103 H   0  0  0  0  0  0  0  0  0  0  0  0
    3.7568  144.1019   56.7932 C   0  0  0  0  0  0  0  0  0  0  0  0
    4.1480  143.7217   58.0198 N   0  0  0  0  0  0  0  0  0  0  0  0
    4.4952  144.4344   58.6589 H   0  0  0  0  0  0  0  0  0  0  0  0
    4.0632  142.7440   58.2917 H   0  0  0  0  0  0  0  0  0  0  0  0
    3.2783  143.1877   55.8837 C   0  0  0  0  0  0  0  0  0  0  0  0
    3.1544  141.8072   56.2209 C   0  0  0  0  0  0  0  0  0  0  0  0
    3.0367  140.6747   56.4575 N   0  0  0  0  0  0  0  0  0  0  0  0
    1.0871  143.0782   53.0396 C   0  0  0  0  0  0  0  0  0  0  0  0
    0.3582  144.1523   53.4194 F   0  0  0  0  0  0  0  0  0  0  0  0
    0.5586  142.2373   52.0592 C   0  0  0  0  0  0  0  0  0  0  0  0
   -0.4345  142.4160   51.6745 H   0  0  0  0  0  0  0  0  0  0  0  0
  1  2  1  0
  2  3  2  0
  3  4  1  0
  3  5  1  0
  5  6  1  0
  5  7  2  0
  7  8  1  0
  8  9  2  0
  9 10  1  0
 10 11  1  0
 11 12  1  0
 11 13  1  0
 13 14  2  0
 13 15  1  0
 15 16  1  0
 15 17  1  0
 15 18  1  0
 18 19  2  0
 19 20  1  0
 19 21  1  0
 21 22  1  0
 22 23  1  0
 23 24  1  0
 23 25  1  0
 23 26  1  0
 21 27  2  0
 27 28  1  0
 27 29  1  0
 29 30  1  0
 29 31  2  0
 31 32  1  0
 32 33  1  0
 33 34  1  0
 33 35  1  0
 33 36  1  0
 10 37  2  0
 37 38  1  0
 37 39  1  0
 39 40  1  0
 40 41  1  0
 40 42  1  0
 39 43  2  0
 43 44  1  0
 44 45  3  0
  7 46  1  0
 46 47  1  0
 46 48  2  0
 48 49  1  0
 48  2  1  0
 43  8  1  0
 31 18  1  0
M  END
>  <score>  (393) 
7.36232

$$$$

     RDKit          3D

 48 50  0  0  0  0  0  0  0  0999 V2000
    2.5229  142.6794   48.5001 H   0  0  0  0  0  0  0  0  0  0  0  0
    2.6910  142.9104   49.5443 C   0  0  0  0  0  0  0  0  0  0  0  0
    1.7265  142.2170   50.8369 S   0  0  0  0  0  0  0  0  0  0  0  0
    2.6688  143.1264   52.0172 C   0  0  0  0  0  0  0  0  0  0  0  0
    2.4196  143.0358   53.4576 C   0  0  0  0  0  0  0  0  0  0  0  0
    1.5290  142.2825   53.8196 O   0  0  0  0  0  0  0  0  0  0  0  0
    3.1134  143.8977   54.4710 C   0  0  0  0  0  0  0  0  0  0  0  0
    3.3546  145.1788   54.1428 N   0  0  0  0  0  0  0  0  0  0  0  0
    3.8555  146.0018   55.0359 C   0  0  0  0  0  0  0  0  0  0  0  0
    3.8775  147.2302   54.4979 N   0  0  0  0  0  0  0  0  0  0  0  0
    3.5242  147.2421   53.5545 H   0  0  0  0  0  0  0  0  0  0  0  0
    3.7573  148.3734   55.2213 C   0  0  0  0  0  0  0  0  0  0  0  0
    3.7830  148.3417   56.4366 O   0  0  0  0  0  0  0  0  0  0  0  0
    3.6439  149.6931   54.4885 C   0  0  0  0  0  0  0  0  0  0  0  0
    4.4329  149.7638   53.7404 H   0  0  0  0  0  0  0  0  0  0  0  0
    3.7878  150.4927   55.2113 H   0  0  0  0  0  0  0  0  0  0  0  0
    2.2984  149.8865   53.8615 C   0  0  0  0  0  0  0  0  0  0  0  0
    1.4527  150.7807   54.5158 C   0  0  0  0  0  0  0  0  0  0  0  0
    1.7733  151.2544   55.4390 H   0  0  0  0  0  0  0  0  0  0  0  0
    0.1969  151.0818   54.0091 C   0  0  0  0  0  0  0  0  0  0  0  0
   -0.5673  151.9959   54.6794 O   0  0  0  0  0  0  0  0  0  0  0  0
   -1.5336  151.3876   55.5375 C   0  0  0  0  0  0  0  0  0  0  0  0
   -2.3031  150.8892   54.9408 H   0  0  0  0  0  0  0  0  0  0  0  0
   -1.0607  150.6504   56.1930 H   0  0  0  0  0  0  0  0  0  0  0  0
   -2.0076  152.1537   56.1602 H   0  0  0  0  0  0  0  0  0  0  0  0
   -0.2418  150.4492   52.8355 C   0  0  0  0  0  0  0  0  0  0  0  0
   -1.9743  150.8444   52.1168 Br  0  0  0  0  0  0  0  0  0  0  0  0
    0.6005  149.5324   52.1840 C   0  0  0  0  0  0  0  0  0  0  0  0
    0.2662  149.0423   51.2774 H   0  0  0  0  0  0  0  0  0  0  0  0
    1.8801  149.2331   52.6844 C   0  0  0  0  0  0  0  0  0  0  0  0
    2.7166  148.3243   52.0715 O   0  0  0  0  0  0  0  0  0  0  0  0
    2.0739  147.3207   51.2670 C   0  0  0  0  0  0  0  0  0  0  0  0
    1.3645  146.7453   51.8705 H   0  0  0  0  0  0  0  0  0  0  0  0
    1.5366  147.7716   50.4267 H   0  0  0  0  0  0  0  0  0  0  0  0
    2.8176  146.6266   50.8639 H   0  0  0  0  0  0  0  0  0  0  0  0
    4.1957  145.6386   56.3092 C   0  0  0  0  0  0  0  0  0  0  0  0
    4.6031  146.3333   57.0184 H   0  0  0  0  0  0  0  0  0  0  0  0
    3.9454  144.3541   56.6720 C   0  0  0  0  0  0  0  0  0  0  0  0
    4.2158  143.9637   57.9413 N   0  0  0  0  0  0  0  0  0  0  0  0
    4.5404  144.6576   58.6133 H   0  0  0  0  0  0  0  0  0  0  0  0
    3.7251  143.1356   58.2647 H   0  0  0  0  0  0  0  0  0  0  0  0
    3.4105  143.4562   55.7719 C   0  0  0  0  0  0  0  0  0  0  0  0
    3.2283  142.0985   56.1808 C   0  0  0  0  0  0  0  0  0  0  0  0
    3.1250  140.9996   56.5402 N   0  0  0  0  0  0  0  0  0  0  0  0
    3.6438  143.9081   51.4407 C   0  0  0  0  0  0  0  0  0  0  0  0
    4.3352  144.5490   51.9860 H   0  0  0  0  0  0  0  0  0  0  0  0
    3.6597  143.7736   49.9959 C   0  0  0  0  0  0  0  0  0  0  0  0
    4.3644  144.2969   49.3530 H   0  0  0  0  0  0  0  0  0  0  0  0
  1  2  1  0
  2  3  1  0
  3  4  1  0
  4  5  1  0
  5  6  2  0
  5  7  1  0
  7  8  2  0
  8  9  1  0
  9 10  1  0
 10 11  1  0
 10 12  1  0
 12 13  2  0
 12 14  1  0
 14 15  1  0
 14 16  1  0
 14 17  1  0
 17 18  2  0
 18 19  1  0
 18 20  1  0
 20 21  1  0
 21 22  1  0
 22 23  1  0
 22 24  1  0
 22 25  1  0
 20 26  2  0
 26 27  1  0
 26 28  1  0
 28 29  1  0
 28 30  2  0
 30 31  1  0
 31 32  1  0
 32 33  1  0
 32 34  1  0
 32 35  1  0
  9 36  2  0
 36 37  1  0
 36 38  1  0
 38 39  1  0
 39 40  1  0
 39 41  1  0
 38 42  2  0
 42 43  1  0
 43 44  3  0
  4 45  2  0
 45 46  1  0
 45 47  1  0
 47 48  1  0
 47  2  2  0
 42  7  1  0
 30 17  1  0
M  END
>  <score>  (394) 
7.36276

$$$$

     RDKit          3D

 54 56  0  0  0  0  0  0  0  0999 V2000
    0.2812  149.1706   51.2318 H   0  0  0  0  0  0  0  0  0  0  0  0
    0.6101  149.5728   52.1807 C   0  0  0  0  0  0  0  0  0  0  0  0
   -0.1905  150.4721   52.9021 C   0  0  0  0  0  0  0  0  0  0  0  0
   -1.9239  150.9723   52.2583 Br  0  0  0  0  0  0  0  0  0  0  0  0
    0.3041  151.0351   54.0941 C   0  0  0  0  0  0  0  0  0  0  0  0
   -0.3877  151.9767   54.7963 O   0  0  0  0  0  0  0  0  0  0  0  0
   -1.4217  151.4057   55.5987 C   0  0  0  0  0  0  0  0  0  0  0  0
   -1.0056  150.6856   56.3082 H   0  0  0  0  0  0  0  0  0  0  0  0
   -1.9349  152.1930   56.1612 H   0  0  0  0  0  0  0  0  0  0  0  0
   -2.1498  150.8880   54.9676 H   0  0  0  0  0  0  0  0  0  0  0  0
    1.5575  150.6733   54.5776 C   0  0  0  0  0  0  0  0  0  0  0  0
    1.9308  151.1263   55.4978 H   0  0  0  0  0  0  0  0  0  0  0  0
    2.3324  149.7556   53.8720 C   0  0  0  0  0  0  0  0  0  0  0  0
    3.6883  149.4291   54.4233 C   0  0  0  0  0  0  0  0  0  0  0  0
    4.4228  149.4102   53.6156 H   0  0  0  0  0  0  0  0  0  0  0  0
    3.9527  150.2087   55.1252 H   0  0  0  0  0  0  0  0  0  0  0  0
    3.7192  148.1252   55.1950 C   0  0  0  0  0  0  0  0  0  0  0  0
    3.8054  148.1438   56.4071 O   0  0  0  0  0  0  0  0  0  0  0  0
    3.6631  146.9489   54.5275 N   0  0  0  0  0  0  0  0  0  0  0  0
    3.3829  146.9465   53.5633 H   0  0  0  0  0  0  0  0  0  0  0  0
    3.5253  145.7620   55.1196 C   0  0  0  0  0  0  0  0  0  0  0  0
    3.0556  144.9669   54.2034 N   0  0  0  0  0  0  0  0  0  0  0  0
    2.9479  143.6980   54.5254 C   0  0  0  0  0  0  0  0  0  0  0  0
    2.4951  142.8967   53.5060 N   0  0  0  0  0  0  0  0  0  0  0  0
    1.1303  143.0719   53.0271 C   0  0  0  0  0  0  0  0  0  0  0  0
    0.5628  143.7792   53.6404 H   0  0  0  0  0  0  0  0  0  0  0  0
    0.6276  142.1029   53.0488 H   0  0  0  0  0  0  0  0  0  0  0  0
    1.2101  143.5837   51.6238 C   0  0  0  0  0  0  0  0  0  0  0  0
    0.2183  143.6464   51.1772 H   0  0  0  0  0  0  0  0  0  0  0  0
    1.6941  144.5534   51.5639 H   0  0  0  0  0  0  0  0  0  0  0  0
    2.1716  142.3833   50.7217 S   0  0  0  0  0  0  0  0  0  0  0  0
    2.4877  142.9037   49.3860 O   0  0  0  0  0  0  0  0  0  0  0  0
    1.3731  141.1544   50.6520 O   0  0  0  0  0  0  0  0  0  0  0  0
    3.6644  142.0960   51.6768 C   0  0  0  0  0  0  0  0  0  0  0  0
    4.2329  141.2950   51.2116 H   0  0  0  0  0  0  0  0  0  0  0  0
    4.2546  143.0095   51.6595 H   0  0  0  0  0  0  0  0  0  0  0  0
    3.2760  141.7428   53.0890 C   0  0  0  0  0  0  0  0  0  0  0  0
    4.1657  141.5900   53.7115 H   0  0  0  0  0  0  0  0  0  0  0  0
    2.6761  140.8289   53.1589 H   0  0  0  0  0  0  0  0  0  0  0  0
    3.2760  143.1982   55.7701 C   0  0  0  0  0  0  0  0  0  0  0  0
    3.1505  141.8150   56.0706 C   0  0  0  0  0  0  0  0  0  0  0  0
    3.0732  140.6896   56.3565 N   0  0  0  0  0  0  0  0  0  0  0  0
    3.7272  144.0969   56.7007 C   0  0  0  0  0  0  0  0  0  0  0  0
    4.0927  143.7391   57.9475 N   0  0  0  0  0  0  0  0  0  0  0  0
    4.4395  144.4626   58.5743 H   0  0  0  0  0  0  0  0  0  0  0  0
    4.0572  142.7637   58.2287 H   0  0  0  0  0  0  0  0  0  0  0  0
    3.8564  145.4122   56.3996 C   0  0  0  0  0  0  0  0  0  0  0  0
    4.2388  146.1066   57.1338 H   0  0  0  0  0  0  0  0  0  0  0  0
    1.8834  149.2180   52.6573 C   0  0  0  0  0  0  0  0  0  0  0  0
    2.7488  148.4009   51.9735 O   0  0  0  0  0  0  0  0  0  0  0  0
    2.1389  147.3138   51.2754 C   0  0  0  0  0  0  0  0  0  0  0  0
    2.8994  146.5839   50.9827 H   0  0  0  0  0  0  0  0  0  0  0  0
    1.4149  146.8121   51.9236 H   0  0  0  0  0  0  0  0  0  0  0  0
    1.6271  147.6601   50.3730 H   0  0  0  0  0  0  0  0  0  0  0  0
  1  2  1  0
  2  3  2  0
  3  4  1  0
  3  5  1  0
  5  6  1  0
  6  7  1  0
  7  8  1  0
  7  9  1  0
  7 10  1  0
  5 11  2  0
 11 12  1  0
 11 13  1  0
 13 14  1  0
 14 15  1  0
 14 16  1  0
 14 17  1  0
 17 18  2  0
 17 19  1  0
 19 20  1  0
 19 21  1  0
 21 22  2  0
 22 23  1  0
 23 24  1  0
 24 25  1  0
 25 26  1  0
 25 27  1  0
 25 28  1  0
 28 29  1  0
 28 30  1  0
 28 31  1  0
 31 32  2  0
 31 33  2  0
 31 34  1  0
 34 35  1  0
 34 36  1  0
 34 37  1  0
 37 38  1  0
 37 39  1  0
 23 40  2  0
 40 41  1  0
 41 42  3  0
 40 43  1  0
 43 44  1  0
 44 45  1  0
 44 46  1  0
 43 47  2  0
 47 48  1  0
 13 49  2  0
 49 50  1  0
 50 51  1  0
 51 52  1  0
 51 53  1  0
 51 54  1  0
 49  2  1  0
 47 21  1  0
 37 24  1  0
M  END
>  <score>  (395) 
7.3663

$$$$

     RDKit          3D

 54 56  0  0  0  0  0  0  0  0999 V2000
    0.2996  149.1922   51.2435 H   0  0  0  0  0  0  0  0  0  0  0  0
    0.6484  149.5923   52.1909 C   0  0  0  0  0  0  0  0  0  0  0  0
   -0.1540  150.4925   52.9230 C   0  0  0  0  0  0  0  0  0  0  0  0
   -1.8856  150.9834   52.2725 Br  0  0  0  0  0  0  0  0  0  0  0  0
    0.3232  151.0507   54.1243 C   0  0  0  0  0  0  0  0  0  0  0  0
   -0.3811  151.9755   54.8482 O   0  0  0  0  0  0  0  0  0  0  0  0
   -1.4246  151.4051   55.6379 C   0  0  0  0  0  0  0  0  0  0  0  0
   -1.0125  150.6990   56.3593 H   0  0  0  0  0  0  0  0  0  0  0  0
   -1.9410  152.1992   56.1846 H   0  0  0  0  0  0  0  0  0  0  0  0
   -2.1491  150.8791   55.0111 H   0  0  0  0  0  0  0  0  0  0  0  0
    1.5851  150.6922   54.5765 C   0  0  0  0  0  0  0  0  0  0  0  0
    1.9788  151.1450   55.4813 H   0  0  0  0  0  0  0  0  0  0  0  0
    2.3699  149.7899   53.8616 C   0  0  0  0  0  0  0  0  0  0  0  0
    3.7193  149.4939   54.4068 C   0  0  0  0  0  0  0  0  0  0  0  0
    3.9929  150.3593   54.9861 H   0  0  0  0  0  0  0  0  0  0  0  0
    4.4156  149.3853   53.5770 H   0  0  0  0  0  0  0  0  0  0  0  0
    3.7609  148.2483   55.2798 C   0  0  0  0  0  0  0  0  0  0  0  0
    3.8477  148.3209   56.4928 O   0  0  0  0  0  0  0  0  0  0  0  0
    3.7623  147.0423   54.6593 N   0  0  0  0  0  0  0  0  0  0  0  0
    3.5185  146.9969   53.6831 H   0  0  0  0  0  0  0  0  0  0  0  0
    3.6656  145.8519   55.2521 C   0  0  0  0  0  0  0  0  0  0  0  0
    3.2379  145.0381   54.3143 N   0  0  0  0  0  0  0  0  0  0  0  0
    3.0188  143.7526   54.5933 C   0  0  0  0  0  0  0  0  0  0  0  0
    2.3259  142.9396   53.5497 C   0  0  0  0  0  0  0  0  0  0  0  0
    1.3797  142.2727   53.9087 O   0  0  0  0  0  0  0  0  0  0  0  0
    2.4984  143.0844   52.0992 C   0  0  0  0  0  0  0  0  0  0  0  0
    1.4955  142.7059   51.1848 C   0  0  0  0  0  0  0  0  0  0  0  0
    0.5771  142.2537   51.5528 H   0  0  0  0  0  0  0  0  0  0  0  0
    1.6727  142.9260   49.8128 C   0  0  0  0  0  0  0  0  0  0  0  0
    0.8964  142.6502   49.1092 H   0  0  0  0  0  0  0  0  0  0  0  0
    2.8504  143.5122   49.3442 C   0  0  0  0  0  0  0  0  0  0  0  0
    3.0814  143.7749   47.8880 C   0  0  0  0  0  0  0  0  0  0  0  0
    3.7240  144.6513   47.7719 H   0  0  0  0  0  0  0  0  0  0  0  0
    2.1368  143.9690   47.3747 H   0  0  0  0  0  0  0  0  0  0  0  0
    3.5732  142.9167   47.4226 H   0  0  0  0  0  0  0  0  0  0  0  0
    3.8316  143.8676   50.2566 C   0  0  0  0  0  0  0  0  0  0  0  0
    4.7232  144.3396   49.8937 H   0  0  0  0  0  0  0  0  0  0  0  0
    3.6696  143.6420   51.6109 C   0  0  0  0  0  0  0  0  0  0  0  0
    4.4673  143.9085   52.2743 H   0  0  0  0  0  0  0  0  0  0  0  0
    3.3251  143.2685   55.8723 C   0  0  0  0  0  0  0  0  0  0  0  0
    3.1662  141.8855   56.2004 C   0  0  0  0  0  0  0  0  0  0  0  0
    3.0443  140.7583   56.4535 N   0  0  0  0  0  0  0  0  0  0  0  0
    3.7960  144.1634   56.8166 C   0  0  0  0  0  0  0  0  0  0  0  0
    4.1371  143.7512   58.0565 N   0  0  0  0  0  0  0  0  0  0  0  0
    4.5070  144.4279   58.7149 H   0  0  0  0  0  0  0  0  0  0  0  0
    4.0713  142.7683   58.3033 H   0  0  0  0  0  0  0  0  0  0  0  0
    3.9477  145.4922   56.5422 C   0  0  0  0  0  0  0  0  0  0  0  0
    4.3154  146.1735   57.3022 H   0  0  0  0  0  0  0  0  0  0  0  0
    1.9233  149.2319   52.6548 C   0  0  0  0  0  0  0  0  0  0  0  0
    2.7720  148.4039   51.9555 O   0  0  0  0  0  0  0  0  0  0  0  0
    2.1622  147.2999   51.2806 C   0  0  0  0  0  0  0  0  0  0  0  0
    2.9415  146.6032   50.9527 H   0  0  0  0  0  0  0  0  0  0  0  0
    1.6064  147.6432   50.4031 H   0  0  0  0  0  0  0  0  0  0  0  0
    1.4826  146.7651   51.9531 H   0  0  0  0  0  0  0  0  0  0  0  0
  1  2  1  0
  2  3  2  0
  3  4  1  0
  3  5  1  0
  5  6  1  0
  6  7  1  0
  7  8  1  0
  7  9  1  0
  7 10  1  0
  5 11  2  0
 11 12  1  0
 11 13  1  0
 13 14  1  0
 14 15  1  0
 14 16  1  0
 14 17  1  0
 17 18  2  0
 17 19  1  0
 19 20  1  0
 19 21  1  0
 21 22  2  0
 22 23  1  0
 23 24  1  0
 24 25  2  0
 24 26  1  0
 26 27  2  0
 27 28  1  0
 27 29  1  0
 29 30  1  0
 29 31  2  0
 31 32  1  0
 32 33  1  0
 32 34  1  0
 32 35  1  0
 31 36  1  0
 36 37  1  0
 36 38  2  0
 38 39  1  0
 23 40  2  0
 40 41  1  0
 41 42  3  0
 40 43  1  0
 43 44  1  0
 44 45  1  0
 44 46  1  0
 43 47  2  0
 47 48  1  0
 13 49  2  0
 49 50  1  0
 50 51  1  0
 51 52  1  0
 51 53  1  0
 51 54  1  0
 49  2  1  0
 47 21  1  0
 38 26  1  0
M  END
>  <score>  (396) 
7.36823

$$$$

     RDKit          3D

 52 55  0  0  0  0  0  0  0  0999 V2000
    0.2561  148.8904   51.3715 H   0  0  0  0  0  0  0  0  0  0  0  0
    0.5467  149.4612   52.2462 C   0  0  0  0  0  0  0  0  0  0  0  0
   -0.3415  150.4003   52.7868 C   0  0  0  0  0  0  0  0  0  0  0  0
   -2.0487  150.6641   51.9630 Br  0  0  0  0  0  0  0  0  0  0  0  0
    0.0197  151.1118   53.9410 C   0  0  0  0  0  0  0  0  0  0  0  0
   -0.8291  152.0050   54.5355 O   0  0  0  0  0  0  0  0  0  0  0  0
   -1.6903  151.3802   55.4944 C   0  0  0  0  0  0  0  0  0  0  0  0
   -2.1274  152.1380   56.1520 H   0  0  0  0  0  0  0  0  0  0  0  0
   -1.1416  150.6633   56.1148 H   0  0  0  0  0  0  0  0  0  0  0  0
   -2.5013  150.8525   54.9825 H   0  0  0  0  0  0  0  0  0  0  0  0
    1.2691  150.8917   54.5158 C   0  0  0  0  0  0  0  0  0  0  0  0
    1.5439  151.4428   55.4094 H   0  0  0  0  0  0  0  0  0  0  0  0
    2.1647  149.9692   53.9695 C   0  0  0  0  0  0  0  0  0  0  0  0
    3.4905  149.8172   54.6649 C   0  0  0  0  0  0  0  0  0  0  0  0
    4.2925  149.7938   53.9220 H   0  0  0  0  0  0  0  0  0  0  0  0
    3.6484  150.6846   55.3076 H   0  0  0  0  0  0  0  0  0  0  0  0
    3.5903  148.5634   55.5187 C   0  0  0  0  0  0  0  0  0  0  0  0
    2.9171  148.3974   56.5200 O   0  0  0  0  0  0  0  0  0  0  0  0
    4.5250  147.6549   55.1570 N   0  0  0  0  0  0  0  0  0  0  0  0
    4.6541  147.6425   54.1582 H   0  0  0  0  0  0  0  0  0  0  0  0
    4.4118  146.4091   55.5907 C   0  0  0  0  0  0  0  0  0  0  0  0
    4.2078  145.6511   54.5518 N   0  0  0  0  0  0  0  0  0  0  0  0
    3.8706  144.3828   54.7642 C   0  0  0  0  0  0  0  0  0  0  0  0
    3.4154  143.6798   53.5609 C   0  0  0  0  0  0  0  0  0  0  0  0
    3.8982  144.3186   51.9850 S   0  0  0  0  0  0  0  0  0  0  0  0
    2.9769  143.1167   51.1596 C   0  0  0  0  0  0  0  0  0  0  0  0
    2.9147  142.9971   49.7738 C   0  0  0  0  0  0  0  0  0  0  0  0
    3.5420  143.6176   49.1338 H   0  0  0  0  0  0  0  0  0  0  0  0
    2.0263  142.0715   49.2429 C   0  0  0  0  0  0  0  0  0  0  0  0
    1.9481  141.9455   48.1691 H   0  0  0  0  0  0  0  0  0  0  0  0
    1.2299  141.3159   50.1087 C   0  0  0  0  0  0  0  0  0  0  0  0
    0.5397  140.6261   49.6756 H   0  0  0  0  0  0  0  0  0  0  0  0
    1.3472  141.4042   51.4968 C   0  0  0  0  0  0  0  0  0  0  0  0
    0.7146  140.7786   52.1179 H   0  0  0  0  0  0  0  0  0  0  0  0
    2.2595  142.3082   52.0376 C   0  0  0  0  0  0  0  0  0  0  0  0
    2.5685  142.5926   53.4382 C   0  0  0  0  0  0  0  0  0  0  0  0
    2.1345  142.0292   54.2608 H   0  0  0  0  0  0  0  0  0  0  0  0
    3.8712  143.8395   56.0437 C   0  0  0  0  0  0  0  0  0  0  0  0
    3.6005  142.4569   56.2643 C   0  0  0  0  0  0  0  0  0  0  0  0
    3.3852  141.3261   56.4233 N   0  0  0  0  0  0  0  0  0  0  0  0
    4.0938  144.7031   57.0906 C   0  0  0  0  0  0  0  0  0  0  0  0
    4.0113  144.3357   58.3798 N   0  0  0  0  0  0  0  0  0  0  0  0
    4.2502  145.0577   59.0550 H   0  0  0  0  0  0  0  0  0  0  0  0
    4.2705  143.3752   58.5858 H   0  0  0  0  0  0  0  0  0  0  0  0
    4.3347  146.0179   56.8866 C   0  0  0  0  0  0  0  0  0  0  0  0
    4.4486  146.7106   57.7065 H   0  0  0  0  0  0  0  0  0  0  0  0
    1.8048  149.2231   52.8279 C   0  0  0  0  0  0  0  0  0  0  0  0
    2.6752  148.2771   52.3283 O   0  0  0  0  0  0  0  0  0  0  0  0
    2.1322  147.3805   51.3455 C   0  0  0  0  0  0  0  0  0  0  0  0
    1.3436  146.7589   51.7849 H   0  0  0  0  0  0  0  0  0  0  0  0
    1.7077  147.9467   50.5100 H   0  0  0  0  0  0  0  0  0  0  0  0
    2.9164  146.7223   50.9573 H   0  0  0  0  0  0  0  0  0  0  0  0
  1  2  1  0
  2  3  2  0
  3  4  1  0
  3  5  1  0
  5  6  1  0
  6  7  1  0
  7  8  1  0
  7  9  1  0
  7 10  1  0
  5 11  2  0
 11 12  1  0
 11 13  1  0
 13 14  1  0
 14 15  1  0
 14 16  1  0
 14 17  1  0
 17 18  2  0
 17 19  1  0
 19 20  1  0
 19 21  1  0
 21 22  2  0
 22 23  1  0
 23 24  1  0
 24 25  1  0
 25 26  1  0
 26 27  2  0
 27 28  1  0
 27 29  1  0
 29 30  1  0
 29 31  2  0
 31 32  1  0
 31 33  1  0
 33 34  1  0
 33 35  2  0
 35 36  1  0
 36 37  1  0
 23 38  2  0
 38 39  1  0
 39 40  3  0
 38 41  1  0
 41 42  1  0
 42 43  1  0
 42 44  1  0
 41 45  2  0
 45 46  1  0
 13 47  2  0
 47 48  1  0
 48 49  1  0
 49 50  1  0
 49 51  1  0
 49 52  1  0
 47  2  1  0
 45 21  1  0
 36 24  2  0
 35 26  1  0
M  END
>  <score>  (397) 
7.3683

$$$$

     RDKit          3D

 61 63  0  0  0  0  0  0  0  0999 V2000
    0.2591  149.0598   51.2510 H   0  0  0  0  0  0  0  0  0  0  0  0
    0.6012  149.5328   52.1647 C   0  0  0  0  0  0  0  0  0  0  0  0
   -0.2189  150.4569   52.8354 C   0  0  0  0  0  0  0  0  0  0  0  0
   -1.9526  150.8739   52.1402 Br  0  0  0  0  0  0  0  0  0  0  0  0
    0.2352  151.0649   54.0184 C   0  0  0  0  0  0  0  0  0  0  0  0
   -0.5101  151.9858   54.7024 O   0  0  0  0  0  0  0  0  0  0  0  0
   -1.5084  151.3878   55.5304 C   0  0  0  0  0  0  0  0  0  0  0  0
   -1.0636  150.6436   56.1958 H   0  0  0  0  0  0  0  0  0  0  0  0
   -1.9852  152.1578   56.1439 H   0  0  0  0  0  0  0  0  0  0  0  0
   -2.2721  150.9009   54.9171 H   0  0  0  0  0  0  0  0  0  0  0  0
    1.4868  150.7292   54.5198 C   0  0  0  0  0  0  0  0  0  0  0  0
    1.8214  151.1752   55.4530 H   0  0  0  0  0  0  0  0  0  0  0  0
    2.3058  149.8232   53.8441 C   0  0  0  0  0  0  0  0  0  0  0  0
    3.6249  149.5115   54.4692 C   0  0  0  0  0  0  0  0  0  0  0  0
    3.8246  150.2586   55.2363 H   0  0  0  0  0  0  0  0  0  0  0  0
    4.4248  149.5524   53.7301 H   0  0  0  0  0  0  0  0  0  0  0  0
    3.5991  148.1549   55.1435 C   0  0  0  0  0  0  0  0  0  0  0  0
    3.7184  148.1202   56.3532 O   0  0  0  0  0  0  0  0  0  0  0  0
    3.5125  146.9931   54.4341 N   0  0  0  0  0  0  0  0  0  0  0  0
    3.1932  147.0081   53.4782 H   0  0  0  0  0  0  0  0  0  0  0  0
    3.5203  145.7750   55.0113 C   0  0  0  0  0  0  0  0  0  0  0  0
    2.9880  144.8791   54.2243 N   0  0  0  0  0  0  0  0  0  0  0  0
    2.9058  143.6254   54.6717 C   0  0  0  0  0  0  0  0  0  0  0  0
    2.3256  142.6687   53.8798 O   0  0  0  0  0  0  0  0  0  0  0  0
    1.9254  143.0654   52.5525 C   0  0  0  0  0  0  0  0  0  0  0  0
    1.1447  142.3848   52.1975 H   0  0  0  0  0  0  0  0  0  0  0  0
    1.5060  144.0766   52.5556 H   0  0  0  0  0  0  0  0  0  0  0  0
    3.1252  143.0229   51.6056 C   0  0  0  0  0  0  0  0  0  0  0  0
    3.5242  142.0060   51.5834 H   0  0  0  0  0  0  0  0  0  0  0  0
    3.9149  143.6727   52.0111 H   0  0  0  0  0  0  0  0  0  0  0  0
    2.7664  143.4383   50.2260 N   0  0  0  0  0  0  0  0  0  0  0  0
    1.9245  142.5049   49.4463 C   0  0  0  0  0  0  0  0  0  0  0  0
    1.0773  142.1656   50.0507 H   0  0  0  0  0  0  0  0  0  0  0  0
    1.5221  143.0426   48.5830 H   0  0  0  0  0  0  0  0  0  0  0  0
    2.7503  141.2993   48.9612 C   0  0  0  0  0  0  0  0  0  0  0  0
    3.0446  140.7046   49.8298 H   0  0  0  0  0  0  0  0  0  0  0  0
    2.1476  140.6764   48.2980 H   0  0  0  0  0  0  0  0  0  0  0  0
    4.0245  141.7395   48.2366 C   0  0  0  0  0  0  0  0  0  0  0  0
    4.6208  140.8686   47.9523 H   0  0  0  0  0  0  0  0  0  0  0  0
    3.7826  142.2937   47.3222 H   0  0  0  0  0  0  0  0  0  0  0  0
    4.7953  142.6242   49.2080 C   0  0  0  0  0  0  0  0  0  0  0  0
    5.7817  142.8541   48.8255 H   0  0  0  0  0  0  0  0  0  0  0  0
    4.9596  142.0870   50.1453 H   0  0  0  0  0  0  0  0  0  0  0  0
    3.9536  143.8790   49.4651 C   0  0  0  0  0  0  0  0  0  0  0  0
    4.5223  144.6229   50.0334 H   0  0  0  0  0  0  0  0  0  0  0  0
    3.6690  144.3375   48.5082 H   0  0  0  0  0  0  0  0  0  0  0  0
    3.3527  143.2608   55.9168 C   0  0  0  0  0  0  0  0  0  0  0  0
    3.2482  141.9155   56.3703 C   0  0  0  0  0  0  0  0  0  0  0  0
    3.2021  140.8133   56.7344 N   0  0  0  0  0  0  0  0  0  0  0  0
    3.9176  144.2259   56.6903 C   0  0  0  0  0  0  0  0  0  0  0  0
    4.2909  143.9466   57.9473 N   0  0  0  0  0  0  0  0  0  0  0  0
    4.6637  144.7142   58.5061 H   0  0  0  0  0  0  0  0  0  0  0  0
    3.7651  143.2233   58.4191 H   0  0  0  0  0  0  0  0  0  0  0  0
    4.0255  145.4977   56.2462 C   0  0  0  0  0  0  0  0  0  0  0  0
    4.4745  146.2536   56.8612 H   0  0  0  0  0  0  0  0  0  0  0  0
    1.8744  149.2060   52.6563 C   0  0  0  0  0  0  0  0  0  0  0  0
    2.7030  148.2994   52.0291 O   0  0  0  0  0  0  0  0  0  0  0  0
    2.0557  147.2910   51.2393 C   0  0  0  0  0  0  0  0  0  0  0  0
    1.3368  146.7374   51.8518 H   0  0  0  0  0  0  0  0  0  0  0  0
    1.5326  147.7355   50.3870 H   0  0  0  0  0  0  0  0  0  0  0  0
    2.7956  146.5814   50.8551 H   0  0  0  0  0  0  0  0  0  0  0  0
  1  2  1  0
  2  3  2  0
  3  4  1  0
  3  5  1  0
  5  6  1  0
  6  7  1  0
  7  8  1  0
  7  9  1  0
  7 10  1  0
  5 11  2  0
 11 12  1  0
 11 13  1  0
 13 14  1  0
 14 15  1  0
 14 16  1  0
 14 17  1  0
 17 18  2  0
 17 19  1  0
 19 20  1  0
 19 21  1  0
 21 22  2  0
 22 23  1  0
 23 24  1  0
 24 25  1  0
 25 26  1  0
 25 27  1  0
 25 28  1  0
 28 29  1  0
 28 30  1  0
 28 31  1  0
 31 32  1  0
 32 33  1  0
 32 34  1  0
 32 35  1  0
 35 36  1  0
 35 37  1  0
 35 38  1  0
 38 39  1  0
 38 40  1  0
 38 41  1  0
 41 42  1  0
 41 43  1  0
 41 44  1  0
 44 45  1  0
 44 46  1  0
 23 47  2  0
 47 48  1  0
 48 49  3  0
 47 50  1  0
 50 51  1  0
 51 52  1  0
 51 53  1  0
 50 54  2  0
 54 55  1  0
 13 56  2  0
 56 57  1  0
 57 58  1  0
 58 59  1  0
 58 60  1  0
 58 61  1  0
 56  2  1  0
 54 21  1  0
 44 31  1  0
M  END
>  <score>  (398) 
7.3713

$$$$

     RDKit          3D

 52 54  0  0  0  0  0  0  0  0999 V2000
    3.1997  140.2715   49.2092 H   0  0  0  0  0  0  0  0  0  0  0  0
    2.5056  141.0512   49.5030 C   0  0  0  0  0  0  0  0  0  0  0  0
    1.5433  141.4551   48.6606 N   0  0  0  0  0  0  0  0  0  0  0  0
    0.7330  142.4464   49.0469 C   0  0  0  0  0  0  0  0  0  0  0  0
   -0.0468  142.8203   48.3940 H   0  0  0  0  0  0  0  0  0  0  0  0
    0.8513  143.0490   50.2756 C   0  0  0  0  0  0  0  0  0  0  0  0
    0.1993  143.8749   50.5231 H   0  0  0  0  0  0  0  0  0  0  0  0
    1.7914  142.5922   51.1569 C   0  0  0  0  0  0  0  0  0  0  0  0
    1.8509  143.2178   52.3677 N   0  0  0  0  0  0  0  0  0  0  0  0
    1.3481  144.0946   52.4352 H   0  0  0  0  0  0  0  0  0  0  0  0
    2.5280  142.7482   53.4891 C   0  0  0  0  0  0  0  0  0  0  0  0
    2.8401  141.5571   53.5267 O   0  0  0  0  0  0  0  0  0  0  0  0
    2.9366  143.6862   54.6149 C   0  0  0  0  0  0  0  0  0  0  0  0
    3.0652  144.9959   54.3235 N   0  0  0  0  0  0  0  0  0  0  0  0
    3.5495  145.8206   55.2201 C   0  0  0  0  0  0  0  0  0  0  0  0
    3.7097  147.0070   54.6093 N   0  0  0  0  0  0  0  0  0  0  0  0
    3.4406  146.9999   53.6380 H   0  0  0  0  0  0  0  0  0  0  0  0
    3.7374  148.1998   55.2561 C   0  0  0  0  0  0  0  0  0  0  0  0
    3.8106  148.2486   56.4706 O   0  0  0  0  0  0  0  0  0  0  0  0
    3.7011  149.4694   54.4282 C   0  0  0  0  0  0  0  0  0  0  0  0
    3.9409  150.2796   55.1041 H   0  0  0  0  0  0  0  0  0  0  0  0
    4.4397  149.4300   53.6188 H   0  0  0  0  0  0  0  0  0  0  0  0
    2.3401  149.7643   53.8707 C   0  0  0  0  0  0  0  0  0  0  0  0
    1.5472  150.6694   54.5760 C   0  0  0  0  0  0  0  0  0  0  0  0
    1.9125  151.1205   55.4957 H   0  0  0  0  0  0  0  0  0  0  0  0
    0.2983  151.0451   54.0930 C   0  0  0  0  0  0  0  0  0  0  0  0
   -0.4040  151.9847   54.7921 O   0  0  0  0  0  0  0  0  0  0  0  0
   -1.4306  151.4050   55.5961 C   0  0  0  0  0  0  0  0  0  0  0  0
   -2.1609  150.8893   54.9646 H   0  0  0  0  0  0  0  0  0  0  0  0
   -1.0050  150.6864   56.3019 H   0  0  0  0  0  0  0  0  0  0  0  0
   -1.9397  152.1906   56.1630 H   0  0  0  0  0  0  0  0  0  0  0  0
   -0.1933  150.4745   52.9056 C   0  0  0  0  0  0  0  0  0  0  0  0
   -1.9256  150.9636   52.2451 Br  0  0  0  0  0  0  0  0  0  0  0  0
    0.6114  149.5742   52.1851 C   0  0  0  0  0  0  0  0  0  0  0  0
    0.2723  149.1648   51.2384 H   0  0  0  0  0  0  0  0  0  0  0  0
    1.8894  149.2205   52.6574 C   0  0  0  0  0  0  0  0  0  0  0  0
    2.7466  148.3934   51.9710 O   0  0  0  0  0  0  0  0  0  0  0  0
    2.1350  147.3098   51.2705 C   0  0  0  0  0  0  0  0  0  0  0  0
    2.9035  146.5988   50.9508 H   0  0  0  0  0  0  0  0  0  0  0  0
    1.4333  146.7896   51.9293 H   0  0  0  0  0  0  0  0  0  0  0  0
    1.6025  147.6710   50.3859 H   0  0  0  0  0  0  0  0  0  0  0  0
    3.8945  145.4604   56.4951 C   0  0  0  0  0  0  0  0  0  0  0  0
    4.3128  146.1557   57.2056 H   0  0  0  0  0  0  0  0  0  0  0  0
    3.7451  144.1467   56.8275 C   0  0  0  0  0  0  0  0  0  0  0  0
    4.1353  143.7702   58.0690 N   0  0  0  0  0  0  0  0  0  0  0  0
    4.0967  142.7852   58.3270 H   0  0  0  0  0  0  0  0  0  0  0  0
    4.4946  144.4782   58.7078 H   0  0  0  0  0  0  0  0  0  0  0  0
    3.2679  143.2347   55.9052 C   0  0  0  0  0  0  0  0  0  0  0  0
    3.1646  141.8520   56.2443 C   0  0  0  0  0  0  0  0  0  0  0  0
    3.0974  140.7198   56.4990 N   0  0  0  0  0  0  0  0  0  0  0  0
    2.6491  141.5886   50.7705 C   0  0  0  0  0  0  0  0  0  0  0  0
    3.4295  141.2357   51.4335 H   0  0  0  0  0  0  0  0  0  0  0  0
  1  2  1  0
  2  3  2  0
  3  4  1  0
  4  5  1  0
  4  6  2  0
  6  7  1  0
  6  8  1  0
  8  9  1  0
  9 10  1  0
  9 11  1  0
 11 12  2  0
 11 13  1  0
 13 14  2  0
 14 15  1  0
 15 16  1  0
 16 17  1  0
 16 18  1  0
 18 19  2  0
 18 20  1  0
 20 21  1  0
 20 22  1  0
 20 23  1  0
 23 24  2  0
 24 25  1  0
 24 26  1  0
 26 27  1  0
 27 28  1  0
 28 29  1  0
 28 30  1  0
 28 31  1  0
 26 32  2  0
 32 33  1  0
 32 34  1  0
 34 35  1  0
 34 36  2  0
 36 37  1  0
 37 38  1  0
 38 39  1  0
 38 40  1  0
 38 41  1  0
 15 42  2  0
 42 43  1  0
 42 44  1  0
 44 45  1  0
 45 46  1  0
 45 47  1  0
 44 48  2  0
 48 49  1  0
 49 50  3  0
  8 51  2  0
 51 52  1  0
 51  2  1  0
 48 13  1  0
 36 23  1  0
M  END
>  <score>  (399) 
7.37847

$$$$

     RDKit          3D

 64 66  0  0  0  0  0  0  0  0999 V2000
    0.3072  149.2008   51.2496 H   0  0  0  0  0  0  0  0  0  0  0  0
    0.6587  149.6046   52.1958 C   0  0  0  0  0  0  0  0  0  0  0  0
   -0.1458  150.4987   52.9360 C   0  0  0  0  0  0  0  0  0  0  0  0
   -1.8716  150.9860   52.2789 Br  0  0  0  0  0  0  0  0  0  0  0  0
    0.3341  151.0570   54.1315 C   0  0  0  0  0  0  0  0  0  0  0  0
   -0.3783  151.9749   54.8581 O   0  0  0  0  0  0  0  0  0  0  0  0
   -1.4248  151.4033   55.6452 C   0  0  0  0  0  0  0  0  0  0  0  0
   -1.0124  150.7018   56.3717 H   0  0  0  0  0  0  0  0  0  0  0  0
   -2.1516  150.8752   55.0198 H   0  0  0  0  0  0  0  0  0  0  0  0
   -1.9388  152.2019   56.1883 H   0  0  0  0  0  0  0  0  0  0  0  0
    1.5949  150.6838   54.5748 C   0  0  0  0  0  0  0  0  0  0  0  0
    1.9913  151.1399   55.4717 H   0  0  0  0  0  0  0  0  0  0  0  0
    2.3781  149.7781   53.8614 C   0  0  0  0  0  0  0  0  0  0  0  0
    3.7208  149.4650   54.4034 C   0  0  0  0  0  0  0  0  0  0  0  0
    3.9925  150.3380   54.9868 H   0  0  0  0  0  0  0  0  0  0  0  0
    4.4075  149.3563   53.5618 H   0  0  0  0  0  0  0  0  0  0  0  0
    3.7419  148.1925   55.2577 C   0  0  0  0  0  0  0  0  0  0  0  0
    3.8453  148.2444   56.4747 O   0  0  0  0  0  0  0  0  0  0  0  0
    3.7036  146.9806   54.6247 N   0  0  0  0  0  0  0  0  0  0  0  0
    3.5069  146.9360   53.6380 H   0  0  0  0  0  0  0  0  0  0  0  0
    3.5371  145.7826   55.2006 C   0  0  0  0  0  0  0  0  0  0  0  0
    3.0516  144.9553   54.2961 N   0  0  0  0  0  0  0  0  0  0  0  0
    2.9062  143.6745   54.6359 C   0  0  0  0  0  0  0  0  0  0  0  0
    2.3863  142.7592   53.7510 O   0  0  0  0  0  0  0  0  0  0  0  0
    1.9830  143.1609   52.4264 C   0  0  0  0  0  0  0  0  0  0  0  0
    1.3810  144.0781   52.4628 H   0  0  0  0  0  0  0  0  0  0  0  0
    1.3474  142.3611   52.0318 H   0  0  0  0  0  0  0  0  0  0  0  0
    3.1737  143.3351   51.4749 C   0  0  0  0  0  0  0  0  0  0  0  0
    3.7871  144.1599   51.8480 H   0  0  0  0  0  0  0  0  0  0  0  0
    3.7745  142.4201   51.4782 H   0  0  0  0  0  0  0  0  0  0  0  0
    2.7392  143.6365   50.0278 C   0  0  0  0  0  0  0  0  0  0  0  0
    2.0456  144.4853   50.0271 H   0  0  0  0  0  0  0  0  0  0  0  0
    3.6164  143.9316   49.4418 H   0  0  0  0  0  0  0  0  0  0  0  0
    2.0998  142.4670   49.3822 N   0  0  0  0  0  0  0  0  0  0  0  0
    3.0121  141.4943   48.7383 C   0  0  0  0  0  0  0  0  0  0  0  0
    2.4929  140.5381   48.5974 H   0  0  0  0  0  0  0  0  0  0  0  0
    3.8825  141.3149   49.3796 H   0  0  0  0  0  0  0  0  0  0  0  0
    3.4846  142.0147   47.3680 C   0  0  0  0  0  0  0  0  0  0  0  0
    4.1118  142.8967   47.5335 H   0  0  0  0  0  0  0  0  0  0  0  0
    4.0902  141.2490   46.8679 H   0  0  0  0  0  0  0  0  0  0  0  0
    2.3016  142.3985   46.4610 C   0  0  0  0  0  0  0  0  0  0  0  0
    1.7407  141.4966   46.1822 H   0  0  0  0  0  0  0  0  0  0  0  0
    2.6692  142.8687   45.5402 H   0  0  0  0  0  0  0  0  0  0  0  0
    1.3714  143.3701   47.1949 C   0  0  0  0  0  0  0  0  0  0  0  0
    1.8946  144.3135   47.3868 H   0  0  0  0  0  0  0  0  0  0  0  0
    0.4906  143.5836   46.5764 H   0  0  0  0  0  0  0  0  0  0  0  0
    0.9342  142.7799   48.5327 C   0  0  0  0  0  0  0  0  0  0  0  0
    0.3055  143.5145   49.0376 H   0  0  0  0  0  0  0  0  0  0  0  0
    0.3468  141.8706   48.3552 H   0  0  0  0  0  0  0  0  0  0  0  0
    3.2622  143.2142   55.8862 C   0  0  0  0  0  0  0  0  0  0  0  0
    3.1398  141.8367   56.2213 C   0  0  0  0  0  0  0  0  0  0  0  0
    3.0363  140.7011   56.4464 N   0  0  0  0  0  0  0  0  0  0  0  0
    3.7441  144.1182   56.7822 C   0  0  0  0  0  0  0  0  0  0  0  0
    4.1410  143.7297   57.9995 N   0  0  0  0  0  0  0  0  0  0  0  0
    4.4895  144.4365   58.6410 H   0  0  0  0  0  0  0  0  0  0  0  0
    4.0528  142.7520   58.2665 H   0  0  0  0  0  0  0  0  0  0  0  0
    3.8838  145.4292   56.4749 C   0  0  0  0  0  0  0  0  0  0  0  0
    4.2985  146.1189   57.1958 H   0  0  0  0  0  0  0  0  0  0  0  0
    1.9344  149.2350   52.6510 C   0  0  0  0  0  0  0  0  0  0  0  0
    2.7753  148.4023   51.9455 O   0  0  0  0  0  0  0  0  0  0  0  0
    2.1660  147.2950   51.2802 C   0  0  0  0  0  0  0  0  0  0  0  0
    2.9524  146.6028   50.9604 H   0  0  0  0  0  0  0  0  0  0  0  0
    1.4866  146.7625   51.9544 H   0  0  0  0  0  0  0  0  0  0  0  0
    1.6127  147.6377   50.4014 H   0  0  0  0  0  0  0  0  0  0  0  0
  1  2  1  0
  2  3  2  0
  3  4  1  0
  3  5  1  0
  5  6  1  0
  6  7  1  0
  7  8  1  0
  7  9  1  0
  7 10  1  0
  5 11  2  0
 11 12  1  0
 11 13  1  0
 13 14  1  0
 14 15  1  0
 14 16  1  0
 14 17  1  0
 17 18  2  0
 17 19  1  0
 19 20  1  0
 19 21  1  0
 21 22  2  0
 22 23  1  0
 23 24  1  0
 24 25  1  0
 25 26  1  0
 25 27  1  0
 25 28  1  0
 28 29  1  0
 28 30  1  0
 28 31  1  0
 31 32  1  0
 31 33  1  0
 31 34  1  0
 34 35  1  0
 35 36  1  0
 35 37  1  0
 35 38  1  0
 38 39  1  0
 38 40  1  0
 38 41  1  0
 41 42  1  0
 41 43  1  0
 41 44  1  0
 44 45  1  0
 44 46  1  0
 44 47  1  0
 47 48  1  0
 47 49  1  0
 23 50  2  0
 50 51  1  0
 51 52  3  0
 50 53  1  0
 53 54  1  0
 54 55  1  0
 54 56  1  0
 53 57  2  0
 57 58  1  0
 13 59  2  0
 59 60  1  0
 60 61  1  0
 61 62  1  0
 61 63  1  0
 61 64  1  0
 59  2  1  0
 57 21  1  0
 47 34  1  0
M  END
>  <score>  (400) 
7.38746

$$$$

     RDKit          3D

 58 60  0  0  0  0  0  0  0  0999 V2000
    0.2871  149.1753   51.2328 H   0  0  0  0  0  0  0  0  0  0  0  0
    0.6204  149.5754   52.1830 C   0  0  0  0  0  0  0  0  0  0  0  0
   -0.1809  150.4755   52.9070 C   0  0  0  0  0  0  0  0  0  0  0  0
   -1.9147  150.9777   52.2649 Br  0  0  0  0  0  0  0  0  0  0  0  0
    0.3106  151.0355   54.1024 C   0  0  0  0  0  0  0  0  0  0  0  0
   -0.3833  151.9741   54.8098 O   0  0  0  0  0  0  0  0  0  0  0  0
   -1.4201  151.4050   55.6082 C   0  0  0  0  0  0  0  0  0  0  0  0
   -2.1466  150.8857   54.9780 H   0  0  0  0  0  0  0  0  0  0  0  0
   -1.0065  150.6882   56.3207 H   0  0  0  0  0  0  0  0  0  0  0  0
   -1.9334  152.1955   56.1648 H   0  0  0  0  0  0  0  0  0  0  0  0
    1.5655  150.6764   54.5788 C   0  0  0  0  0  0  0  0  0  0  0  0
    1.9463  151.1310   55.4947 H   0  0  0  0  0  0  0  0  0  0  0  0
    2.3395  149.7594   53.8714 C   0  0  0  0  0  0  0  0  0  0  0  0
    3.6907  149.4305   54.4175 C   0  0  0  0  0  0  0  0  0  0  0  0
    4.4178  149.3999   53.6052 H   0  0  0  0  0  0  0  0  0  0  0  0
    3.9587  150.2306   55.0932 H   0  0  0  0  0  0  0  0  0  0  0  0
    3.7293  148.1353   55.2090 C   0  0  0  0  0  0  0  0  0  0  0  0
    3.8111  148.1708   56.4213 O   0  0  0  0  0  0  0  0  0  0  0  0
    3.6770  146.9444   54.5621 N   0  0  0  0  0  0  0  0  0  0  0  0
    3.4031  146.9208   53.5917 H   0  0  0  0  0  0  0  0  0  0  0  0
    3.5316  145.7707   55.1645 C   0  0  0  0  0  0  0  0  0  0  0  0
    3.0474  144.9628   54.2655 N   0  0  0  0  0  0  0  0  0  0  0  0
    2.9339  143.6960   54.6025 C   0  0  0  0  0  0  0  0  0  0  0  0
    2.4640  142.8759   53.5993 N   0  0  0  0  0  0  0  0  0  0  0  0
    1.1255  143.0772   53.0394 C   0  0  0  0  0  0  0  0  0  0  0  0
    0.6188  142.1242   53.1348 H   0  0  0  0  0  0  0  0  0  0  0  0
    0.5474  143.8336   53.5790 H   0  0  0  0  0  0  0  0  0  0  0  0
    1.1699  143.4039   51.5557 C   0  0  0  0  0  0  0  0  0  0  0  0
    0.2346  143.0459   51.1109 H   0  0  0  0  0  0  0  0  0  0  0  0
    1.2181  144.4824   51.4030 H   0  0  0  0  0  0  0  0  0  0  0  0
    2.3702  142.7427   50.8638 C   0  0  0  0  0  0  0  0  0  0  0  0
    3.2160  143.4419   50.8420 H   0  0  0  0  0  0  0  0  0  0  0  0
    1.9843  142.3956   49.5340 O   0  0  0  0  0  0  0  0  0  0  0  0
    2.0884  143.4977   48.6219 C   0  0  0  0  0  0  0  0  0  0  0  0
    1.4995  144.3561   48.9694 H   0  0  0  0  0  0  0  0  0  0  0  0
    1.7204  143.2061   47.6323 H   0  0  0  0  0  0  0  0  0  0  0  0
    3.1389  143.7975   48.5257 H   0  0  0  0  0  0  0  0  0  0  0  0
    2.8052  141.4763   51.6089 C   0  0  0  0  0  0  0  0  0  0  0  0
    1.9478  140.8079   51.7085 H   0  0  0  0  0  0  0  0  0  0  0  0
    3.5903  140.9616   51.0456 H   0  0  0  0  0  0  0  0  0  0  0  0
    3.3189  141.8374   53.0031 C   0  0  0  0  0  0  0  0  0  0  0  0
    3.3422  140.9557   53.6508 H   0  0  0  0  0  0  0  0  0  0  0  0
    4.3401  142.1915   52.8857 H   0  0  0  0  0  0  0  0  0  0  0  0
    3.2806  143.2084   55.8389 C   0  0  0  0  0  0  0  0  0  0  0  0
    3.1569  141.8182   56.1367 C   0  0  0  0  0  0  0  0  0  0  0  0
    3.0686  140.6895   56.3961 N   0  0  0  0  0  0  0  0  0  0  0  0
    3.7455  144.1173   56.7528 C   0  0  0  0  0  0  0  0  0  0  0  0
    4.1261  143.7484   57.9873 N   0  0  0  0  0  0  0  0  0  0  0  0
    4.0645  142.7738   58.2604 H   0  0  0  0  0  0  0  0  0  0  0  0
    4.4661  144.4556   58.6337 H   0  0  0  0  0  0  0  0  0  0  0  0
    3.8759  145.4332   56.4450 C   0  0  0  0  0  0  0  0  0  0  0  0
    4.2709  146.1334   57.1697 H   0  0  0  0  0  0  0  0  0  0  0  0
    1.8924  149.2191   52.6575 C   0  0  0  0  0  0  0  0  0  0  0  0
    2.7560  148.4045   51.9670 O   0  0  0  0  0  0  0  0  0  0  0  0
    2.1450  147.3110   51.2796 C   0  0  0  0  0  0  0  0  0  0  0  0
    1.4383  146.7989   51.9389 H   0  0  0  0  0  0  0  0  0  0  0  0
    1.6150  147.6553   50.3870 H   0  0  0  0  0  0  0  0  0  0  0  0
    2.9110  146.5924   50.9739 H   0  0  0  0  0  0  0  0  0  0  0  0
  1  2  1  0
  2  3  2  0
  3  4  1  0
  3  5  1  0
  5  6  1  0
  6  7  1  0
  7  8  1  0
  7  9  1  0
  7 10  1  0
  5 11  2  0
 11 12  1  0
 11 13  1  0
 13 14  1  0
 14 15  1  0
 14 16  1  0
 14 17  1  0
 17 18  2  0
 17 19  1  0
 19 20  1  0
 19 21  1  0
 21 22  2  0
 22 23  1  0
 23 24  1  0
 24 25  1  0
 25 26  1  0
 25 27  1  0
 25 28  1  0
 28 29  1  0
 28 30  1  0
 28 31  1  0
 31 32  1  0
 31 33  1  0
 33 34  1  0
 34 35  1  0
 34 36  1  0
 34 37  1  0
 31 38  1  0
 38 39  1  0
 38 40  1  0
 38 41  1  0
 41 42  1  0
 41 43  1  0
 23 44  2  0
 44 45  1  0
 45 46  3  0
 44 47  1  0
 47 48  1  0
 48 49  1  0
 48 50  1  0
 47 51  2  0
 51 52  1  0
 13 53  2  0
 53 54  1  0
 54 55  1  0
 55 56  1  0
 55 57  1  0
 55 58  1  0
 53  2  1  0
 51 21  1  0
 41 24  1  0
M  END
>  <score>  (401) 
7.39258

$$$$

     RDKit          3D

 59 61  0  0  0  0  0  0  0  0999 V2000
    0.3061  149.1996   51.2488 H   0  0  0  0  0  0  0  0  0  0  0  0
    0.6575  149.6041   52.1946 C   0  0  0  0  0  0  0  0  0  0  0  0
   -0.1456  150.4981   52.9345 C   0  0  0  0  0  0  0  0  0  0  0  0
   -1.8724  150.9851   52.2776 Br  0  0  0  0  0  0  0  0  0  0  0  0
    0.3321  151.0578   54.1305 C   0  0  0  0  0  0  0  0  0  0  0  0
   -0.3783  151.9750   54.8583 O   0  0  0  0  0  0  0  0  0  0  0  0
   -1.4256  151.4036   55.6457 C   0  0  0  0  0  0  0  0  0  0  0  0
   -2.1517  150.8755   55.0198 H   0  0  0  0  0  0  0  0  0  0  0  0
   -1.0133  150.7020   56.3718 H   0  0  0  0  0  0  0  0  0  0  0  0
   -1.9402  152.2016   56.1892 H   0  0  0  0  0  0  0  0  0  0  0  0
    1.5946  150.6869   54.5736 C   0  0  0  0  0  0  0  0  0  0  0  0
    1.9884  151.1442   55.4709 H   0  0  0  0  0  0  0  0  0  0  0  0
    2.3785  149.7804   53.8608 C   0  0  0  0  0  0  0  0  0  0  0  0
    3.7227  149.4635   54.4021 C   0  0  0  0  0  0  0  0  0  0  0  0
    3.9942  150.3347   54.9859 H   0  0  0  0  0  0  0  0  0  0  0  0
    4.4091  149.3568   53.5612 H   0  0  0  0  0  0  0  0  0  0  0  0
    3.7455  148.1890   55.2572 C   0  0  0  0  0  0  0  0  0  0  0  0
    3.8456  148.2395   56.4734 O   0  0  0  0  0  0  0  0  0  0  0  0
    3.6969  146.9724   54.6317 N   0  0  0  0  0  0  0  0  0  0  0  0
    3.5025  146.9241   53.6444 H   0  0  0  0  0  0  0  0  0  0  0  0
    3.5214  145.7756   55.2192 C   0  0  0  0  0  0  0  0  0  0  0  0
    3.0177  144.9465   54.3325 N   0  0  0  0  0  0  0  0  0  0  0  0
    2.9060  143.6712   54.6745 C   0  0  0  0  0  0  0  0  0  0  0  0
    2.3837  142.8174   53.7078 N   0  0  0  0  0  0  0  0  0  0  0  0
    3.1800  141.7115   53.1229 C   0  0  0  0  0  0  0  0  0  0  0  0
    2.6143  140.7794   53.2213 H   0  0  0  0  0  0  0  0  0  0  0  0
    4.1339  141.5734   53.6472 H   0  0  0  0  0  0  0  0  0  0  0  0
    3.4507  141.9525   51.6137 C   0  0  0  0  0  0  0  0  0  0  0  0
    3.9403  141.0687   51.1936 H   0  0  0  0  0  0  0  0  0  0  0  0
    4.1340  142.8026   51.5141 H   0  0  0  0  0  0  0  0  0  0  0  0
    2.2230  142.2396   50.8268 N   0  0  0  0  0  0  0  0  0  0  0  0
    2.4654  142.3559   49.3724 C   0  0  0  0  0  0  0  0  0  0  0  0
    2.7812  143.3769   49.1312 H   0  0  0  0  0  0  0  0  0  0  0  0
    3.2743  141.6803   49.0757 H   0  0  0  0  0  0  0  0  0  0  0  0
    1.2175  142.0074   48.5705 C   0  0  0  0  0  0  0  0  0  0  0  0
    0.4243  142.7309   48.7692 H   0  0  0  0  0  0  0  0  0  0  0  0
    1.4439  142.0224   47.5004 H   0  0  0  0  0  0  0  0  0  0  0  0
    0.8654  141.0080   48.8373 H   0  0  0  0  0  0  0  0  0  0  0  0
    1.4901  143.3876   51.4166 C   0  0  0  0  0  0  0  0  0  0  0  0
    2.0850  144.3017   51.3068 H   0  0  0  0  0  0  0  0  0  0  0  0
    0.5436  143.5223   50.8842 H   0  0  0  0  0  0  0  0  0  0  0  0
    1.1872  143.1690   52.9101 C   0  0  0  0  0  0  0  0  0  0  0  0
    0.5192  142.3109   52.9503 H   0  0  0  0  0  0  0  0  0  0  0  0
    0.6650  144.0419   53.3226 H   0  0  0  0  0  0  0  0  0  0  0  0
    3.2876  143.1953   55.9040 C   0  0  0  0  0  0  0  0  0  0  0  0
    3.1597  141.8172   56.2305 C   0  0  0  0  0  0  0  0  0  0  0  0
    3.0343  140.6792   56.4345 N   0  0  0  0  0  0  0  0  0  0  0  0
    3.7610  144.1086   56.7951 C   0  0  0  0  0  0  0  0  0  0  0  0
    4.1520  143.7249   58.0164 N   0  0  0  0  0  0  0  0  0  0  0  0
    4.4944  144.4334   58.6599 H   0  0  0  0  0  0  0  0  0  0  0  0
    4.0578  142.7488   58.2814 H   0  0  0  0  0  0  0  0  0  0  0  0
    3.8895  145.4253   56.4876 C   0  0  0  0  0  0  0  0  0  0  0  0
    4.3050  146.1254   57.2017 H   0  0  0  0  0  0  0  0  0  0  0  0
    1.9340  149.2363   52.6513 C   0  0  0  0  0  0  0  0  0  0  0  0
    2.7740  148.4031   51.9482 O   0  0  0  0  0  0  0  0  0  0  0  0
    2.1642  147.2968   51.2812 C   0  0  0  0  0  0  0  0  0  0  0  0
    2.9503  146.6036   50.9631 H   0  0  0  0  0  0  0  0  0  0  0  0
    1.4826  146.7645   51.9535 H   0  0  0  0  0  0  0  0  0  0  0  0
    1.6132  147.6397   50.4011 H   0  0  0  0  0  0  0  0  0  0  0  0
  1  2  1  0
  2  3  2  0
  3  4  1  0
  3  5  1  0
  5  6  1  0
  6  7  1  0
  7  8  1  0
  7  9  1  0
  7 10  1  0
  5 11  2  0
 11 12  1  0
 11 13  1  0
 13 14  1  0
 14 15  1  0
 14 16  1  0
 14 17  1  0
 17 18  2  0
 17 19  1  0
 19 20  1  0
 19 21  1  0
 21 22  2  0
 22 23  1  0
 23 24  1  0
 24 25  1  0
 25 26  1  0
 25 27  1  0
 25 28  1  0
 28 29  1  0
 28 30  1  0
 28 31  1  0
 31 32  1  0
 32 33  1  0
 32 34  1  0
 32 35  1  0
 35 36  1  0
 35 37  1  0
 35 38  1  0
 31 39  1  0
 39 40  1  0
 39 41  1  0
 39 42  1  0
 42 43  1  0
 42 44  1  0
 23 45  2  0
 45 46  1  0
 46 47  3  0
 45 48  1  0
 48 49  1  0
 49 50  1  0
 49 51  1  0
 48 52  2  0
 52 53  1  0
 13 54  2  0
 54 55  1  0
 55 56  1  0
 56 57  1  0
 56 58  1  0
 56 59  1  0
 54  2  1  0
 52 21  1  0
 42 24  1  0
M  END
>  <score>  (402) 
7.39405

$$$$

     RDKit          3D

 57 59  0  0  0  0  0  0  0  0999 V2000
    3.4809  140.3084   49.2853 H   0  0  0  0  0  0  0  0  0  0  0  0
    2.7318  141.0216   49.6131 C   0  0  0  0  0  0  0  0  0  0  0  0
    2.8168  141.5732   50.9013 C   0  0  0  0  0  0  0  0  0  0  0  0
    3.6553  141.3015   51.5462 H   0  0  0  0  0  0  0  0  0  0  0  0
    1.8479  142.5087   51.3147 C   0  0  0  0  0  0  0  0  0  0  0  0
    1.8952  143.2210   52.5949 C   0  0  0  0  0  0  0  0  0  0  0  0
    1.2880  144.2822   52.7043 O   0  0  0  0  0  0  0  0  0  0  0  0
    2.5626  142.7277   53.6918 N   0  0  0  0  0  0  0  0  0  0  0  0
    2.9873  141.8121   53.6526 H   0  0  0  0  0  0  0  0  0  0  0  0
    2.9373  143.6028   54.6723 C   0  0  0  0  0  0  0  0  0  0  0  0
    3.0430  144.8489   54.2552 N   0  0  0  0  0  0  0  0  0  0  0  0
    3.4962  145.7235   55.1017 C   0  0  0  0  0  0  0  0  0  0  0  0
    3.5811  146.9207   54.5031 N   0  0  0  0  0  0  0  0  0  0  0  0
    3.2902  146.9321   53.5378 H   0  0  0  0  0  0  0  0  0  0  0  0
    3.6625  148.0888   55.1933 C   0  0  0  0  0  0  0  0  0  0  0  0
    3.7846  148.0717   56.4061 O   0  0  0  0  0  0  0  0  0  0  0  0
    3.6602  149.4246   54.4675 C   0  0  0  0  0  0  0  0  0  0  0  0
    3.8965  150.1862   55.2056 H   0  0  0  0  0  0  0  0  0  0  0  0
    4.4346  149.4373   53.6972 H   0  0  0  0  0  0  0  0  0  0  0  0
    2.3244  149.7664   53.8644 C   0  0  0  0  0  0  0  0  0  0  0  0
    1.5157  150.6710   54.5575 C   0  0  0  0  0  0  0  0  0  0  0  0
    1.8561  151.0969   55.4958 H   0  0  0  0  0  0  0  0  0  0  0  0
    0.2727  151.0523   54.0631 C   0  0  0  0  0  0  0  0  0  0  0  0
   -0.4396  151.9934   54.7513 O   0  0  0  0  0  0  0  0  0  0  0  0
   -1.4553  151.4032   55.5575 C   0  0  0  0  0  0  0  0  0  0  0  0
   -1.9539  152.1782   56.1466 H   0  0  0  0  0  0  0  0  0  0  0  0
   -2.1970  150.8982   54.9302 H   0  0  0  0  0  0  0  0  0  0  0  0
   -1.0123  150.6736   56.2401 H   0  0  0  0  0  0  0  0  0  0  0  0
   -0.2041  150.4731   52.8781 C   0  0  0  0  0  0  0  0  0  0  0  0
   -1.9411  150.9237   52.2080 Br  0  0  0  0  0  0  0  0  0  0  0  0
    0.6020  149.5580   52.1824 C   0  0  0  0  0  0  0  0  0  0  0  0
    0.2364  149.1299   51.2576 H   0  0  0  0  0  0  0  0  0  0  0  0
    1.8823  149.2104   52.6520 C   0  0  0  0  0  0  0  0  0  0  0  0
    2.7248  148.3604   51.9752 O   0  0  0  0  0  0  0  0  0  0  0  0
    2.0903  147.2956   51.2634 C   0  0  0  0  0  0  0  0  0  0  0  0
    2.8560  146.5831   50.9435 H   0  0  0  0  0  0  0  0  0  0  0  0
    1.5716  147.6792   50.3792 H   0  0  0  0  0  0  0  0  0  0  0  0
    1.3727  146.7707   51.9057 H   0  0  0  0  0  0  0  0  0  0  0  0
    3.8573  145.4405   56.3948 C   0  0  0  0  0  0  0  0  0  0  0  0
    4.2504  146.1966   57.0544 H   0  0  0  0  0  0  0  0  0  0  0  0
    3.7518  144.1404   56.7994 C   0  0  0  0  0  0  0  0  0  0  0  0
    4.1800  143.8077   58.0428 N   0  0  0  0  0  0  0  0  0  0  0  0
    4.0773  142.8548   58.3762 H   0  0  0  0  0  0  0  0  0  0  0  0
    4.4311  144.5374   58.7013 H   0  0  0  0  0  0  0  0  0  0  0  0
    3.2794  143.1850   55.9368 C   0  0  0  0  0  0  0  0  0  0  0  0
    3.1984  141.8023   56.2707 C   0  0  0  0  0  0  0  0  0  0  0  0
    3.1304  140.6533   56.4336 N   0  0  0  0  0  0  0  0  0  0  0  0
    0.8239  142.8540   50.4215 C   0  0  0  0  0  0  0  0  0  0  0  0
    0.1129  143.6250   50.7088 H   0  0  0  0  0  0  0  0  0  0  0  0
    0.7260  142.2683   49.1615 C   0  0  0  0  0  0  0  0  0  0  0  0
   -0.0693  142.5576   48.4814 H   0  0  0  0  0  0  0  0  0  0  0  0
    1.6889  141.3512   48.7405 C   0  0  0  0  0  0  0  0  0  0  0  0
    1.6644  140.7830   47.4936 O   0  0  0  0  0  0  0  0  0  0  0  0
    0.3596  140.5764   46.9292 C   0  0  0  0  0  0  0  0  0  0  0  0
   -0.0057  141.4720   46.4216 H   0  0  0  0  0  0  0  0  0  0  0  0
   -0.3725  140.2990   47.6889 H   0  0  0  0  0  0  0  0  0  0  0  0
    0.4018  139.7594   46.2083 H   0  0  0  0  0  0  0  0  0  0  0  0
  1  2  1  0
  2  3  2  0
  3  4  1  0
  3  5  1  0
  5  6  1  0
  6  7  2  0
  6  8  1  0
  8  9  1  0
  8 10  1  0
 10 11  2  0
 11 12  1  0
 12 13  1  0
 13 14  1  0
 13 15  1  0
 15 16  2  0
 15 17  1  0
 17 18  1  0
 17 19  1  0
 17 20  1  0
 20 21  2  0
 21 22  1  0
 21 23  1  0
 23 24  1  0
 24 25  1  0
 25 26  1  0
 25 27  1  0
 25 28  1  0
 23 29  2  0
 29 30  1  0
 29 31  1  0
 31 32  1  0
 31 33  2  0
 33 34  1  0
 34 35  1  0
 35 36  1  0
 35 37  1  0
 35 38  1  0
 12 39  2  0
 39 40  1  0
 39 41  1  0
 41 42  1  0
 42 43  1  0
 42 44  1  0
 41 45  2  0
 45 46  1  0
 46 47  3  0
  5 48  2  0
 48 49  1  0
 48 50  1  0
 50 51  1  0
 50 52  2  0
 52 53  1  0
 53 54  1  0
 54 55  1  0
 54 56  1  0
 54 57  1  0
 52  2  1  0
 45 10  1  0
 33 20  1  0
M  END
>  <score>  (403) 
7.39987

$$$$

     RDKit          3D

 50 52  0  0  0  0  0  0  0  0999 V2000
    1.7711  139.9221   52.3458 H   0  0  0  0  0  0  0  0  0  0  0  0
    2.0343  140.9546   52.1682 C   0  0  0  0  0  0  0  0  0  0  0  0
    2.5270  141.6618   53.1772 N   0  0  0  0  0  0  0  0  0  0  0  0
    2.7880  142.9705   53.0106 C   0  0  0  0  0  0  0  0  0  0  0  0
    3.2426  143.8190   54.2012 C   0  0  0  0  0  0  0  0  0  0  0  0
    3.4570  145.1322   53.9957 N   0  0  0  0  0  0  0  0  0  0  0  0
    3.7343  145.9241   54.9983 C   0  0  0  0  0  0  0  0  0  0  0  0
    3.7875  147.1670   54.5229 N   0  0  0  0  0  0  0  0  0  0  0  0
    3.5910  147.2308   53.5401 H   0  0  0  0  0  0  0  0  0  0  0  0
    3.6999  148.2929   55.2773 C   0  0  0  0  0  0  0  0  0  0  0  0
    3.7764  148.2365   56.4891 O   0  0  0  0  0  0  0  0  0  0  0  0
    3.6376  149.6181   54.5430 C   0  0  0  0  0  0  0  0  0  0  0  0
    4.4325  149.6447   53.7940 H   0  0  0  0  0  0  0  0  0  0  0  0
    3.7930  150.4266   55.2575 H   0  0  0  0  0  0  0  0  0  0  0  0
    2.3033  149.8492   53.8897 C   0  0  0  0  0  0  0  0  0  0  0  0
    1.4567  150.7423   54.5467 C   0  0  0  0  0  0  0  0  0  0  0  0
    1.7743  151.1949   55.4815 H   0  0  0  0  0  0  0  0  0  0  0  0
    0.2140  151.0763   54.0225 C   0  0  0  0  0  0  0  0  0  0  0  0
   -0.5442  152.0017   54.6844 O   0  0  0  0  0  0  0  0  0  0  0  0
   -1.5205  151.3938   55.5308 C   0  0  0  0  0  0  0  0  0  0  0  0
   -2.2880  150.8977   54.9306 H   0  0  0  0  0  0  0  0  0  0  0  0
   -1.0566  150.6558   56.1904 H   0  0  0  0  0  0  0  0  0  0  0  0
   -1.9987  152.1567   56.1500 H   0  0  0  0  0  0  0  0  0  0  0  0
   -0.2235  150.4579   52.8407 C   0  0  0  0  0  0  0  0  0  0  0  0
   -1.9582  150.8475   52.1308 Br  0  0  0  0  0  0  0  0  0  0  0  0
    0.6063  149.5312   52.1905 C   0  0  0  0  0  0  0  0  0  0  0  0
    0.2559  149.0483   51.2827 H   0  0  0  0  0  0  0  0  0  0  0  0
    1.8837  149.2199   52.6938 C   0  0  0  0  0  0  0  0  0  0  0  0
    2.7150  148.3215   52.0582 O   0  0  0  0  0  0  0  0  0  0  0  0
    2.0732  147.3102   51.2586 C   0  0  0  0  0  0  0  0  0  0  0  0
    1.3581  146.7463   51.8653 H   0  0  0  0  0  0  0  0  0  0  0  0
    1.5411  147.7484   50.4077 H   0  0  0  0  0  0  0  0  0  0  0  0
    2.8182  146.6074   50.8708 H   0  0  0  0  0  0  0  0  0  0  0  0
    3.8575  145.5153   56.2900 C   0  0  0  0  0  0  0  0  0  0  0  0
    4.0899  146.2067   57.0828 H   0  0  0  0  0  0  0  0  0  0  0  0
    3.6838  144.1866   56.5307 C   0  0  0  0  0  0  0  0  0  0  0  0
    3.8398  143.7750   57.8061 N   0  0  0  0  0  0  0  0  0  0  0  0
    4.2877  144.4530   58.4133 H   0  0  0  0  0  0  0  0  0  0  0  0
    4.0505  142.7901   57.9465 H   0  0  0  0  0  0  0  0  0  0  0  0
    3.3788  143.3079   55.5090 C   0  0  0  0  0  0  0  0  0  0  0  0
    3.2086  141.9184   55.7964 C   0  0  0  0  0  0  0  0  0  0  0  0
    3.0931  140.7862   56.0334 N   0  0  0  0  0  0  0  0  0  0  0  0
    2.5761  143.5419   51.7988 N   0  0  0  0  0  0  0  0  0  0  0  0
    2.1397  142.8659   50.7218 C   0  0  0  0  0  0  0  0  0  0  0  0
    2.0033  143.5922   49.3570 C   0  0  0  0  0  0  0  0  0  0  0  0
    2.8031  144.7000   49.2937 F   0  0  0  0  0  0  0  0  0  0  0  0
    0.7080  143.9814   49.1732 F   0  0  0  0  0  0  0  0  0  0  0  0
    2.3717  142.7812   48.3217 F   0  0  0  0  0  0  0  0  0  0  0  0
    1.8233  141.5195   50.9240 C   0  0  0  0  0  0  0  0  0  0  0  0
    1.4415  140.8942   50.1346 H   0  0  0  0  0  0  0  0  0  0  0  0
  1  2  1  0
  2  3  2  0
  3  4  1  0
  4  5  1  0
  5  6  2  0
  6  7  1  0
  7  8  1  0
  8  9  1  0
  8 10  1  0
 10 11  2  0
 10 12  1  0
 12 13  1  0
 12 14  1  0
 12 15  1  0
 15 16  2  0
 16 17  1  0
 16 18  1  0
 18 19  1  0
 19 20  1  0
 20 21  1  0
 20 22  1  0
 20 23  1  0
 18 24  2  0
 24 25  1  0
 24 26  1  0
 26 27  1  0
 26 28  2  0
 28 29  1  0
 29 30  1  0
 30 31  1  0
 30 32  1  0
 30 33  1  0
  7 34  2  0
 34 35  1  0
 34 36  1  0
 36 37  1  0
 37 38  1  0
 37 39  1  0
 36 40  2  0
 40 41  1  0
 41 42  3  0
  4 43  2  0
 43 44  1  0
 44 45  1  0
 45 46  1  0
 45 47  1  0
 45 48  1  0
 44 49  2  0
 49 50  1  0
 49  2  1  0
 40  5  1  0
 28 15  1  0
M  END
>  <score>  (404) 
7.40535

$$$$

     RDKit          3D

 55 57  0  0  0  0  0  0  0  0999 V2000
    1.1884  140.8161   51.6252 H   0  0  0  0  0  0  0  0  0  0  0  0
    1.3783  141.1631   50.7407 O   0  0  0  0  0  0  0  0  0  0  0  0
    2.2294  142.2976   50.8244 C   0  0  0  0  0  0  0  0  0  0  0  0
    2.5260  142.5917   49.8128 H   0  0  0  0  0  0  0  0  0  0  0  0
    1.4321  143.4336   51.4587 C   0  0  0  0  0  0  0  0  0  0  0  0
    0.4722  143.5493   50.9472 H   0  0  0  0  0  0  0  0  0  0  0  0
    1.9795  144.3693   51.3418 H   0  0  0  0  0  0  0  0  0  0  0  0
    1.1822  143.1479   52.9301 C   0  0  0  0  0  0  0  0  0  0  0  0
    0.6595  143.9852   53.3971 H   0  0  0  0  0  0  0  0  0  0  0  0
    0.5434  142.2721   53.0090 H   0  0  0  0  0  0  0  0  0  0  0  0
    2.4394  142.8474   53.6131 N   0  0  0  0  0  0  0  0  0  0  0  0
    2.9315  143.6809   54.5980 C   0  0  0  0  0  0  0  0  0  0  0  0
    3.0373  144.9488   54.2564 N   0  0  0  0  0  0  0  0  0  0  0  0
    3.5247  145.7611   55.1482 C   0  0  0  0  0  0  0  0  0  0  0  0
    3.6636  146.9380   54.5438 N   0  0  0  0  0  0  0  0  0  0  0  0
    3.3872  146.9221   53.5743 H   0  0  0  0  0  0  0  0  0  0  0  0
    3.7252  148.1236   55.1994 C   0  0  0  0  0  0  0  0  0  0  0  0
    3.8060  148.1532   56.4115 O   0  0  0  0  0  0  0  0  0  0  0  0
    3.6887  149.4247   54.4214 C   0  0  0  0  0  0  0  0  0  0  0  0
    3.9602  150.2102   55.1113 H   0  0  0  0  0  0  0  0  0  0  0  0
    4.4185  149.4022   53.6121 H   0  0  0  0  0  0  0  0  0  0  0  0
    2.3352  149.7558   53.8740 C   0  0  0  0  0  0  0  0  0  0  0  0
    1.5610  150.6737   54.5796 C   0  0  0  0  0  0  0  0  0  0  0  0
    1.9399  151.1280   55.4975 H   0  0  0  0  0  0  0  0  0  0  0  0
    0.3077  151.0332   54.0984 C   0  0  0  0  0  0  0  0  0  0  0  0
   -0.3849  151.9747   54.8034 O   0  0  0  0  0  0  0  0  0  0  0  0
   -1.4201  151.4055   55.6035 C   0  0  0  0  0  0  0  0  0  0  0  0
   -1.9336  152.1944   56.1623 H   0  0  0  0  0  0  0  0  0  0  0  0
   -1.0058  150.6868   56.3137 H   0  0  0  0  0  0  0  0  0  0  0  0
   -2.1464  150.8875   54.9724 H   0  0  0  0  0  0  0  0  0  0  0  0
   -0.1861  150.4729   52.9031 C   0  0  0  0  0  0  0  0  0  0  0  0
   -1.9211  150.9766   52.2621 Br  0  0  0  0  0  0  0  0  0  0  0  0
    0.6150  149.5712   52.1807 C   0  0  0  0  0  0  0  0  0  0  0  0
    0.2827  149.1718   51.2294 H   0  0  0  0  0  0  0  0  0  0  0  0
    1.8866  149.2162   52.6589 C   0  0  0  0  0  0  0  0  0  0  0  0
    2.7535  148.4048   51.9684 O   0  0  0  0  0  0  0  0  0  0  0  0
    2.1438  147.3129   51.2776 C   0  0  0  0  0  0  0  0  0  0  0  0
    1.4529  146.7885   51.9438 H   0  0  0  0  0  0  0  0  0  0  0  0
    2.9102  146.6041   50.9510 H   0  0  0  0  0  0  0  0  0  0  0  0
    1.5964  147.6612   50.3974 H   0  0  0  0  0  0  0  0  0  0  0  0
    3.8737  145.4268   56.4284 C   0  0  0  0  0  0  0  0  0  0  0  0
    4.2640  146.1306   57.1502 H   0  0  0  0  0  0  0  0  0  0  0  0
    3.7490  144.1114   56.7434 C   0  0  0  0  0  0  0  0  0  0  0  0
    4.1297  143.7493   57.9797 N   0  0  0  0  0  0  0  0  0  0  0  0
    4.0656  142.7761   58.2573 H   0  0  0  0  0  0  0  0  0  0  0  0
    4.4602  144.4607   58.6267 H   0  0  0  0  0  0  0  0  0  0  0  0
    3.2860  143.1975   55.8340 C   0  0  0  0  0  0  0  0  0  0  0  0
    3.1619  141.8083   56.1357 C   0  0  0  0  0  0  0  0  0  0  0  0
    3.0730  140.6790   56.3938 N   0  0  0  0  0  0  0  0  0  0  0  0
    3.1965  141.6990   53.1176 C   0  0  0  0  0  0  0  0  0  0  0  0
    4.1327  141.5646   53.6660 H   0  0  0  0  0  0  0  0  0  0  0  0
    2.6105  140.7867   53.2548 H   0  0  0  0  0  0  0  0  0  0  0  0
    3.4839  141.9414   51.6347 C   0  0  0  0  0  0  0  0  0  0  0  0
    3.9517  141.0524   51.2069 H   0  0  0  0  0  0  0  0  0  0  0  0
    4.1887  142.7711   51.5475 H   0  0  0  0  0  0  0  0  0  0  0  0
  1  2  1  0
  2  3  1  0
  3  4  1  0
  3  5  1  0
  5  6  1  0
  5  7  1  0
  5  8  1  0
  8  9  1  0
  8 10  1  0
  8 11  1  0
 11 12  1  0
 12 13  2  0
 13 14  1  0
 14 15  1  0
 15 16  1  0
 15 17  1  0
 17 18  2  0
 17 19  1  0
 19 20  1  0
 19 21  1  0
 19 22  1  0
 22 23  2  0
 23 24  1  0
 23 25  1  0
 25 26  1  0
 26 27  1  0
 27 28  1  0
 27 29  1  0
 27 30  1  0
 25 31  2  0
 31 32  1  0
 31 33  1  0
 33 34  1  0
 33 35  2  0
 35 36  1  0
 36 37  1  0
 37 38  1  0
 37 39  1  0
 37 40  1  0
 14 41  2  0
 41 42  1  0
 41 43  1  0
 43 44  1  0
 44 45  1  0
 44 46  1  0
 43 47  2  0
 47 48  1  0
 48 49  3  0
 11 50  1  0
 50 51  1  0
 50 52  1  0
 50 53  1  0
 53 54  1  0
 53 55  1  0
 53  3  1  0
 47 12  1  0
 35 22  1  0
M  END
>  <score>  (405) 
7.4065

$$$$

     RDKit          3D

 51 53  0  0  0  0  0  0  0  0999 V2000
    3.8794  139.8109   52.4305 H   0  0  0  0  0  0  0  0  0  0  0  0
    3.3019  140.7184   52.5721 C   0  0  0  0  0  0  0  0  0  0  0  0
    3.5052  141.4531   53.7397 C   0  0  0  0  0  0  0  0  0  0  0  0
    4.2629  141.1397   54.4590 H   0  0  0  0  0  0  0  0  0  0  0  0
    2.8287  142.6667   53.9002 C   0  0  0  0  0  0  0  0  0  0  0  0
    3.1980  143.6284   54.9391 C   0  0  0  0  0  0  0  0  0  0  0  0
    3.2428  144.8992   54.5316 N   0  0  0  0  0  0  0  0  0  0  0  0
    3.6441  145.8282   55.3569 C   0  0  0  0  0  0  0  0  0  0  0  0
    3.6469  147.0138   54.7201 N   0  0  0  0  0  0  0  0  0  0  0  0
    3.4060  146.9614   53.7419 H   0  0  0  0  0  0  0  0  0  0  0  0
    3.6559  148.2210   55.3440 C   0  0  0  0  0  0  0  0  0  0  0  0
    3.8032  148.2621   56.5530 O   0  0  0  0  0  0  0  0  0  0  0  0
    3.6275  149.5036   54.5292 C   0  0  0  0  0  0  0  0  0  0  0  0
    4.4124  149.4718   53.7688 H   0  0  0  0  0  0  0  0  0  0  0  0
    3.8341  150.3173   55.2210 H   0  0  0  0  0  0  0  0  0  0  0  0
    2.2948  149.7875   53.8895 C   0  0  0  0  0  0  0  0  0  0  0  0
    1.4683  150.7068   54.5461 C   0  0  0  0  0  0  0  0  0  0  0  0
    1.8026  151.1637   55.4735 H   0  0  0  0  0  0  0  0  0  0  0  0
    0.2257  151.0638   54.0256 C   0  0  0  0  0  0  0  0  0  0  0  0
   -0.5284  151.9912   54.6935 O   0  0  0  0  0  0  0  0  0  0  0  0
   -1.5197  151.3902   55.5302 C   0  0  0  0  0  0  0  0  0  0  0  0
   -1.0694  150.6485   56.1948 H   0  0  0  0  0  0  0  0  0  0  0  0
   -1.9953  152.1552   56.1492 H   0  0  0  0  0  0  0  0  0  0  0  0
   -2.2891  150.9024   54.9242 H   0  0  0  0  0  0  0  0  0  0  0  0
   -0.2160  150.4618   52.8359 C   0  0  0  0  0  0  0  0  0  0  0  0
   -1.9490  150.8649   52.1240 Br  0  0  0  0  0  0  0  0  0  0  0  0
    0.6066  149.5318   52.1782 C   0  0  0  0  0  0  0  0  0  0  0  0
    0.2659  149.0691   51.2581 H   0  0  0  0  0  0  0  0  0  0  0  0
    1.8721  149.1848   52.6851 C   0  0  0  0  0  0  0  0  0  0  0  0
    2.7012  148.2937   52.0361 O   0  0  0  0  0  0  0  0  0  0  0  0
    2.0526  147.2937   51.2342 C   0  0  0  0  0  0  0  0  0  0  0  0
    2.7951  146.5919   50.8403 H   0  0  0  0  0  0  0  0  0  0  0  0
    1.3384  146.7328   51.8464 H   0  0  0  0  0  0  0  0  0  0  0  0
    1.5244  147.7427   50.3860 H   0  0  0  0  0  0  0  0  0  0  0  0
    3.9951  145.5745   56.6496 C   0  0  0  0  0  0  0  0  0  0  0  0
    4.3288  146.3445   57.3225 H   0  0  0  0  0  0  0  0  0  0  0  0
    3.9165  144.2842   57.0714 C   0  0  0  0  0  0  0  0  0  0  0  0
    4.1978  144.0631   58.3675 N   0  0  0  0  0  0  0  0  0  0  0  0
    4.5581  144.8407   58.9174 H   0  0  0  0  0  0  0  0  0  0  0  0
    4.3318  143.1110   58.6893 H   0  0  0  0  0  0  0  0  0  0  0  0
    3.5383  143.2688   56.2296 C   0  0  0  0  0  0  0  0  0  0  0  0
    3.4590  141.9088   56.6616 C   0  0  0  0  0  0  0  0  0  0  0  0
    3.3570  140.7790   56.9085 N   0  0  0  0  0  0  0  0  0  0  0  0
    1.8661  143.0525   52.9583 C   0  0  0  0  0  0  0  0  0  0  0  0
    1.3030  143.9706   53.1010 H   0  0  0  0  0  0  0  0  0  0  0  0
    1.6481  142.3322   51.7837 C   0  0  0  0  0  0  0  0  0  0  0  0
    0.7354  142.8163   50.8222 N   0  0  0  0  0  4  0  0  0  0  0  0
    0.0304  143.7850   51.1318 O   0  0  0  0  0  0  0  0  0  0  0  0
    0.7093  142.2651   49.7176 O   0  0  0  0  0  1  0  0  0  0  0  0
    2.4237  141.1819   51.5813 C   0  0  0  0  0  0  0  0  0  0  0  0
    2.3498  140.6656   50.6309 H   0  0  0  0  0  0  0  0  0  0  0  0
  1  2  1  0
  2  3  2  0
  3  4  1  0
  3  5  1  0
  5  6  1  0
  6  7  2  0
  7  8  1  0
  8  9  1  0
  9 10  1  0
  9 11  1  0
 11 12  2  0
 11 13  1  0
 13 14  1  0
 13 15  1  0
 13 16  1  0
 16 17  2  0
 17 18  1  0
 17 19  1  0
 19 20  1  0
 20 21  1  0
 21 22  1  0
 21 23  1  0
 21 24  1  0
 19 25  2  0
 25 26  1  0
 25 27  1  0
 27 28  1  0
 27 29  2  0
 29 30  1  0
 30 31  1  0
 31 32  1  0
 31 33  1  0
 31 34  1  0
  8 35  2  0
 35 36  1  0
 35 37  1  0
 37 38  1  0
 38 39  1  0
 38 40  1  0
 37 41  2  0
 41 42  1  0
 42 43  3  0
  5 44  2  0
 44 45  1  0
 44 46  1  0
 46 47  1  0
 47 48  2  0
 47 49  1  0
 46 50  2  0
 50 51  1  0
 50  2  1  0
 41  6  1  0
 29 16  1  0
M  CHG  2  47   1  49  -1
M  END
>  <score>  (406) 
7.42205

$$$$

     RDKit          3D

 61 63  0  0  0  0  0  0  0  0999 V2000
    0.2787  149.1671   51.2267 H   0  0  0  0  0  0  0  0  0  0  0  0
    0.6088  149.5684   52.1782 C   0  0  0  0  0  0  0  0  0  0  0  0
   -0.1914  150.4702   52.9005 C   0  0  0  0  0  0  0  0  0  0  0  0
   -1.9257  150.9747   52.2582 Br  0  0  0  0  0  0  0  0  0  0  0  0
    0.3043  151.0332   54.0941 C   0  0  0  0  0  0  0  0  0  0  0  0
   -0.3878  151.9755   54.7967 O   0  0  0  0  0  0  0  0  0  0  0  0
   -1.4209  151.4056   55.5992 C   0  0  0  0  0  0  0  0  0  0  0  0
   -1.9341  152.1939   56.1603 H   0  0  0  0  0  0  0  0  0  0  0  0
   -1.0046  150.6852   56.3079 H   0  0  0  0  0  0  0  0  0  0  0  0
   -2.1475  150.8888   54.9669 H   0  0  0  0  0  0  0  0  0  0  0  0
    1.5561  150.6712   54.5796 C   0  0  0  0  0  0  0  0  0  0  0  0
    1.9321  151.1259   55.4993 H   0  0  0  0  0  0  0  0  0  0  0  0
    2.3301  149.7523   53.8751 C   0  0  0  0  0  0  0  0  0  0  0  0
    3.6879  149.4285   54.4228 C   0  0  0  0  0  0  0  0  0  0  0  0
    3.9592  150.2060   55.1253 H   0  0  0  0  0  0  0  0  0  0  0  0
    4.4211  149.4125   53.6156 H   0  0  0  0  0  0  0  0  0  0  0  0
    3.7279  148.1235   55.1893 C   0  0  0  0  0  0  0  0  0  0  0  0
    3.8052  148.1493   56.4020 O   0  0  0  0  0  0  0  0  0  0  0  0
    3.6931  146.9442   54.5210 N   0  0  0  0  0  0  0  0  0  0  0  0
    3.3845  146.9400   53.5610 H   0  0  0  0  0  0  0  0  0  0  0  0
    3.5577  145.7655   55.1269 C   0  0  0  0  0  0  0  0  0  0  0  0
    3.0692  144.9367   54.2425 N   0  0  0  0  0  0  0  0  0  0  0  0
    2.9153  143.6690   54.6117 C   0  0  0  0  0  0  0  0  0  0  0  0
    2.4266  142.7383   53.7342 O   0  0  0  0  0  0  0  0  0  0  0  0
    1.9862  143.1677   52.4421 C   0  0  0  0  0  0  0  0  0  0  0  0
    1.4281  144.1079   52.5205 H   0  0  0  0  0  0  0  0  0  0  0  0
    1.3132  142.3967   52.0482 H   0  0  0  0  0  0  0  0  0  0  0  0
    3.1862  143.3320   51.5071 C   0  0  0  0  0  0  0  0  0  0  0  0
    3.7822  142.4165   51.5158 H   0  0  0  0  0  0  0  0  0  0  0  0
    3.8272  144.1353   51.8798 H   0  0  0  0  0  0  0  0  0  0  0  0
    2.7613  143.6656   50.0686 C   0  0  0  0  0  0  0  0  0  0  0  0
    3.6500  143.9776   49.5069 H   0  0  0  0  0  0  0  0  0  0  0  0
    2.0679  144.5106   50.0870 H   0  0  0  0  0  0  0  0  0  0  0  0
    2.1348  142.5293   49.3598 N   0  0  0  0  0  0  0  0  0  0  0  0
    3.0169  141.3791   49.1161 C   0  0  0  0  0  0  0  0  0  0  0  0
    4.0416  141.7155   48.9290 H   0  0  0  0  0  0  0  0  0  0  0  0
    3.0251  140.7075   49.9781 H   0  0  0  0  0  0  0  0  0  0  0  0
    2.4858  140.6832   47.8629 C   0  0  0  0  0  0  0  0  0  0  0  0
    2.1954  139.6536   48.0696 H   0  0  0  0  0  0  0  0  0  0  0  0
    3.2659  140.6451   47.0992 H   0  0  0  0  0  0  0  0  0  0  0  0
    1.3054  141.5170   47.3737 C   0  0  0  0  0  0  0  0  0  0  0  0
    1.3343  141.6535   46.2873 H   0  0  0  0  0  0  0  0  0  0  0  0
    0.3611  141.0285   47.6390 H   0  0  0  0  0  0  0  0  0  0  0  0
    1.4449  142.8481   48.0984 C   0  0  0  0  0  0  0  0  0  0  0  0
    0.4655  143.2987   48.2750 H   0  0  0  0  0  0  0  0  0  0  0  0
    2.0429  143.5392   47.4938 H   0  0  0  0  0  0  0  0  0  0  0  0
    3.2523  143.2242   55.8684 C   0  0  0  0  0  0  0  0  0  0  0  0
    3.1394  141.8374   56.1917 C   0  0  0  0  0  0  0  0  0  0  0  0
    3.0707  140.7054   56.4423 N   0  0  0  0  0  0  0  0  0  0  0  0
    3.7353  144.1460   56.7561 C   0  0  0  0  0  0  0  0  0  0  0  0
    4.1232  143.7793   57.9877 N   0  0  0  0  0  0  0  0  0  0  0  0
    4.4673  144.4818   58.6382 H   0  0  0  0  0  0  0  0  0  0  0  0
    4.0610  142.8009   58.2467 H   0  0  0  0  0  0  0  0  0  0  0  0
    3.8817  145.4511   56.4214 C   0  0  0  0  0  0  0  0  0  0  0  0
    4.2666  146.1618   57.1420 H   0  0  0  0  0  0  0  0  0  0  0  0
    1.8817  149.2135   52.6577 C   0  0  0  0  0  0  0  0  0  0  0  0
    2.7510  148.4025   51.9699 O   0  0  0  0  0  0  0  0  0  0  0  0
    2.1424  147.3127   51.2763 C   0  0  0  0  0  0  0  0  0  0  0  0
    1.4604  146.7823   51.9465 H   0  0  0  0  0  0  0  0  0  0  0  0
    2.9083  146.6091   50.9379 H   0  0  0  0  0  0  0  0  0  0  0  0
    1.5858  147.6642   50.4031 H   0  0  0  0  0  0  0  0  0  0  0  0
  1  2  1  0
  2  3  2  0
  3  4  1  0
  3  5  1  0
  5  6  1  0
  6  7  1  0
  7  8  1  0
  7  9  1  0
  7 10  1  0
  5 11  2  0
 11 12  1  0
 11 13  1  0
 13 14  1  0
 14 15  1  0
 14 16  1  0
 14 17  1  0
 17 18  2  0
 17 19  1  0
 19 20  1  0
 19 21  1  0
 21 22  2  0
 22 23  1  0
 23 24  1  0
 24 25  1  0
 25 26  1  0
 25 27  1  0
 25 28  1  0
 28 29  1  0
 28 30  1  0
 28 31  1  0
 31 32  1  0
 31 33  1  0
 31 34  1  0
 34 35  1  0
 35 36  1  0
 35 37  1  0
 35 38  1  0
 38 39  1  0
 38 40  1  0
 38 41  1  0
 41 42  1  0
 41 43  1  0
 41 44  1  0
 44 45  1  0
 44 46  1  0
 23 47  2  0
 47 48  1  0
 48 49  3  0
 47 50  1  0
 50 51  1  0
 51 52  1  0
 51 53  1  0
 50 54  2  0
 54 55  1  0
 13 56  2  0
 56 57  1  0
 57 58  1  0
 58 59  1  0
 58 60  1  0
 58 61  1  0
 56  2  1  0
 54 21  1  0
 44 34  1  0
M  END
>  <score>  (407) 
7.42476

$$$$

     RDKit          3D

 56 58  0  0  0  0  0  0  0  0999 V2000
    3.0956  145.1689   47.8916 H   0  0  0  0  0  0  0  0  0  0  0  0
    2.9900  144.3764   48.6284 C   0  0  0  0  0  0  0  0  0  0  0  0
    1.7635  144.1583   49.2653 C   0  0  0  0  0  0  0  0  0  0  0  0
    0.9073  144.7732   49.0074 H   0  0  0  0  0  0  0  0  0  0  0  0
    1.6519  143.1657   50.2475 C   0  0  0  0  0  0  0  0  0  0  0  0
    0.6995  142.9912   50.7369 H   0  0  0  0  0  0  0  0  0  0  0  0
    2.7678  142.4013   50.6091 C   0  0  0  0  0  0  0  0  0  0  0  0
    2.6681  141.3788   51.7112 C   0  0  0  0  0  0  0  0  0  0  0  0
    1.6419  141.0333   51.8078 H   0  0  0  0  0  0  0  0  0  0  0  0
    3.3031  140.5209   51.4763 H   0  0  0  0  0  0  0  0  0  0  0  0
    3.0792  141.9254   53.0687 C   0  0  0  0  0  0  0  0  0  0  0  0
    4.0351  141.4353   53.6410 O   0  0  0  0  0  0  0  0  0  0  0  0
    2.3251  142.8796   53.6934 N   0  0  0  0  0  0  0  0  0  0  0  0
    1.7703  143.4591   53.0858 H   0  0  0  0  0  0  0  0  0  0  0  0
    2.9449  143.6085   54.6511 C   0  0  0  0  0  0  0  0  0  0  0  0
    3.0601  144.8464   54.2457 N   0  0  0  0  0  0  0  0  0  0  0  0
    3.5453  145.7013   55.1091 C   0  0  0  0  0  0  0  0  0  0  0  0
    3.6259  146.9066   54.5118 N   0  0  0  0  0  0  0  0  0  0  0  0
    3.3858  146.9188   53.5350 H   0  0  0  0  0  0  0  0  0  0  0  0
    3.7066  148.0893   55.1806 C   0  0  0  0  0  0  0  0  0  0  0  0
    3.8061  148.1034   56.3902 O   0  0  0  0  0  0  0  0  0  0  0  0
    3.6868  149.4067   54.4248 C   0  0  0  0  0  0  0  0  0  0  0  0
    4.4198  149.3963   53.6170 H   0  0  0  0  0  0  0  0  0  0  0  0
    3.9582  150.1806   55.1341 H   0  0  0  0  0  0  0  0  0  0  0  0
    2.3345  149.7482   53.8721 C   0  0  0  0  0  0  0  0  0  0  0  0
    1.5597  150.6678   54.5761 C   0  0  0  0  0  0  0  0  0  0  0  0
    1.9331  151.1215   55.4950 H   0  0  0  0  0  0  0  0  0  0  0  0
    0.3069  151.0342   54.0941 C   0  0  0  0  0  0  0  0  0  0  0  0
   -0.3855  151.9752   54.7978 O   0  0  0  0  0  0  0  0  0  0  0  0
   -1.4205  151.4058   55.5999 C   0  0  0  0  0  0  0  0  0  0  0  0
   -1.0055  150.6868   56.3103 H   0  0  0  0  0  0  0  0  0  0  0  0
   -2.1489  150.8885   54.9696 H   0  0  0  0  0  0  0  0  0  0  0  0
   -1.9332  152.1937   56.1617 H   0  0  0  0  0  0  0  0  0  0  0  0
   -0.1891  150.4719   52.9027 C   0  0  0  0  0  0  0  0  0  0  0  0
   -1.9223  150.9726   52.2584 Br  0  0  0  0  0  0  0  0  0  0  0  0
    0.6102  149.5721   52.1789 C   0  0  0  0  0  0  0  0  0  0  0  0
    0.2780  149.1696   51.2298 H   0  0  0  0  0  0  0  0  0  0  0  0
    1.8841  149.2153   52.6548 C   0  0  0  0  0  0  0  0  0  0  0  0
    2.7494  148.4011   51.9672 O   0  0  0  0  0  0  0  0  0  0  0  0
    2.1420  147.3112   51.2737 C   0  0  0  0  0  0  0  0  0  0  0  0
    1.5971  147.6615   50.3929 H   0  0  0  0  0  0  0  0  0  0  0  0
    1.4492  146.7875   51.9379 H   0  0  0  0  0  0  0  0  0  0  0  0
    2.9078  146.6010   50.9483 H   0  0  0  0  0  0  0  0  0  0  0  0
    3.8887  145.3926   56.4020 C   0  0  0  0  0  0  0  0  0  0  0  0
    4.2284  146.1311   57.1107 H   0  0  0  0  0  0  0  0  0  0  0  0
    3.7855  144.0812   56.7591 C   0  0  0  0  0  0  0  0  0  0  0  0
    4.0940  143.7504   58.0227 N   0  0  0  0  0  0  0  0  0  0  0  0
    4.1019  142.7677   58.2755 H   0  0  0  0  0  0  0  0  0  0  0  0
    4.4790  144.4651   58.6335 H   0  0  0  0  0  0  0  0  0  0  0  0
    3.3323  143.1337   55.8774 C   0  0  0  0  0  0  0  0  0  0  0  0
    3.1902  141.7540   56.2039 C   0  0  0  0  0  0  0  0  0  0  0  0
    3.0656  140.6252   56.4662 N   0  0  0  0  0  0  0  0  0  0  0  0
    3.9791  142.5907   49.9366 C   0  0  0  0  0  0  0  0  0  0  0  0
    4.8383  141.9760   50.1884 H   0  0  0  0  0  0  0  0  0  0  0  0
    4.0885  143.5746   48.9500 C   0  0  0  0  0  0  0  0  0  0  0  0
    5.0374  143.7276   48.4539 H   0  0  0  0  0  0  0  0  0  0  0  0
  1  2  1  0
  2  3  2  0
  3  4  1  0
  3  5  1  0
  5  6  1  0
  5  7  2  0
  7  8  1  0
  8  9  1  0
  8 10  1  0
  8 11  1  0
 11 12  2  0
 11 13  1  0
 13 14  1  0
 13 15  1  0
 15 16  2  0
 16 17  1  0
 17 18  1  0
 18 19  1  0
 18 20  1  0
 20 21  2  0
 20 22  1  0
 22 23  1  0
 22 24  1  0
 22 25  1  0
 25 26  2  0
 26 27  1  0
 26 28  1  0
 28 29  1  0
 29 30  1  0
 30 31  1  0
 30 32  1  0
 30 33  1  0
 28 34  2  0
 34 35  1  0
 34 36  1  0
 36 37  1  0
 36 38  2  0
 38 39  1  0
 39 40  1  0
 40 41  1  0
 40 42  1  0
 40 43  1  0
 17 44  2  0
 44 45  1  0
 44 46  1  0
 46 47  1  0
 47 48  1  0
 47 49  1  0
 46 50  2  0
 50 51  1  0
 51 52  3  0
  7 53  1  0
 53 54  1  0
 53 55  2  0
 55 56  1  0
 55  2  1  0
 50 15  1  0
 38 25  1  0
M  END
>  <score>  (408) 
7.42816

$$$$

     RDKit          3D

 63 66  0  0  0  0  0  0  0  0999 V2000
    2.0755  144.6576   46.1203 H   0  0  0  0  0  0  0  0  0  0  0  0
    2.0782  144.1656   47.0875 C   0  0  0  0  0  0  0  0  0  0  0  0
    1.3739  144.7295   48.1545 C   0  0  0  0  0  0  0  0  0  0  0  0
    0.8334  145.6614   48.0176 H   0  0  0  0  0  0  0  0  0  0  0  0
    1.3727  144.0852   49.3977 C   0  0  0  0  0  0  0  0  0  0  0  0
    0.8188  144.5031   50.2300 H   0  0  0  0  0  0  0  0  0  0  0  0
    2.0949  142.8994   49.5843 C   0  0  0  0  0  0  0  0  0  0  0  0
    2.0803  142.2345   50.8148 N   0  0  0  0  0  0  0  0  0  0  0  0
    3.3668  141.9711   51.5132 C   0  0  0  0  0  0  0  0  0  0  0  0
    3.8279  141.0741   51.0907 H   0  0  0  0  0  0  0  0  0  0  0  0
    4.0672  142.7985   51.3540 H   0  0  0  0  0  0  0  0  0  0  0  0
    3.1752  141.7710   53.0462 C   0  0  0  0  0  0  0  0  0  0  0  0
    4.1596  141.7299   53.5247 H   0  0  0  0  0  0  0  0  0  0  0  0
    2.7052  140.7974   53.2014 H   0  0  0  0  0  0  0  0  0  0  0  0
    2.3012  142.8016   53.6748 N   0  0  0  0  0  0  0  0  0  0  0  0
    2.8657  143.6495   54.6209 C   0  0  0  0  0  0  0  0  0  0  0  0
    2.9912  144.9036   54.2388 N   0  0  0  0  0  0  0  0  0  0  0  0
    3.5023  145.7329   55.1013 C   0  0  0  0  0  0  0  0  0  0  0  0
    3.6348  146.9211   54.4899 N   0  0  0  0  0  0  0  0  0  0  0  0
    3.3160  146.9315   53.5378 H   0  0  0  0  0  0  0  0  0  0  0  0
    3.6851  148.0890   55.1716 C   0  0  0  0  0  0  0  0  0  0  0  0
    3.7797  148.0750   56.3889 O   0  0  0  0  0  0  0  0  0  0  0  0
    3.6696  149.4121   54.4416 C   0  0  0  0  0  0  0  0  0  0  0  0
    4.4261  149.4327   53.6487 H   0  0  0  0  0  0  0  0  0  0  0  0
    3.9021  150.1593   55.1917 H   0  0  0  0  0  0  0  0  0  0  0  0
    2.3221  149.7410   53.8733 C   0  0  0  0  0  0  0  0  0  0  0  0
    1.5301  150.6463   54.5714 C   0  0  0  0  0  0  0  0  0  0  0  0
    1.8836  151.0943   55.4924 H   0  0  0  0  0  0  0  0  0  0  0  0
    0.2910  151.0323   54.0765 C   0  0  0  0  0  0  0  0  0  0  0  0
   -0.4035  151.9825   54.7630 O   0  0  0  0  0  0  0  0  0  0  0  0
   -1.4267  151.4033   55.5674 C   0  0  0  0  0  0  0  0  0  0  0  0
   -1.9290  152.1844   56.1431 H   0  0  0  0  0  0  0  0  0  0  0  0
   -1.0018  150.6785   56.2657 H   0  0  0  0  0  0  0  0  0  0  0  0
   -2.1612  150.8944   54.9370 H   0  0  0  0  0  0  0  0  0  0  0  0
   -0.2077  150.4612   52.8964 C   0  0  0  0  0  0  0  0  0  0  0  0
   -1.9409  150.9567   52.2411 Br  0  0  0  0  0  0  0  0  0  0  0  0
    0.5971  149.5596   52.1814 C   0  0  0  0  0  0  0  0  0  0  0  0
    0.2606  149.1490   51.2353 H   0  0  0  0  0  0  0  0  0  0  0  0
    1.8729  149.2084   52.6598 C   0  0  0  0  0  0  0  0  0  0  0  0
    2.7307  148.3893   51.9695 O   0  0  0  0  0  0  0  0  0  0  0  0
    2.1185  147.3107   51.2666 C   0  0  0  0  0  0  0  0  0  0  0  0
    1.5753  147.6785   50.3924 H   0  0  0  0  0  0  0  0  0  0  0  0
    1.4254  146.7840   51.9280 H   0  0  0  0  0  0  0  0  0  0  0  0
    2.8853  146.6047   50.9328 H   0  0  0  0  0  0  0  0  0  0  0  0
    3.8604  145.4121   56.3857 C   0  0  0  0  0  0  0  0  0  0  0  0
    4.2564  146.1427   57.0712 H   0  0  0  0  0  0  0  0  0  0  0  0
    3.7499  144.1092   56.7481 C   0  0  0  0  0  0  0  0  0  0  0  0
    4.1585  143.7663   57.9885 N   0  0  0  0  0  0  0  0  0  0  0  0
    4.4421  144.5113   58.6267 H   0  0  0  0  0  0  0  0  0  0  0  0
    4.0813  142.7974   58.2959 H   0  0  0  0  0  0  0  0  0  0  0  0
    3.2680  143.1911   55.8561 C   0  0  0  0  0  0  0  0  0  0  0  0
    3.1706  141.8147   56.1777 C   0  0  0  0  0  0  0  0  0  0  0  0
    3.1136  140.6763   56.4009 N   0  0  0  0  0  0  0  0  0  0  0  0
    1.1710  143.3143   52.8447 C   0  0  0  0  0  0  0  0  0  0  0  0
    0.2470  143.3901   53.4219 H   0  0  0  0  0  0  0  0  0  0  0  0
    1.3946  144.3160   52.4569 H   0  0  0  0  0  0  0  0  0  0  0  0
    0.8893  142.3667   51.6730 C   0  0  0  0  0  0  0  0  0  0  0  0
    0.6065  141.3803   52.0538 H   0  0  0  0  0  0  0  0  0  0  0  0
    0.0446  142.7503   51.1053 H   0  0  0  0  0  0  0  0  0  0  0  0
    2.8017  142.3507   48.5170 C   0  0  0  0  0  0  0  0  0  0  0  0
    3.3328  141.4206   48.6797 H   0  0  0  0  0  0  0  0  0  0  0  0
    2.7856  142.9722   47.2628 C   0  0  0  0  0  0  0  0  0  0  0  0
    3.3181  142.5249   46.4319 H   0  0  0  0  0  0  0  0  0  0  0  0
  1  2  1  0
  2  3  2  0
  3  4  1  0
  3  5  1  0
  5  6  1  0
  5  7  2  0
  7  8  1  0
  8  9  1  0
  9 10  1  0
  9 11  1  0
  9 12  1  0
 12 13  1  0
 12 14  1  0
 12 15  1  0
 15 16  1  0
 16 17  2  0
 17 18  1  0
 18 19  1  0
 19 20  1  0
 19 21  1  0
 21 22  2  0
 21 23  1  0
 23 24  1  0
 23 25  1  0
 23 26  1  0
 26 27  2  0
 27 28  1  0
 27 29  1  0
 29 30  1  0
 30 31  1  0
 31 32  1  0
 31 33  1  0
 31 34  1  0
 29 35  2  0
 35 36  1  0
 35 37  1  0
 37 38  1  0
 37 39  2  0
 39 40  1  0
 40 41  1  0
 41 42  1  0
 41 43  1  0
 41 44  1  0
 18 45  2  0
 45 46  1  0
 45 47  1  0
 47 48  1  0
 48 49  1  0
 48 50  1  0
 47 51  2  0
 51 52  1  0
 52 53  3  0
 15 54  1  0
 54 55  1  0
 54 56  1  0
 54 57  1  0
 57 58  1  0
 57 59  1  0
  7 60  1  0
 60 61  1  0
 60 62  2  0
 62 63  1  0
 62  2  1  0
 57  8  1  0
 51 16  1  0
 39 26  1  0
M  END
>  <score>  (409) 
7.43434

$$$$

     RDKit          3D

 55 57  0  0  0  0  0  0  0  0999 V2000
    0.2694  149.1582   51.2370 H   0  0  0  0  0  0  0  0  0  0  0  0
    0.6069  149.5660   52.1841 C   0  0  0  0  0  0  0  0  0  0  0  0
   -0.1986  150.4655   52.9016 C   0  0  0  0  0  0  0  0  0  0  0  0
   -1.9304  150.9630   52.2478 Br  0  0  0  0  0  0  0  0  0  0  0  0
    0.2977  151.0335   54.0857 C   0  0  0  0  0  0  0  0  0  0  0  0
   -0.3989  151.9799   54.7772 O   0  0  0  0  0  0  0  0  0  0  0  0
   -1.4254  151.4036   55.5792 C   0  0  0  0  0  0  0  0  0  0  0  0
   -1.0037  150.6821   56.2822 H   0  0  0  0  0  0  0  0  0  0  0  0
   -2.1584  150.8915   54.9500 H   0  0  0  0  0  0  0  0  0  0  0  0
   -1.9302  152.1870   56.1498 H   0  0  0  0  0  0  0  0  0  0  0  0
    1.5401  150.6527   54.5730 C   0  0  0  0  0  0  0  0  0  0  0  0
    1.8995  151.1011   55.4920 H   0  0  0  0  0  0  0  0  0  0  0  0
    2.3310  149.7493   53.8728 C   0  0  0  0  0  0  0  0  0  0  0  0
    3.6761  149.4206   54.4339 C   0  0  0  0  0  0  0  0  0  0  0  0
    3.9151  150.1856   55.1672 H   0  0  0  0  0  0  0  0  0  0  0  0
    4.4245  149.4293   53.6350 H   0  0  0  0  0  0  0  0  0  0  0  0
    3.6992  148.0996   55.1726 C   0  0  0  0  0  0  0  0  0  0  0  0
    3.7865  148.0907   56.3873 O   0  0  0  0  0  0  0  0  0  0  0  0
    3.6701  146.9368   54.4848 N   0  0  0  0  0  0  0  0  0  0  0  0
    3.3612  146.9506   53.5295 H   0  0  0  0  0  0  0  0  0  0  0  0
    3.5440  145.7442   55.0770 C   0  0  0  0  0  0  0  0  0  0  0  0
    3.0722  144.9009   54.2047 N   0  0  0  0  0  0  0  0  0  0  0  0
    2.9299  143.6397   54.5967 C   0  0  0  0  0  0  0  0  0  0  0  0
    2.4363  142.7150   53.7281 O   0  0  0  0  0  0  0  0  0  0  0  0
    2.0829  143.1713   52.4228 C   0  0  0  0  0  0  0  0  0  0  0  0
    1.5180  144.1174   52.4637 H   0  0  0  0  0  0  0  0  0  0  0  0
    3.3478  143.3565   51.5701 C   0  0  0  0  0  0  0  0  0  0  0  0
    3.9400  144.1950   51.9464 H   0  0  0  0  0  0  0  0  0  0  0  0
    3.9584  142.4508   51.6444 H   0  0  0  0  0  0  0  0  0  0  0  0
    2.9905  143.5852   50.1007 C   0  0  0  0  0  0  0  0  0  0  0  0
    3.8988  143.6512   49.4940 H   0  0  0  0  0  0  0  0  0  0  0  0
    2.4392  144.5265   49.9716 H   0  0  0  0  0  0  0  0  0  0  0  0
    2.1592  142.4540   49.6719 N   0  0  0  0  0  0  0  0  0  0  0  0
    2.6650  141.5729   49.7869 H   0  0  0  0  0  0  0  0  0  0  0  0
    0.8937  142.4042   50.3960 C   0  0  0  0  0  0  0  0  0  0  0  0
    0.4049  143.3833   50.3384 H   0  0  0  0  0  0  0  0  0  0  0  0
    0.2327  141.6548   49.9605 H   0  0  0  0  0  0  0  0  0  0  0  0
    1.2020  142.0756   51.8400 C   0  0  0  0  0  0  0  0  0  0  0  0
    1.7288  141.1163   51.8944 H   0  0  0  0  0  0  0  0  0  0  0  0
    0.2759  142.0048   52.4127 H   0  0  0  0  0  0  0  0  0  0  0  0
    3.2613  143.2176   55.8597 C   0  0  0  0  0  0  0  0  0  0  0  0
    3.1481  141.8437   56.2009 C   0  0  0  0  0  0  0  0  0  0  0  0
    3.0782  140.7071   56.4323 N   0  0  0  0  0  0  0  0  0  0  0  0
    3.7273  144.1420   56.7360 C   0  0  0  0  0  0  0  0  0  0  0  0
    4.0944  143.7913   57.9757 N   0  0  0  0  0  0  0  0  0  0  0  0
    4.4515  144.5091   58.6016 H   0  0  0  0  0  0  0  0  0  0  0  0
    4.0655  142.8074   58.2368 H   0  0  0  0  0  0  0  0  0  0  0  0
    3.8652  145.4368   56.3723 C   0  0  0  0  0  0  0  0  0  0  0  0
    4.2409  146.1608   57.0723 H   0  0  0  0  0  0  0  0  0  0  0  0
    1.8823  149.2138   52.6598 C   0  0  0  0  0  0  0  0  0  0  0  0
    2.7387  148.3937   51.9688 O   0  0  0  0  0  0  0  0  0  0  0  0
    2.1275  147.3103   51.2707 C   0  0  0  0  0  0  0  0  0  0  0  0
    2.8966  146.6089   50.9320 H   0  0  0  0  0  0  0  0  0  0  0  0
    1.4422  146.7783   51.9360 H   0  0  0  0  0  0  0  0  0  0  0  0
    1.5752  147.6730   50.3998 H   0  0  0  0  0  0  0  0  0  0  0  0
  1  2  1  0
  2  3  2  0
  3  4  1  0
  3  5  1  0
  5  6  1  0
  6  7  1  0
  7  8  1  0
  7  9  1  0
  7 10  1  0
  5 11  2  0
 11 12  1  0
 11 13  1  0
 13 14  1  0
 14 15  1  0
 14 16  1  0
 14 17  1  0
 17 18  2  0
 17 19  1  0
 19 20  1  0
 19 21  1  0
 21 22  2  0
 22 23  1  0
 23 24  1  0
 24 25  1  0
 25 26  1  0
 25 27  1  0
 27 28  1  0
 27 29  1  0
 27 30  1  0
 30 31  1  0
 30 32  1  0
 30 33  1  0
 33 34  1  0
 33 35  1  0
 35 36  1  0
 35 37  1  0
 35 38  1  0
 38 39  1  0
 38 40  1  0
 23 41  2  0
 41 42  1  0
 42 43  3  0
 41 44  1  0
 44 45  1  0
 45 46  1  0
 45 47  1  0
 44 48  2  0
 48 49  1  0
 13 50  2  0
 50 51  1  0
 51 52  1  0
 52 53  1  0
 52 54  1  0
 52 55  1  0
 50  2  1  0
 48 21  1  0
 38 25  1  0
M  END
>  <score>  (410) 
7.43515

$$$$

     RDKit          3D

 52 54  0  0  0  0  0  0  0  0999 V2000
    4.6554  139.2924   51.6806 H   0  0  0  0  0  0  0  0  0  0  0  0
    4.3953  140.3471   51.6546 C   0  0  0  0  0  0  0  0  0  0  0  0
    3.7006  140.9157   52.7373 C   0  0  0  0  0  0  0  0  0  0  0  0
    3.4313  140.3408   53.6232 H   0  0  0  0  0  0  0  0  0  0  0  0
    3.2964  142.2583   52.6869 C   0  0  0  0  0  0  0  0  0  0  0  0
    2.3779  142.8240   53.7357 C   0  0  0  0  0  0  0  0  0  0  0  0
    1.5810  143.3916   53.2385 H   0  0  0  0  0  0  0  0  0  0  0  0
    1.9286  142.0076   54.3015 H   0  0  0  0  0  0  0  0  0  0  0  0
    3.0466  143.7399   54.7115 C   0  0  0  0  0  0  0  0  0  0  0  0
    3.1632  145.0141   54.3507 N   0  0  0  0  0  0  0  0  0  0  0  0
    3.6280  145.8814   55.2233 C   0  0  0  0  0  0  0  0  0  0  0  0
    3.6960  147.0959   54.6487 N   0  0  0  0  0  0  0  0  0  0  0  0
    3.4856  147.1017   53.6613 H   0  0  0  0  0  0  0  0  0  0  0  0
    3.6929  148.2808   55.3136 C   0  0  0  0  0  0  0  0  0  0  0  0
    3.7817  148.3015   56.5297 O   0  0  0  0  0  0  0  0  0  0  0  0
    3.6470  149.5727   54.5175 C   0  0  0  0  0  0  0  0  0  0  0  0
    3.8453  150.3994   55.1942 H   0  0  0  0  0  0  0  0  0  0  0  0
    4.4238  149.5525   53.7512 H   0  0  0  0  0  0  0  0  0  0  0  0
    2.3076  149.8248   53.8880 C   0  0  0  0  0  0  0  0  0  0  0  0
    1.4754  150.7410   54.5377 C   0  0  0  0  0  0  0  0  0  0  0  0
    1.8095  151.2235   55.4503 H   0  0  0  0  0  0  0  0  0  0  0  0
    0.2200  151.0648   54.0326 C   0  0  0  0  0  0  0  0  0  0  0  0
   -0.5429  151.9842   54.7030 O   0  0  0  0  0  0  0  0  0  0  0  0
   -1.5314  151.3882   55.5481 C   0  0  0  0  0  0  0  0  0  0  0  0
   -1.0742  150.6507   56.2128 H   0  0  0  0  0  0  0  0  0  0  0  0
   -2.0080  152.1600   56.1619 H   0  0  0  0  0  0  0  0  0  0  0  0
   -2.3020  150.8921   54.9502 H   0  0  0  0  0  0  0  0  0  0  0  0
   -0.2142  150.4550   52.8452 C   0  0  0  0  0  0  0  0  0  0  0  0
   -1.9355  150.8683   52.1154 Br  0  0  0  0  0  0  0  0  0  0  0  0
    0.6203  149.5364   52.1874 C   0  0  0  0  0  0  0  0  0  0  0  0
    0.2923  149.0757   51.2629 H   0  0  0  0  0  0  0  0  0  0  0  0
    1.8858  149.2001   52.6971 C   0  0  0  0  0  0  0  0  0  0  0  0
    2.7156  148.2981   52.0650 O   0  0  0  0  0  0  0  0  0  0  0  0
    2.0713  147.3039   51.2524 C   0  0  0  0  0  0  0  0  0  0  0  0
    2.8180  146.6093   50.8540 H   0  0  0  0  0  0  0  0  0  0  0  0
    1.3515  146.7308   51.8471 H   0  0  0  0  0  0  0  0  0  0  0  0
    1.5455  147.7652   50.4106 H   0  0  0  0  0  0  0  0  0  0  0  0
    3.9634  145.5647   56.5137 C   0  0  0  0  0  0  0  0  0  0  0  0
    4.3294  146.2987   57.2167 H   0  0  0  0  0  0  0  0  0  0  0  0
    3.8046  144.2642   56.8852 C   0  0  0  0  0  0  0  0  0  0  0  0
    4.0842  143.9620   58.1706 N   0  0  0  0  0  0  0  0  0  0  0  0
    4.5548  144.6832   58.7165 H   0  0  0  0  0  0  0  0  0  0  0  0
    4.2234  142.9832   58.4090 H   0  0  0  0  0  0  0  0  0  0  0  0
    3.3768  143.3130   55.9883 C   0  0  0  0  0  0  0  0  0  0  0  0
    3.2473  141.9387   56.3520 C   0  0  0  0  0  0  0  0  0  0  0  0
    3.1269  140.8050   56.5713 N   0  0  0  0  0  0  0  0  0  0  0  0
    3.6285  143.0403   51.5689 C   0  0  0  0  0  0  0  0  0  0  0  0
    3.2909  144.0800   51.5282 H   0  0  0  0  0  0  0  0  0  0  0  0
    4.3614  142.4776   50.5089 C   0  0  0  0  0  0  0  0  0  0  0  0
    4.5958  143.0666   49.6247 H   0  0  0  0  0  0  0  0  0  0  0  0
    4.7398  141.1267   50.5375 C   0  0  0  0  0  0  0  0  0  0  0  0
    5.5802  140.4135   49.1726 Cl  0  0  0  0  0  0  0  0  0  0  0  0
  1  2  1  0
  2  3  2  0
  3  4  1  0
  3  5  1  0
  5  6  1  0
  6  7  1  0
  6  8  1  0
  6  9  1  0
  9 10  2  0
 10 11  1  0
 11 12  1  0
 12 13  1  0
 12 14  1  0
 14 15  2  0
 14 16  1  0
 16 17  1  0
 16 18  1  0
 16 19  1  0
 19 20  2  0
 20 21  1  0
 20 22  1  0
 22 23  1  0
 23 24  1  0
 24 25  1  0
 24 26  1  0
 24 27  1  0
 22 28  2  0
 28 29  1  0
 28 30  1  0
 30 31  1  0
 30 32  2  0
 32 33  1  0
 33 34  1  0
 34 35  1  0
 34 36  1  0
 34 37  1  0
 11 38  2  0
 38 39  1  0
 38 40  1  0
 40 41  1  0
 41 42  1  0
 41 43  1  0
 40 44  2  0
 44 45  1  0
 45 46  3  0
  5 47  2  0
 47 48  1  0
 47 49  1  0
 49 50  1  0
 49 51  2  0
 51 52  1  0
 51  2  1  0
 44  9  1  0
 32 19  1  0
M  END
>  <score>  (411) 
7.44152

$$$$

     RDKit          3D

 58 61  0  0  0  0  0  0  0  0999 V2000
    4.6989  140.4216   48.8702 H   0  0  0  0  0  0  0  0  0  0  0  0
    3.8783  140.7696   49.4922 C   0  0  0  0  0  0  0  0  0  0  0  0
    2.6259  140.9898   48.9092 C   0  0  0  0  0  0  0  0  0  0  0  0
    2.4585  140.7975   47.8550 H   0  0  0  0  0  0  0  0  0  0  0  0
    1.5715  141.4510   49.6927 C   0  0  0  0  0  0  0  0  0  0  0  0
    0.5957  141.6283   49.2550 H   0  0  0  0  0  0  0  0  0  0  0  0
    1.7633  141.6710   51.0578 C   0  0  0  0  0  0  0  0  0  0  0  0
    3.0042  141.4489   51.6676 C   0  0  0  0  0  0  0  0  0  0  0  0
    4.0691  140.9964   50.8657 C   0  0  0  0  0  0  0  0  0  0  0  0
    5.0494  140.8184   51.2951 H   0  0  0  0  0  0  0  0  0  0  0  0
    3.1299  141.6725   53.1708 C   0  0  0  0  0  0  0  0  0  0  0  0
    2.8520  140.7505   53.6946 H   0  0  0  0  0  0  0  0  0  0  0  0
    4.1729  141.8776   53.4072 H   0  0  0  0  0  0  0  0  0  0  0  0
    2.2845  142.7900   53.6667 N   0  0  0  0  0  0  0  0  0  0  0  0
    2.8307  143.6515   54.6142 C   0  0  0  0  0  0  0  0  0  0  0  0
    2.9588  144.9176   54.2537 N   0  0  0  0  0  0  0  0  0  0  0  0
    3.4908  145.7368   55.1194 C   0  0  0  0  0  0  0  0  0  0  0  0
    3.6534  146.9228   54.5205 N   0  0  0  0  0  0  0  0  0  0  0  0
    3.3700  146.9278   53.5504 H   0  0  0  0  0  0  0  0  0  0  0  0
    3.7176  148.1040   55.1833 C   0  0  0  0  0  0  0  0  0  0  0  0
    3.7956  148.1217   56.3939 O   0  0  0  0  0  0  0  0  0  0  0  0
    3.6820  149.4137   54.4238 C   0  0  0  0  0  0  0  0  0  0  0  0
    3.9475  150.1880   55.1344 H   0  0  0  0  0  0  0  0  0  0  0  0
    4.4203  149.4107   53.6221 H   0  0  0  0  0  0  0  0  0  0  0  0
    2.3297  149.7500   53.8758 C   0  0  0  0  0  0  0  0  0  0  0  0
    1.5532  150.6685   54.5784 C   0  0  0  0  0  0  0  0  0  0  0  0
    1.9262  151.1231   55.4973 H   0  0  0  0  0  0  0  0  0  0  0  0
    0.3031  151.0324   54.0920 C   0  0  0  0  0  0  0  0  0  0  0  0
   -0.3886  151.9757   54.7918 O   0  0  0  0  0  0  0  0  0  0  0  0
   -1.4203  151.4060   55.5940 C   0  0  0  0  0  0  0  0  0  0  0  0
   -2.1482  150.8896   54.9643 H   0  0  0  0  0  0  0  0  0  0  0  0
   -1.0053  150.6851   56.3013 H   0  0  0  0  0  0  0  0  0  0  0  0
   -1.9333  152.1912   56.1577 H   0  0  0  0  0  0  0  0  0  0  0  0
   -0.1927  150.4698   52.9003 C   0  0  0  0  0  0  0  0  0  0  0  0
   -1.9283  150.9722   52.2570 Br  0  0  0  0  0  0  0  0  0  0  0  0
    0.6070  149.5682   52.1792 C   0  0  0  0  0  0  0  0  0  0  0  0
    0.2777  149.1653   51.2292 H   0  0  0  0  0  0  0  0  0  0  0  0
    1.8793  149.2134   52.6601 C   0  0  0  0  0  0  0  0  0  0  0  0
    2.7472  148.4039   51.9706 O   0  0  0  0  0  0  0  0  0  0  0  0
    2.1396  147.3158   51.2769 C   0  0  0  0  0  0  0  0  0  0  0  0
    1.4450  146.7933   51.9396 H   0  0  0  0  0  0  0  0  0  0  0  0
    1.5958  147.6665   50.3962 H   0  0  0  0  0  0  0  0  0  0  0  0
    2.9025  146.6033   50.9513 H   0  0  0  0  0  0  0  0  0  0  0  0
    3.8586  145.4052   56.3936 C   0  0  0  0  0  0  0  0  0  0  0  0
    4.2604  146.1135   57.1003 H   0  0  0  0  0  0  0  0  0  0  0  0
    3.7341  144.0976   56.7335 C   0  0  0  0  0  0  0  0  0  0  0  0
    4.1508  143.7466   57.9648 N   0  0  0  0  0  0  0  0  0  0  0  0
    4.0652  142.7813   58.2637 H   0  0  0  0  0  0  0  0  0  0  0  0
    4.4511  144.4720   58.6121 H   0  0  0  0  0  0  0  0  0  0  0  0
    3.2365  143.1817   55.8445 C   0  0  0  0  0  0  0  0  0  0  0  0
    3.1396  141.7954   56.1501 C   0  0  0  0  0  0  0  0  0  0  0  0
    3.0841  140.6617   56.4063 N   0  0  0  0  0  0  0  0  0  0  0  0
    1.1581  143.2644   52.8318 C   0  0  0  0  0  0  0  0  0  0  0  0
    0.3471  143.6442   53.4524 H   0  0  0  0  0  0  0  0  0  0  0  0
    1.4822  144.1067   52.2148 H   0  0  0  0  0  0  0  0  0  0  0  0
    0.6409  142.1434   51.9195 C   0  0  0  0  0  0  0  0  0  0  0  0
   -0.1904  142.4976   51.3052 H   0  0  0  0  0  0  0  0  0  0  0  0
    0.2960  141.2931   52.5077 H   0  0  0  0  0  0  0  0  0  0  0  0
  1  2  1  0
  2  3  2  0
  3  4  1  0
  3  5  1  0
  5  6  1  0
  5  7  2  0
  7  8  1  0
  8  9  2  0
  9 10  1  0
  8 11  1  0
 11 12  1  0
 11 13  1  0
 11 14  1  0
 14 15  1  0
 15 16  2  0
 16 17  1  0
 17 18  1  0
 18 19  1  0
 18 20  1  0
 20 21  2  0
 20 22  1  0
 22 23  1  0
 22 24  1  0
 22 25  1  0
 25 26  2  0
 26 27  1  0
 26 28  1  0
 28 29  1  0
 29 30  1  0
 30 31  1  0
 30 32  1  0
 30 33  1  0
 28 34  2  0
 34 35  1  0
 34 36  1  0
 36 37  1  0
 36 38  2  0
 38 39  1  0
 39 40  1  0
 40 41  1  0
 40 42  1  0
 40 43  1  0
 17 44  2  0
 44 45  1  0
 44 46  1  0
 46 47  1  0
 47 48  1  0
 47 49  1  0
 46 50  2  0
 50 51  1  0
 51 52  3  0
 14 53  1  0
 53 54  1  0
 53 55  1  0
 53 56  1  0
 56 57  1  0
 56 58  1  0
  9  2  1  0
 50 15  1  0
 56  7  1  0
 38 25  1  0
M  END
>  <score>  (412) 
7.44294

$$$$

     RDKit          3D

 48 50  0  0  0  0  0  0  0  0999 V2000
    1.6370  142.0907   54.1047 H   0  0  0  0  0  0  0  0  0  0  0  0
    2.3400  142.7890   53.6764 C   0  0  0  0  0  0  0  0  0  0  0  0
    2.5885  142.7876   52.3064 C   0  0  0  0  0  0  0  0  0  0  0  0
    3.7266  143.8943   51.5334 S   0  0  0  0  0  0  0  0  0  0  0  0
    3.2636  143.2586   49.9508 C   0  0  0  0  0  0  0  0  0  0  0  0
    3.6479  143.9657   48.4906 S   0  0  0  0  0  0  0  0  0  0  0  0
    2.4442  142.1472   50.0296 N   0  0  0  0  0  0  0  0  0  0  0  0
    1.9727  141.7531   49.2254 H   0  0  0  0  0  0  0  0  0  0  0  0
    1.9851  141.8970   51.2908 C   0  0  0  0  0  0  0  0  0  0  0  0
    1.0889  141.0768   51.4261 O   0  0  0  0  0  0  0  0  0  0  0  0
    2.9367  143.6886   54.6678 C   0  0  0  0  0  0  0  0  0  0  0  0
    3.0966  144.9660   54.3302 N   0  0  0  0  0  0  0  0  0  0  0  0
    3.5655  145.7996   55.2342 C   0  0  0  0  0  0  0  0  0  0  0  0
    3.7185  147.0022   54.6494 N   0  0  0  0  0  0  0  0  0  0  0  0
    3.5333  146.9686   53.6596 H   0  0  0  0  0  0  0  0  0  0  0  0
    3.7519  148.2166   55.2708 C   0  0  0  0  0  0  0  0  0  0  0  0
    3.8553  148.2718   56.4852 O   0  0  0  0  0  0  0  0  0  0  0  0
    3.7277  149.4767   54.3969 C   0  0  0  0  0  0  0  0  0  0  0  0
    4.4180  149.3559   53.5585 H   0  0  0  0  0  0  0  0  0  0  0  0
    3.9961  150.3564   54.9701 H   0  0  0  0  0  0  0  0  0  0  0  0
    2.3821  149.7867   53.8544 C   0  0  0  0  0  0  0  0  0  0  0  0
    1.5987  150.6913   54.5722 C   0  0  0  0  0  0  0  0  0  0  0  0
    1.9922  151.1449   55.4733 H   0  0  0  0  0  0  0  0  0  0  0  0
    0.3343  151.0600   54.1327 C   0  0  0  0  0  0  0  0  0  0  0  0
   -0.3790  151.9762   54.8620 O   0  0  0  0  0  0  0  0  0  0  0  0
   -1.4273  151.4046   55.6500 C   0  0  0  0  0  0  0  0  0  0  0  0
   -2.1538  150.8749   55.0253 H   0  0  0  0  0  0  0  0  0  0  0  0
   -1.0150  150.7040   56.3774 H   0  0  0  0  0  0  0  0  0  0  0  0
   -1.9445  152.2009   56.1947 H   0  0  0  0  0  0  0  0  0  0  0  0
   -0.1434  150.5020   52.9360 C   0  0  0  0  0  0  0  0  0  0  0  0
   -1.8680  150.9845   52.2763 Br  0  0  0  0  0  0  0  0  0  0  0  0
    0.6597  149.6088   52.1957 C   0  0  0  0  0  0  0  0  0  0  0  0
    0.3057  149.2039   51.2532 H   0  0  0  0  0  0  0  0  0  0  0  0
    1.9360  149.2412   52.6465 C   0  0  0  0  0  0  0  0  0  0  0  0
    2.7767  148.4031   51.9485 O   0  0  0  0  0  0  0  0  0  0  0  0
    2.1687  147.2956   51.2790 C   0  0  0  0  0  0  0  0  0  0  0  0
    2.9569  146.6243   50.9207 H   0  0  0  0  0  0  0  0  0  0  0  0
    1.5792  147.6395   50.4244 H   0  0  0  0  0  0  0  0  0  0  0  0
    1.5226  146.7343   51.9623 H   0  0  0  0  0  0  0  0  0  0  0  0
    3.9001  145.4370   56.5135 C   0  0  0  0  0  0  0  0  0  0  0  0
    4.3176  146.1337   57.2265 H   0  0  0  0  0  0  0  0  0  0  0  0
    3.7473  144.1183   56.8284 C   0  0  0  0  0  0  0  0  0  0  0  0
    4.1553  143.7239   58.0450 N   0  0  0  0  0  0  0  0  0  0  0  0
    4.5085  144.4274   58.6881 H   0  0  0  0  0  0  0  0  0  0  0  0
    4.0654  142.7452   58.3103 H   0  0  0  0  0  0  0  0  0  0  0  0
    3.2544  143.2115   55.9302 C   0  0  0  0  0  0  0  0  0  0  0  0
    3.1287  141.8294   56.2580 C   0  0  0  0  0  0  0  0  0  0  0  0
    3.0356  140.6868   56.4604 N   0  0  0  0  0  0  0  0  0  0  0  0
  1  2  1  0
  2  3  2  3
  3  4  1  0
  4  5  1  0
  5  6  2  0
  5  7  1  0
  7  8  1  0
  7  9  1  0
  9 10  2  0
  2 11  1  0
 11 12  2  0
 12 13  1  0
 13 14  1  0
 14 15  1  0
 14 16  1  0
 16 17  2  0
 16 18  1  0
 18 19  1  0
 18 20  1  0
 18 21  1  0
 21 22  2  0
 22 23  1  0
 22 24  1  0
 24 25  1  0
 25 26  1  0
 26 27  1  0
 26 28  1  0
 26 29  1  0
 24 30  2  0
 30 31  1  0
 30 32  1  0
 32 33  1  0
 32 34  2  0
 34 35  1  0
 35 36  1  0
 36 37  1  0
 36 38  1  0
 36 39  1  0
 13 40  2  0
 40 41  1  0
 40 42  1  0
 42 43  1  0
 43 44  1  0
 43 45  1  0
 42 46  2  0
 46 47  1  0
 47 48  3  0
  9  3  1  0
 46 11  1  0
 34 21  1  0
M  END
>  <score>  (413) 
7.44463

$$$$

     RDKit          3D

 52 55  0  0  0  0  0  0  0  0999 V2000
    0.2442  149.0557   51.2673 H   0  0  0  0  0  0  0  0  0  0  0  0
    0.5984  149.5288   52.1762 C   0  0  0  0  0  0  0  0  0  0  0  0
   -0.2245  150.4589   52.8288 C   0  0  0  0  0  0  0  0  0  0  0  0
   -1.9601  150.8445   52.1144 Br  0  0  0  0  0  0  0  0  0  0  0  0
    0.2182  151.0726   54.0116 C   0  0  0  0  0  0  0  0  0  0  0  0
   -0.5415  151.9981   54.6751 O   0  0  0  0  0  0  0  0  0  0  0  0
   -1.5268  151.3927   55.5147 C   0  0  0  0  0  0  0  0  0  0  0  0
   -1.0654  150.6466   56.1681 H   0  0  0  0  0  0  0  0  0  0  0  0
   -2.0017  152.1541   56.1409 H   0  0  0  0  0  0  0  0  0  0  0  0
   -2.2974  150.9060   54.9085 H   0  0  0  0  0  0  0  0  0  0  0  0
    1.4575  150.7139   54.5400 C   0  0  0  0  0  0  0  0  0  0  0  0
    1.7756  151.1613   55.4781 H   0  0  0  0  0  0  0  0  0  0  0  0
    2.2879  149.7917   53.8877 C   0  0  0  0  0  0  0  0  0  0  0  0
    3.6164  149.4988   54.5434 C   0  0  0  0  0  0  0  0  0  0  0  0
    3.8121  150.3051   55.2490 H   0  0  0  0  0  0  0  0  0  0  0  0
    4.4185  149.4880   53.8008 H   0  0  0  0  0  0  0  0  0  0  0  0
    3.6497  148.2012   55.3408 C   0  0  0  0  0  0  0  0  0  0  0  0
    3.8108  148.2477   56.5502 O   0  0  0  0  0  0  0  0  0  0  0  0
    3.6331  146.9894   54.7242 N   0  0  0  0  0  0  0  0  0  0  0  0
    3.3702  146.9220   53.7511 H   0  0  0  0  0  0  0  0  0  0  0  0
    3.6661  145.8053   55.3700 C   0  0  0  0  0  0  0  0  0  0  0  0
    3.2527  144.8732   54.5640 N   0  0  0  0  0  0  0  0  0  0  0  0
    3.2041  143.6136   54.9918 C   0  0  0  0  0  0  0  0  0  0  0  0
    2.7733  142.6841   53.9601 C   0  0  0  0  0  0  0  0  0  0  0  0
    3.5192  141.5330   53.6251 C   0  0  0  0  0  0  0  0  0  0  0  0
    4.3451  141.2113   54.2578 H   0  0  0  0  0  0  0  0  0  0  0  0
    3.2906  140.8882   52.3935 C   0  0  0  0  0  0  0  0  0  0  0  0
    3.9208  140.0557   52.0917 H   0  0  0  0  0  0  0  0  0  0  0  0
    2.2785  141.3750   51.5553 C   0  0  0  0  0  0  0  0  0  0  0  0
    1.5209  142.4470   51.9485 C   0  0  0  0  0  0  0  0  0  0  0  0
    0.6206  142.7550   50.8898 C   0  0  0  0  0  0  0  0  0  0  0  0
   -0.1104  143.5520   50.9662 H   0  0  0  0  0  0  0  0  0  0  0  0
    0.7824  141.9204   49.8890 N   0  0  0  0  0  0  0  0  0  0  0  0
    1.7878  141.0858   50.2921 N   0  0  0  0  0  0  0  0  0  0  0  0
    2.0727  140.2639   49.7624 H   0  0  0  0  0  0  0  0  0  0  0  0
    1.7206  143.1093   53.1375 C   0  0  0  0  0  0  0  0  0  0  0  0
    1.1384  144.0083   53.3468 H   0  0  0  0  0  0  0  0  0  0  0  0
    3.5575  143.2646   56.2815 C   0  0  0  0  0  0  0  0  0  0  0  0
    3.4754  141.9047   56.6953 C   0  0  0  0  0  0  0  0  0  0  0  0
    3.3625  140.7697   56.9213 N   0  0  0  0  0  0  0  0  0  0  0  0
    3.9612  144.2833   57.1157 C   0  0  0  0  0  0  0  0  0  0  0  0
    4.3045  144.0524   58.4039 N   0  0  0  0  0  0  0  0  0  0  0  0
    4.3273  143.1016   58.7618 H   0  0  0  0  0  0  0  0  0  0  0  0
    4.5639  144.8326   59.0053 H   0  0  0  0  0  0  0  0  0  0  0  0
    4.0413  145.5737   56.6664 C   0  0  0  0  0  0  0  0  0  0  0  0
    4.3842  146.3668   57.3100 H   0  0  0  0  0  0  0  0  0  0  0  0
    1.8677  149.1902   52.6806 C   0  0  0  0  0  0  0  0  0  0  0  0
    2.6946  148.2925   52.0387 O   0  0  0  0  0  0  0  0  0  0  0  0
    2.0437  147.2991   51.2307 C   0  0  0  0  0  0  0  0  0  0  0  0
    1.5155  147.7536   50.3855 H   0  0  0  0  0  0  0  0  0  0  0  0
    1.3267  146.7330   51.8349 H   0  0  0  0  0  0  0  0  0  0  0  0
    2.7871  146.6003   50.8347 H   0  0  0  0  0  0  0  0  0  0  0  0
  1  2  1  0
  2  3  2  0
  3  4  1  0
  3  5  1  0
  5  6  1  0
  6  7  1  0
  7  8  1  0
  7  9  1  0
  7 10  1  0
  5 11  2  0
 11 12  1  0
 11 13  1  0
 13 14  1  0
 14 15  1  0
 14 16  1  0
 14 17  1  0
 17 18  2  0
 17 19  1  0
 19 20  1  0
 19 21  1  0
 21 22  2  0
 22 23  1  0
 23 24  1  0
 24 25  2  0
 25 26  1  0
 25 27  1  0
 27 28  1  0
 27 29  2  0
 29 30  1  0
 30 31  1  0
 31 32  1  0
 31 33  2  0
 33 34  1  0
 34 35  1  0
 30 36  2  0
 36 37  1  0
 23 38  2  0
 38 39  1  0
 39 40  3  0
 38 41  1  0
 41 42  1  0
 42 43  1  0
 42 44  1  0
 41 45  2  0
 45 46  1  0
 13 47  2  0
 47 48  1  0
 48 49  1  0
 49 50  1  0
 49 51  1  0
 49 52  1  0
 47  2  1  0
 45 21  1  0
 36 24  1  0
 34 29  1  0
M  END
>  <score>  (414) 
7.45057

$$$$

     RDKit          3D

 52 54  0  0  0  0  0  0  0  0999 V2000
    1.3798  141.0358   47.6739 H   0  0  0  0  0  0  0  0  0  0  0  0
    1.4918  141.4935   48.6506 C   0  0  0  0  0  0  0  0  0  0  0  0
    0.6994  142.5276   48.9767 N   0  0  0  0  0  0  0  0  0  0  0  0
    0.8955  143.1036   50.1824 C   0  0  0  0  0  0  0  0  0  0  0  0
    0.3093  143.9870   50.4303 H   0  0  0  0  0  0  0  0  0  0  0  0
    1.8191  142.6220   51.1413 C   0  0  0  0  0  0  0  0  0  0  0  0
    1.9407  143.2205   52.4095 N   0  0  0  0  0  0  0  0  0  0  0  0
    1.4961  144.1251   52.5571 H   0  0  0  0  0  0  0  0  0  0  0  0
    2.6152  142.7117   53.5178 C   0  0  0  0  0  0  0  0  0  0  0  0
    2.9247  141.5175   53.5492 O   0  0  0  0  0  0  0  0  0  0  0  0
    3.0057  143.6469   54.6427 C   0  0  0  0  0  0  0  0  0  0  0  0
    3.1146  144.9560   54.3412 N   0  0  0  0  0  0  0  0  0  0  0  0
    3.5611  145.8177   55.2226 C   0  0  0  0  0  0  0  0  0  0  0  0
    3.6864  147.0047   54.6075 N   0  0  0  0  0  0  0  0  0  0  0  0
    3.4277  146.9993   53.6326 H   0  0  0  0  0  0  0  0  0  0  0  0
    3.7234  148.1932   55.2651 C   0  0  0  0  0  0  0  0  0  0  0  0
    3.8106  148.2222   56.4794 O   0  0  0  0  0  0  0  0  0  0  0  0
    3.6856  149.4754   54.4542 C   0  0  0  0  0  0  0  0  0  0  0  0
    3.9120  150.2779   55.1426 H   0  0  0  0  0  0  0  0  0  0  0  0
    4.4413  149.4529   53.6631 H   0  0  0  0  0  0  0  0  0  0  0  0
    2.3346  149.7757   53.8683 C   0  0  0  0  0  0  0  0  0  0  0  0
    1.5229  150.6727   54.5651 C   0  0  0  0  0  0  0  0  0  0  0  0
    1.8717  151.1147   55.4919 H   0  0  0  0  0  0  0  0  0  0  0  0
    0.2759  151.0500   54.0780 C   0  0  0  0  0  0  0  0  0  0  0  0
   -0.4331  151.9930   54.7691 O   0  0  0  0  0  0  0  0  0  0  0  0
   -1.4467  151.4038   55.5758 C   0  0  0  0  0  0  0  0  0  0  0  0
   -2.1831  150.8931   54.9484 H   0  0  0  0  0  0  0  0  0  0  0  0
   -1.9469  152.1837   56.1541 H   0  0  0  0  0  0  0  0  0  0  0  0
   -1.0066  150.6816   56.2671 H   0  0  0  0  0  0  0  0  0  0  0  0
   -0.2028  150.4725   52.8896 C   0  0  0  0  0  0  0  0  0  0  0  0
   -1.9398  150.9416   52.2220 Br  0  0  0  0  0  0  0  0  0  0  0  0
    0.6058  149.5617   52.1842 C   0  0  0  0  0  0  0  0  0  0  0  0
    0.2496  149.1451   51.2461 H   0  0  0  0  0  0  0  0  0  0  0  0
    1.8872  149.2167   52.6583 C   0  0  0  0  0  0  0  0  0  0  0  0
    2.7351  148.3799   51.9738 O   0  0  0  0  0  0  0  0  0  0  0  0
    2.1123  147.3100   51.2618 C   0  0  0  0  0  0  0  0  0  0  0  0
    2.8839  146.6051   50.9347 H   0  0  0  0  0  0  0  0  0  0  0  0
    1.5837  147.6907   50.3823 H   0  0  0  0  0  0  0  0  0  0  0  0
    1.4068  146.7815   51.9134 H   0  0  0  0  0  0  0  0  0  0  0  0
    3.9032  145.4811   56.5036 C   0  0  0  0  0  0  0  0  0  0  0  0
    4.3114  146.2006   57.1968 H   0  0  0  0  0  0  0  0  0  0  0  0
    3.7577  144.1680   56.8600 C   0  0  0  0  0  0  0  0  0  0  0  0
    4.1255  143.8048   58.1178 N   0  0  0  0  0  0  0  0  0  0  0  0
    4.5009  144.5062   58.7523 H   0  0  0  0  0  0  0  0  0  0  0  0
    4.1297  142.8223   58.3855 H   0  0  0  0  0  0  0  0  0  0  0  0
    3.3097  143.2248   55.9470 C   0  0  0  0  0  0  0  0  0  0  0  0
    3.2043  141.8521   56.3159 C   0  0  0  0  0  0  0  0  0  0  0  0
    3.1215  140.7129   56.5467 N   0  0  0  0  0  0  0  0  0  0  0  0
    2.6466  141.5498   50.7843 C   0  0  0  0  0  0  0  0  0  0  0  0
    3.4168  141.1644   51.4588 H   0  0  0  0  0  0  0  0  0  0  0  0
    2.4844  141.0066   49.5086 C   0  0  0  0  0  0  0  0  0  0  0  0
    3.1339  140.2090   49.1689 H   0  0  0  0  0  0  0  0  0  0  0  0
  1  2  1  0
  2  3  2  0
  3  4  1  0
  4  5  1  0
  4  6  2  0
  6  7  1  0
  7  8  1  0
  7  9  1  0
  9 10  2  0
  9 11  1  0
 11 12  2  0
 12 13  1  0
 13 14  1  0
 14 15  1  0
 14 16  1  0
 16 17  2  0
 16 18  1  0
 18 19  1  0
 18 20  1  0
 18 21  1  0
 21 22  2  0
 22 23  1  0
 22 24  1  0
 24 25  1  0
 25 26  1  0
 26 27  1  0
 26 28  1  0
 26 29  1  0
 24 30  2  0
 30 31  1  0
 30 32  1  0
 32 33  1  0
 32 34  2  0
 34 35  1  0
 35 36  1  0
 36 37  1  0
 36 38  1  0
 36 39  1  0
 13 40  2  0
 40 41  1  0
 40 42  1  0
 42 43  1  0
 43 44  1  0
 43 45  1  0
 42 46  2  0
 46 47  1  0
 47 48  3  0
  6 49  1  0
 49 50  1  0
 49 51  2  0
 51 52  1  0
 51  2  1  0
 46 11  1  0
 34 21  1  0
M  END
>  <score>  (415) 
7.45548

$$$$

     RDKit          3D

 57 59  0  0  0  0  0  0  0  0999 V2000
    0.2598  149.0680   51.2602 H   0  0  0  0  0  0  0  0  0  0  0  0
    0.6132  149.5370   52.1735 C   0  0  0  0  0  0  0  0  0  0  0  0
   -0.2011  150.4684   52.8376 C   0  0  0  0  0  0  0  0  0  0  0  0
   -1.9355  150.8670   52.1344 Br  0  0  0  0  0  0  0  0  0  0  0  0
    0.2393  151.0697   54.0303 C   0  0  0  0  0  0  0  0  0  0  0  0
   -0.5160  151.9933   54.7033 O   0  0  0  0  0  0  0  0  0  0  0  0
   -1.5157  151.3915   55.5305 C   0  0  0  0  0  0  0  0  0  0  0  0
   -1.9934  152.1593   56.1446 H   0  0  0  0  0  0  0  0  0  0  0  0
   -1.0720  150.6465   56.1968 H   0  0  0  0  0  0  0  0  0  0  0  0
   -2.2838  150.9058   54.9208 H   0  0  0  0  0  0  0  0  0  0  0  0
    1.4816  150.7116   54.5478 C   0  0  0  0  0  0  0  0  0  0  0  0
    1.8126  151.1524   55.4857 H   0  0  0  0  0  0  0  0  0  0  0  0
    2.3051  149.7996   53.8778 C   0  0  0  0  0  0  0  0  0  0  0  0
    3.6252  149.4934   54.5216 C   0  0  0  0  0  0  0  0  0  0  0  0
    3.8178  150.2834   55.2476 H   0  0  0  0  0  0  0  0  0  0  0  0
    4.4242  149.4930   53.7774 H   0  0  0  0  0  0  0  0  0  0  0  0
    3.6248  148.1657   55.2591 C   0  0  0  0  0  0  0  0  0  0  0  0
    3.7617  148.1455   56.4675 O   0  0  0  0  0  0  0  0  0  0  0  0
    3.5983  147.0016   54.5530 N   0  0  0  0  0  0  0  0  0  0  0  0
    3.2826  147.0041   53.5970 H   0  0  0  0  0  0  0  0  0  0  0  0
    3.5318  145.8050   55.1368 C   0  0  0  0  0  0  0  0  0  0  0  0
    2.9865  144.9819   54.3001 N   0  0  0  0  0  0  0  0  0  0  0  0
    2.8479  143.7311   54.6911 C   0  0  0  0  0  0  0  0  0  0  0  0
    2.2166  142.9164   53.7773 N   0  0  0  0  0  0  0  0  0  0  0  0
    3.0571  141.8688   53.1665 C   0  0  0  0  0  0  0  0  0  0  0  0
    4.0087  141.7628   53.6969 H   0  0  0  0  0  0  0  0  0  0  0  0
    2.5621  140.8969   53.2327 H   0  0  0  0  0  0  0  0  0  0  0  0
    3.3314  142.2508   51.7026 C   0  0  0  0  0  0  0  0  0  0  0  0
    3.9635  141.4891   51.2404 H   0  0  0  0  0  0  0  0  0  0  0  0
    3.9053  143.1832   51.6974 H   0  0  0  0  0  0  0  0  0  0  0  0
    2.0363  142.4772   50.8795 C   0  0  0  0  0  0  0  0  0  0  0  0
    2.1812  143.3738   50.2689 H   0  0  0  0  0  0  0  0  0  0  0  0
    1.7502  141.3482   49.9220 C   0  0  0  0  0  0  0  0  0  0  0  0
    2.5973  141.2035   49.2548 H   0  0  0  0  0  0  0  0  0  0  0  0
    0.8722  141.5798   49.3237 H   0  0  0  0  0  0  0  0  0  0  0  0
    1.5421  140.4269   50.4496 H   0  0  0  0  0  0  0  0  0  0  0  0
    0.8183  142.6580   51.7923 C   0  0  0  0  0  0  0  0  0  0  0  0
   -0.0239  143.0854   51.2465 H   0  0  0  0  0  0  0  0  0  0  0  0
    0.4998  141.6962   52.2068 H   0  0  0  0  0  0  0  0  0  0  0  0
    1.2232  143.5846   52.9105 C   0  0  0  0  0  0  0  0  0  0  0  0
    1.6536  144.4880   52.4602 H   0  0  0  0  0  0  0  0  0  0  0  0
    0.3461  143.8721   53.4920 H   0  0  0  0  0  0  0  0  0  0  0  0
    3.3009  143.2493   55.8957 C   0  0  0  0  0  0  0  0  0  0  0  0
    3.1980  141.8606   56.1895 C   0  0  0  0  0  0  0  0  0  0  0  0
    3.1296  140.7079   56.3325 N   0  0  0  0  0  0  0  0  0  0  0  0
    3.8482  144.1725   56.7438 C   0  0  0  0  0  0  0  0  0  0  0  0
    4.3003  143.8301   57.9621 N   0  0  0  0  0  0  0  0  0  0  0  0
    4.3669  144.5915   58.6333 H   0  0  0  0  0  0  0  0  0  0  0  0
    4.0173  142.9182   58.3066 H   0  0  0  0  0  0  0  0  0  0  0  0
    3.9582  145.4790   56.3896 C   0  0  0  0  0  0  0  0  0  0  0  0
    4.4027  146.2083   57.0471 H   0  0  0  0  0  0  0  0  0  0  0  0
    1.8801  149.1955   52.6744 C   0  0  0  0  0  0  0  0  0  0  0  0
    2.6998  148.2917   52.0317 O   0  0  0  0  0  0  0  0  0  0  0  0
    2.0493  147.2866   51.2328 C   0  0  0  0  0  0  0  0  0  0  0  0
    1.3322  146.7282   51.8447 H   0  0  0  0  0  0  0  0  0  0  0  0
    2.7919  146.5798   50.8436 H   0  0  0  0  0  0  0  0  0  0  0  0
    1.5195  147.7299   50.3814 H   0  0  0  0  0  0  0  0  0  0  0  0
  1  2  1  0
  2  3  2  0
  3  4  1  0
  3  5  1  0
  5  6  1  0
  6  7  1  0
  7  8  1  0
  7  9  1  0
  7 10  1  0
  5 11  2  0
 11 12  1  0
 11 13  1  0
 13 14  1  0
 14 15  1  0
 14 16  1  0
 14 17  1  0
 17 18  2  0
 17 19  1  0
 19 20  1  0
 19 21  1  0
 21 22  2  0
 22 23  1  0
 23 24  1  0
 24 25  1  0
 25 26  1  0
 25 27  1  0
 25 28  1  0
 28 29  1  0
 28 30  1  0
 28 31  1  0
 31 32  1  0
 31 33  1  0
 33 34  1  0
 33 35  1  0
 33 36  1  0
 31 37  1  0
 37 38  1  0
 37 39  1  0
 37 40  1  0
 40 41  1  0
 40 42  1  0
 23 43  2  0
 43 44  1  0
 44 45  3  0
 43 46  1  0
 46 47  1  0
 47 48  1  0
 47 49  1  0
 46 50  2  0
 50 51  1  0
 13 52  2  0
 52 53  1  0
 53 54  1  0
 54 55  1  0
 54 56  1  0
 54 57  1  0
 52  2  1  0
 50 21  1  0
 40 24  1  0
M  END
>  <score>  (416) 
7.45976

$$$$

     RDKit          3D

 50 52  0  0  0  0  0  0  0  0999 V2000
    0.5753  142.4057   49.4918 H   0  0  0  0  0  0  0  0  0  0  0  0
    1.3815  142.7551   50.1281 C   0  0  0  0  0  0  0  0  0  0  0  0
    2.4041  143.3637   49.5191 N   0  0  0  0  0  0  0  0  0  0  0  0
    3.4135  143.8028   50.2842 C   0  0  0  0  0  0  0  0  0  0  0  0
    4.2603  144.2745   49.7969 H   0  0  0  0  0  0  0  0  0  0  0  0
    3.4116  143.6689   51.6703 C   0  0  0  0  0  0  0  0  0  0  0  0
    4.2494  143.9962   52.2601 H   0  0  0  0  0  0  0  0  0  0  0  0
    2.3555  143.0569   52.2960 C   0  0  0  0  0  0  0  0  0  0  0  0
    2.3752  142.8577   53.6585 N   0  0  0  0  0  0  0  0  0  0  0  0
    1.8371  142.0995   54.0342 H   0  0  0  0  0  0  0  0  0  0  0  0
    2.9420  143.6884   54.5937 C   0  0  0  0  0  0  0  0  0  0  0  0
    3.0957  144.9587   54.2640 N   0  0  0  0  0  0  0  0  0  0  0  0
    3.5490  145.7758   55.1851 C   0  0  0  0  0  0  0  0  0  0  0  0
    3.7028  146.9763   54.6134 N   0  0  0  0  0  0  0  0  0  0  0  0
    3.4994  146.9251   53.6271 H   0  0  0  0  0  0  0  0  0  0  0  0
    3.7380  148.1865   55.2520 C   0  0  0  0  0  0  0  0  0  0  0  0
    3.8438  148.2286   56.4692 O   0  0  0  0  0  0  0  0  0  0  0  0
    3.7175  149.4627   54.4058 C   0  0  0  0  0  0  0  0  0  0  0  0
    3.9903  150.3308   54.9950 H   0  0  0  0  0  0  0  0  0  0  0  0
    4.4017  149.3582   53.5624 H   0  0  0  0  0  0  0  0  0  0  0  0
    2.3746  149.7738   53.8633 C   0  0  0  0  0  0  0  0  0  0  0  0
    1.5927  150.6807   54.5747 C   0  0  0  0  0  0  0  0  0  0  0  0
    1.9896  151.1385   55.4700 H   0  0  0  0  0  0  0  0  0  0  0  0
    0.3330  151.0556   54.1302 C   0  0  0  0  0  0  0  0  0  0  0  0
   -0.3781  151.9753   54.8564 O   0  0  0  0  0  0  0  0  0  0  0  0
   -1.4241  151.4027   55.6430 C   0  0  0  0  0  0  0  0  0  0  0  0
   -2.1509  150.8752   55.0165 H   0  0  0  0  0  0  0  0  0  0  0  0
   -1.0110  150.7003   56.3691 H   0  0  0  0  0  0  0  0  0  0  0  0
   -1.9364  152.2026   56.1855 H   0  0  0  0  0  0  0  0  0  0  0  0
   -0.1476  150.4965   52.9347 C   0  0  0  0  0  0  0  0  0  0  0  0
   -1.8734  150.9875   52.2806 Br  0  0  0  0  0  0  0  0  0  0  0  0
    0.6566  149.6024   52.1941 C   0  0  0  0  0  0  0  0  0  0  0  0
    0.3077  149.1983   51.2472 H   0  0  0  0  0  0  0  0  0  0  0  0
    1.9321  149.2328   52.6508 C   0  0  0  0  0  0  0  0  0  0  0  0
    2.7746  148.4024   51.9448 O   0  0  0  0  0  0  0  0  0  0  0  0
    2.1646  147.2954   51.2798 C   0  0  0  0  0  0  0  0  0  0  0  0
    1.4922  146.7578   51.9580 H   0  0  0  0  0  0  0  0  0  0  0  0
    1.6031  147.6406   50.4069 H   0  0  0  0  0  0  0  0  0  0  0  0
    2.9520  146.6082   50.9517 H   0  0  0  0  0  0  0  0  0  0  0  0
    3.8721  145.4078   56.4613 C   0  0  0  0  0  0  0  0  0  0  0  0
    4.2845  146.0977   57.1808 H   0  0  0  0  0  0  0  0  0  0  0  0
    3.7201  144.0923   56.7646 C   0  0  0  0  0  0  0  0  0  0  0  0
    4.1261  143.7171   57.9890 N   0  0  0  0  0  0  0  0  0  0  0  0
    4.0538  142.7422   58.2724 H   0  0  0  0  0  0  0  0  0  0  0  0
    4.4814  144.4363   58.6163 H   0  0  0  0  0  0  0  0  0  0  0  0
    3.2390  143.1931   55.8514 C   0  0  0  0  0  0  0  0  0  0  0  0
    3.1062  141.8134   56.1850 C   0  0  0  0  0  0  0  0  0  0  0  0
    3.0262  140.6802   56.4387 N   0  0  0  0  0  0  0  0  0  0  0  0
    1.3292  142.5703   51.5107 C   0  0  0  0  0  0  0  0  0  0  0  0
    0.4898  142.0513   51.9438 H   0  0  0  0  0  0  0  0  0  0  0  0
  1  2  1  0
  2  3  2  0
  3  4  1  0
  4  5  1  0
  4  6  2  0
  6  7  1  0
  6  8  1  0
  8  9  1  0
  9 10  1  0
  9 11  1  0
 11 12  2  0
 12 13  1  0
 13 14  1  0
 14 15  1  0
 14 16  1  0
 16 17  2  0
 16 18  1  0
 18 19  1  0
 18 20  1  0
 18 21  1  0
 21 22  2  0
 22 23  1  0
 22 24  1  0
 24 25  1  0
 25 26  1  0
 26 27  1  0
 26 28  1  0
 26 29  1  0
 24 30  2  0
 30 31  1  0
 30 32  1  0
 32 33  1  0
 32 34  2  0
 34 35  1  0
 35 36  1  0
 36 37  1  0
 36 38  1  0
 36 39  1  0
 13 40  2  0
 40 41  1  0
 40 42  1  0
 42 43  1  0
 43 44  1  0
 43 45  1  0
 42 46  2  0
 46 47  1  0
 47 48  3  0
  8 49  2  0
 49 50  1  0
 49  2  1  0
 46 11  1  0
 34 21  1  0
M  END
>  <score>  (417) 
7.45984

$$$$

     RDKit          3D

 54 56  0  0  0  0  0  0  0  0999 V2000
    0.3075  149.2023   51.2512 H   0  0  0  0  0  0  0  0  0  0  0  0
    0.6595  149.6063   52.1959 C   0  0  0  0  0  0  0  0  0  0  0  0
   -0.1446  150.5000   52.9357 C   0  0  0  0  0  0  0  0  0  0  0  0
   -1.8706  150.9853   52.2777 Br  0  0  0  0  0  0  0  0  0  0  0  0
    0.3356  151.0575   54.1321 C   0  0  0  0  0  0  0  0  0  0  0  0
   -0.3784  151.9754   54.8594 O   0  0  0  0  0  0  0  0  0  0  0  0
   -1.4255  151.4038   55.6469 C   0  0  0  0  0  0  0  0  0  0  0  0
   -1.9407  152.2013   56.1905 H   0  0  0  0  0  0  0  0  0  0  0  0
   -1.0131  150.7026   56.3735 H   0  0  0  0  0  0  0  0  0  0  0  0
   -2.1521  150.8752   55.0219 H   0  0  0  0  0  0  0  0  0  0  0  0
    1.5973  150.6850   54.5746 C   0  0  0  0  0  0  0  0  0  0  0  0
    1.9925  151.1399   55.4729 H   0  0  0  0  0  0  0  0  0  0  0  0
    2.3796  149.7784   53.8605 C   0  0  0  0  0  0  0  0  0  0  0  0
    3.7225  149.4614   54.4011 C   0  0  0  0  0  0  0  0  0  0  0  0
    4.4113  149.3521   53.5620 H   0  0  0  0  0  0  0  0  0  0  0  0
    3.9954  150.3323   54.9841 H   0  0  0  0  0  0  0  0  0  0  0  0
    3.7405  148.1903   55.2568 C   0  0  0  0  0  0  0  0  0  0  0  0
    3.8464  148.2420   56.4732 O   0  0  0  0  0  0  0  0  0  0  0  0
    3.6956  146.9784   54.6275 N   0  0  0  0  0  0  0  0  0  0  0  0
    3.5132  146.9351   53.6378 H   0  0  0  0  0  0  0  0  0  0  0  0
    3.5374  145.7763   55.2023 C   0  0  0  0  0  0  0  0  0  0  0  0
    3.0577  144.9590   54.2988 N   0  0  0  0  0  0  0  0  0  0  0  0
    2.9083  143.6942   54.6447 C   0  0  0  0  0  0  0  0  0  0  0  0
    2.3650  142.8595   53.6986 N   0  0  0  0  0  0  0  0  0  0  0  0
    2.1972  141.9154   54.0165 H   0  0  0  0  0  0  0  0  0  0  0  0
    2.1213  143.2315   52.2809 C   0  0  0  0  0  0  0  0  0  0  0  0
    1.5492  144.1702   52.2276 H   0  0  0  0  0  0  0  0  0  0  0  0
    1.3846  142.1646   51.4572 C   0  0  0  0  0  0  0  0  0  0  0  0
    0.3008  142.2287   51.5957 H   0  0  0  0  0  0  0  0  0  0  0  0
    1.7142  141.1618   51.7548 H   0  0  0  0  0  0  0  0  0  0  0  0
    1.7669  142.4200   49.9888 C   0  0  0  0  0  0  0  0  0  0  0  0
    1.8539  141.4833   49.4262 H   0  0  0  0  0  0  0  0  0  0  0  0
    1.0095  143.0377   49.4920 H   0  0  0  0  0  0  0  0  0  0  0  0
    3.0957  143.1737   50.0260 C   0  0  0  0  0  0  0  0  0  0  0  0
    3.8881  142.6030   49.5278 H   0  0  0  0  0  0  0  0  0  0  0  0
    2.9929  144.1345   49.5081 H   0  0  0  0  0  0  0  0  0  0  0  0
    3.4279  143.3912   51.5099 C   0  0  0  0  0  0  0  0  0  0  0  0
    4.1424  142.6260   51.8378 H   0  0  0  0  0  0  0  0  0  0  0  0
    3.8657  144.3804   51.6837 H   0  0  0  0  0  0  0  0  0  0  0  0
    3.2445  143.1918   55.8845 C   0  0  0  0  0  0  0  0  0  0  0  0
    3.1198  141.8099   56.2076 C   0  0  0  0  0  0  0  0  0  0  0  0
    3.0278  140.6723   56.4364 N   0  0  0  0  0  0  0  0  0  0  0  0
    3.7336  144.0932   56.7849 C   0  0  0  0  0  0  0  0  0  0  0  0
    4.1394  143.7154   58.0062 N   0  0  0  0  0  0  0  0  0  0  0  0
    4.0571  142.7407   58.2864 H   0  0  0  0  0  0  0  0  0  0  0  0
    4.4900  144.4299   58.6411 H   0  0  0  0  0  0  0  0  0  0  0  0
    3.8791  145.4103   56.4754 C   0  0  0  0  0  0  0  0  0  0  0  0
    4.2938  146.1071   57.1866 H   0  0  0  0  0  0  0  0  0  0  0  0
    1.9346  149.2363   52.6500 C   0  0  0  0  0  0  0  0  0  0  0  0
    2.7753  148.4026   51.9451 O   0  0  0  0  0  0  0  0  0  0  0  0
    2.1655  147.2951   51.2799 C   0  0  0  0  0  0  0  0  0  0  0  0
    1.4931  146.7563   51.9565 H   0  0  0  0  0  0  0  0  0  0  0  0
    2.9518  146.6069   50.9517 H   0  0  0  0  0  0  0  0  0  0  0  0
    1.6039  147.6376   50.4062 H   0  0  0  0  0  0  0  0  0  0  0  0
  1  2  1  0
  2  3  2  0
  3  4  1  0
  3  5  1  0
  5  6  1  0
  6  7  1  0
  7  8  1  0
  7  9  1  0
  7 10  1  0
  5 11  2  0
 11 12  1  0
 11 13  1  0
 13 14  1  0
 14 15  1  0
 14 16  1  0
 14 17  1  0
 17 18  2  0
 17 19  1  0
 19 20  1  0
 19 21  1  0
 21 22  2  0
 22 23  1  0
 23 24  1  0
 24 25  1  0
 24 26  1  0
 26 27  1  0
 26 28  1  0
 28 29  1  0
 28 30  1  0
 28 31  1  0
 31 32  1  0
 31 33  1  0
 31 34  1  0
 34 35  1  0
 34 36  1  0
 34 37  1  0
 37 38  1  0
 37 39  1  0
 23 40  2  0
 40 41  1  0
 41 42  3  0
 40 43  1  0
 43 44  1  0
 44 45  1  0
 44 46  1  0
 43 47  2  0
 47 48  1  0
 13 49  2  0
 49 50  1  0
 50 51  1  0
 51 52  1  0
 51 53  1  0
 51 54  1  0
 49  2  1  0
 47 21  1  0
 37 26  1  0
M  END
>  <score>  (418) 
7.46298

$$$$

     RDKit          3D

 54 56  0  0  0  0  0  0  0  0999 V2000
    0.4581  141.9206   52.1515 H   0  0  0  0  0  0  0  0  0  0  0  0
    1.2266  142.4849   51.6334 C   0  0  0  0  0  0  0  0  0  0  0  0
    1.1474  142.6356   50.2375 C   0  0  0  0  0  0  0  0  0  0  0  0
    0.3514  142.1902   49.6550 H   0  0  0  0  0  0  0  0  0  0  0  0
    2.0996  143.3499   49.5235 C   0  0  0  0  0  0  0  0  0  0  0  0
    1.8731  143.4818   48.1678 O   0  0  0  0  0  0  0  0  0  0  0  0
    2.8386  144.1862   47.3813 C   0  0  0  0  0  0  0  0  0  0  0  0
    2.9460  145.2211   47.7239 H   0  0  0  0  0  0  0  0  0  0  0  0
    2.5371  144.2075   46.3229 H   0  0  0  0  0  0  0  0  0  0  0  0
    3.7978  143.6713   47.4647 H   0  0  0  0  0  0  0  0  0  0  0  0
    3.1933  143.8672   50.2362 C   0  0  0  0  0  0  0  0  0  0  0  0
    3.9701  144.3748   49.6786 H   0  0  0  0  0  0  0  0  0  0  0  0
    3.2853  143.7105   51.6418 C   0  0  0  0  0  0  0  0  0  0  0  0
    4.1421  144.0777   52.1905 H   0  0  0  0  0  0  0  0  0  0  0  0
    2.2879  143.0352   52.3656 C   0  0  0  0  0  0  0  0  0  0  0  0
    2.3383  142.7892   53.7270 O   0  0  0  0  0  0  0  0  0  0  0  0
    2.9265  143.6725   54.6078 C   0  0  0  0  0  0  0  0  0  0  0  0
    3.0918  144.9560   54.2816 N   0  0  0  0  0  0  0  0  0  0  0  0
    3.5581  145.7798   55.1971 C   0  0  0  0  0  0  0  0  0  0  0  0
    3.7108  146.9797   54.6250 N   0  0  0  0  0  0  0  0  0  0  0  0
    3.5039  146.9292   53.6411 H   0  0  0  0  0  0  0  0  0  0  0  0
    3.7449  148.1910   55.2583 C   0  0  0  0  0  0  0  0  0  0  0  0
    3.8479  148.2411   56.4758 O   0  0  0  0  0  0  0  0  0  0  0  0
    3.7217  149.4658   54.4038 C   0  0  0  0  0  0  0  0  0  0  0  0
    4.4067  149.3589   53.5604 H   0  0  0  0  0  0  0  0  0  0  0  0
    3.9946  150.3398   54.9874 H   0  0  0  0  0  0  0  0  0  0  0  0
    2.3770  149.7785   53.8612 C   0  0  0  0  0  0  0  0  0  0  0  0
    1.5931  150.6862   54.5730 C   0  0  0  0  0  0  0  0  0  0  0  0
    1.9876  151.1442   55.4701 H   0  0  0  0  0  0  0  0  0  0  0  0
    0.3323  151.0578   54.1301 C   0  0  0  0  0  0  0  0  0  0  0  0
   -0.3793  151.9764   54.8591 O   0  0  0  0  0  0  0  0  0  0  0  0
   -1.4256  151.4034   55.6454 C   0  0  0  0  0  0  0  0  0  0  0  0
   -2.1519  150.8753   55.0184 H   0  0  0  0  0  0  0  0  0  0  0  0
   -1.0126  150.7011   56.3718 H   0  0  0  0  0  0  0  0  0  0  0  0
   -1.9395  152.2023   56.1884 H   0  0  0  0  0  0  0  0  0  0  0  0
   -0.1472  150.4977   52.9341 C   0  0  0  0  0  0  0  0  0  0  0  0
   -1.8728  150.9858   52.2781 Br  0  0  0  0  0  0  0  0  0  0  0  0
    0.6566  149.6030   52.1932 C   0  0  0  0  0  0  0  0  0  0  0  0
    0.3058  149.1986   51.2481 H   0  0  0  0  0  0  0  0  0  0  0  0
    1.9324  149.2354   52.6494 C   0  0  0  0  0  0  0  0  0  0  0  0
    2.7750  148.4021   51.9468 O   0  0  0  0  0  0  0  0  0  0  0  0
    2.1656  147.2955   51.2802 C   0  0  0  0  0  0  0  0  0  0  0  0
    1.4997  146.7512   51.9597 H   0  0  0  0  0  0  0  0  0  0  0  0
    2.9534  146.6123   50.9439 H   0  0  0  0  0  0  0  0  0  0  0  0
    1.5970  147.6409   50.4117 H   0  0  0  0  0  0  0  0  0  0  0  0
    3.8869  145.4255   56.4743 C   0  0  0  0  0  0  0  0  0  0  0  0
    4.2936  146.1144   57.2002 H   0  0  0  0  0  0  0  0  0  0  0  0
    3.7459  144.1128   56.7744 C   0  0  0  0  0  0  0  0  0  0  0  0
    4.1363  143.7281   57.9957 N   0  0  0  0  0  0  0  0  0  0  0  0
    4.0518  142.7499   58.2650 H   0  0  0  0  0  0  0  0  0  0  0  0
    4.4865  144.4381   58.6338 H   0  0  0  0  0  0  0  0  0  0  0  0
    3.2659  143.2095   55.8693 C   0  0  0  0  0  0  0  0  0  0  0  0
    3.1331  141.8346   56.2106 C   0  0  0  0  0  0  0  0  0  0  0  0
    3.0327  140.7004   56.4487 N   0  0  0  0  0  0  0  0  0  0  0  0
  1  2  1  0
  2  3  2  0
  3  4  1  0
  3  5  1  0
  5  6  1  0
  6  7  1  0
  7  8  1  0
  7  9  1  0
  7 10  1  0
  5 11  2  0
 11 12  1  0
 11 13  1  0
 13 14  1  0
 13 15  2  0
 15 16  1  0
 16 17  1  0
 17 18  2  0
 18 19  1  0
 19 20  1  0
 20 21  1  0
 20 22  1  0
 22 23  2  0
 22 24  1  0
 24 25  1  0
 24 26  1  0
 24 27  1  0
 27 28  2  0
 28 29  1  0
 28 30  1  0
 30 31  1  0
 31 32  1  0
 32 33  1  0
 32 34  1  0
 32 35  1  0
 30 36  2  0
 36 37  1  0
 36 38  1  0
 38 39  1  0
 38 40  2  0
 40 41  1  0
 41 42  1  0
 42 43  1  0
 42 44  1  0
 42 45  1  0
 19 46  2  0
 46 47  1  0
 46 48  1  0
 48 49  1  0
 49 50  1  0
 49 51  1  0
 48 52  2  0
 52 53  1  0
 53 54  3  0
 15  2  1  0
 52 17  1  0
 40 27  1  0
M  END
>  <score>  (419) 
7.46728

$$$$

     RDKit          3D

 50 52  0  0  0  0  0  0  0  0999 V2000
    0.0290  144.7137   49.5007 H   0  0  0  0  0  0  0  0  0  0  0  0
    0.4735  144.3231   50.4021 C   0  0  0  0  0  0  0  0  0  0  0  0
    0.3039  144.9694   51.5635 N   0  0  0  0  0  0  0  0  0  0  0  0
    0.8793  144.4282   52.6651 C   0  0  0  0  0  0  0  0  0  0  0  0
    0.8038  144.9225   53.6347 H   0  0  0  0  0  0  0  0  0  0  0  0
    1.6569  143.2421   52.6466 C   0  0  0  0  0  0  0  0  0  0  0  0
    2.3634  142.7706   53.7742 N   0  0  0  0  0  0  0  0  0  0  0  0
    2.8837  141.9097   53.6711 H   0  0  0  0  0  0  0  0  0  0  0  0
    2.9099  143.6270   54.7018 C   0  0  0  0  0  0  0  0  0  0  0  0
    3.0318  144.8720   54.2932 N   0  0  0  0  0  0  0  0  0  0  0  0
    3.5243  145.7257   55.1333 C   0  0  0  0  0  0  0  0  0  0  0  0
    3.6351  146.9139   54.5182 N   0  0  0  0  0  0  0  0  0  0  0  0
    3.3454  146.9293   53.5543 H   0  0  0  0  0  0  0  0  0  0  0  0
    3.6898  148.0885   55.1954 C   0  0  0  0  0  0  0  0  0  0  0  0
    3.7942  148.0819   56.4077 O   0  0  0  0  0  0  0  0  0  0  0  0
    3.6814  149.4043   54.4405 C   0  0  0  0  0  0  0  0  0  0  0  0
    3.9172  150.1617   55.1754 H   0  0  0  0  0  0  0  0  0  0  0  0
    4.4375  149.4078   53.6463 H   0  0  0  0  0  0  0  0  0  0  0  0
    2.3363  149.7513   53.8693 C   0  0  0  0  0  0  0  0  0  0  0  0
    1.5394  150.6578   54.5681 C   0  0  0  0  0  0  0  0  0  0  0  0
    1.8883  151.0999   55.4943 H   0  0  0  0  0  0  0  0  0  0  0  0
    0.2936  151.0426   54.0821 C   0  0  0  0  0  0  0  0  0  0  0  0
   -0.4111  151.9854   54.7738 O   0  0  0  0  0  0  0  0  0  0  0  0
   -1.4339  151.4035   55.5777 C   0  0  0  0  0  0  0  0  0  0  0  0
   -2.1676  150.8929   54.9482 H   0  0  0  0  0  0  0  0  0  0  0  0
   -1.9378  152.1840   56.1529 H   0  0  0  0  0  0  0  0  0  0  0  0
   -1.0055  150.6829   56.2768 H   0  0  0  0  0  0  0  0  0  0  0  0
   -0.2010  150.4690   52.9004 C   0  0  0  0  0  0  0  0  0  0  0  0
   -1.9344  150.9542   52.2344 Br  0  0  0  0  0  0  0  0  0  0  0  0
    0.6050  149.5678   52.1851 C   0  0  0  0  0  0  0  0  0  0  0  0
    0.2557  149.1538   51.2451 H   0  0  0  0  0  0  0  0  0  0  0  0
    1.8836  149.2165   52.6554 C   0  0  0  0  0  0  0  0  0  0  0  0
    2.7320  148.3829   51.9707 O   0  0  0  0  0  0  0  0  0  0  0  0
    2.1130  147.3048   51.2696 C   0  0  0  0  0  0  0  0  0  0  0  0
    2.8773  146.5899   50.9514 H   0  0  0  0  0  0  0  0  0  0  0  0
    1.5843  147.6676   50.3845 H   0  0  0  0  0  0  0  0  0  0  0  0
    1.4084  146.7910   51.9276 H   0  0  0  0  0  0  0  0  0  0  0  0
    3.8796  145.4193   56.4179 C   0  0  0  0  0  0  0  0  0  0  0  0
    4.2646  146.1585   57.0965 H   0  0  0  0  0  0  0  0  0  0  0  0
    3.7726  144.1185   56.7944 C   0  0  0  0  0  0  0  0  0  0  0  0
    4.1639  143.7687   58.0278 N   0  0  0  0  0  0  0  0  0  0  0  0
    4.0833  142.7930   58.3062 H   0  0  0  0  0  0  0  0  0  0  0  0
    4.4584  144.4954   58.6754 H   0  0  0  0  0  0  0  0  0  0  0  0
    3.3007  143.1814   55.9327 C   0  0  0  0  0  0  0  0  0  0  0  0
    3.1973  141.8009   56.2570 C   0  0  0  0  0  0  0  0  0  0  0  0
    3.1134  140.6525   56.4091 N   0  0  0  0  0  0  0  0  0  0  0  0
    1.7616  142.5512   51.4463 C   0  0  0  0  0  0  0  0  0  0  0  0
    2.3283  141.6208   51.4038 H   0  0  0  0  0  0  0  0  0  0  0  0
    1.1580  143.1096   50.3144 C   0  0  0  0  0  0  0  0  0  0  0  0
    1.2206  142.6291   49.3486 H   0  0  0  0  0  0  0  0  0  0  0  0
  1  2  1  0
  2  3  2  0
  3  4  1  0
  4  5  1  0
  4  6  2  0
  6  7  1  0
  7  8  1  0
  7  9  1  0
  9 10  2  0
 10 11  1  0
 11 12  1  0
 12 13  1  0
 12 14  1  0
 14 15  2  0
 14 16  1  0
 16 17  1  0
 16 18  1  0
 16 19  1  0
 19 20  2  0
 20 21  1  0
 20 22  1  0
 22 23  1  0
 23 24  1  0
 24 25  1  0
 24 26  1  0
 24 27  1  0
 22 28  2  0
 28 29  1  0
 28 30  1  0
 30 31  1  0
 30 32  2  0
 32 33  1  0
 33 34  1  0
 34 35  1  0
 34 36  1  0
 34 37  1  0
 11 38  2  0
 38 39  1  0
 38 40  1  0
 40 41  1  0
 41 42  1  0
 41 43  1  0
 40 44  2  0
 44 45  1  0
 45 46  3  0
  6 47  1  0
 47 48  1  0
 47 49  2  0
 49 50  1  0
 49  2  1  0
 44  9  1  0
 32 19  1  0
M  END
>  <score>  (420) 
7.47144

$$$$

     RDKit          3D

 66 69  0  0  0  0  0  0  0  0999 V2000
    0.3075  149.1992   51.2478 H   0  0  0  0  0  0  0  0  0  0  0  0
    0.6581  149.6036   52.1957 C   0  0  0  0  0  0  0  0  0  0  0  0
   -0.1469  150.4978   52.9357 C   0  0  0  0  0  0  0  0  0  0  0  0
   -1.8736  150.9862   52.2794 Br  0  0  0  0  0  0  0  0  0  0  0  0
    0.3332  151.0562   54.1307 C   0  0  0  0  0  0  0  0  0  0  0  0
   -0.3783  151.9743   54.8565 O   0  0  0  0  0  0  0  0  0  0  0  0
   -1.4243  151.4030   55.6436 C   0  0  0  0  0  0  0  0  0  0  0  0
   -1.9374  152.2018   56.1866 H   0  0  0  0  0  0  0  0  0  0  0  0
   -1.0120  150.7015   56.3694 H   0  0  0  0  0  0  0  0  0  0  0  0
   -2.1507  150.8755   55.0184 H   0  0  0  0  0  0  0  0  0  0  0  0
    1.5932  150.6825   54.5751 C   0  0  0  0  0  0  0  0  0  0  0  0
    1.9904  151.1391   55.4708 H   0  0  0  0  0  0  0  0  0  0  0  0
    2.3768  149.7778   53.8628 C   0  0  0  0  0  0  0  0  0  0  0  0
    3.7181  149.4623   54.4036 C   0  0  0  0  0  0  0  0  0  0  0  0
    3.9889  150.3324   54.9891 H   0  0  0  0  0  0  0  0  0  0  0  0
    4.4047  149.3583   53.5624 H   0  0  0  0  0  0  0  0  0  0  0  0
    3.7411  148.1869   55.2538 C   0  0  0  0  0  0  0  0  0  0  0  0
    3.8423  148.2355   56.4711 O   0  0  0  0  0  0  0  0  0  0  0  0
    3.6930  146.9734   54.6235 N   0  0  0  0  0  0  0  0  0  0  0  0
    3.4999  146.9277   53.6353 H   0  0  0  0  0  0  0  0  0  0  0  0
    3.5159  145.7756   55.2045 C   0  0  0  0  0  0  0  0  0  0  0  0
    3.0197  144.9486   54.3102 N   0  0  0  0  0  0  0  0  0  0  0  0
    2.9149  143.6681   54.6355 C   0  0  0  0  0  0  0  0  0  0  0  0
    2.4051  142.8230   53.6532 N   0  0  0  0  0  0  0  0  0  0  0  0
    1.1755  143.1538   52.9174 C   0  0  0  0  0  0  0  0  0  0  0  0
    0.5463  142.2636   52.9333 H   0  0  0  0  0  0  0  0  0  0  0  0
    0.6215  143.9791   53.3828 H   0  0  0  0  0  0  0  0  0  0  0  0
    1.4687  143.4574   51.4551 C   0  0  0  0  0  0  0  0  0  0  0  0
    2.0474  144.3841   51.3738 H   0  0  0  0  0  0  0  0  0  0  0  0
    0.5239  143.5810   50.9205 H   0  0  0  0  0  0  0  0  0  0  0  0
    2.2255  142.2890   50.8162 C   0  0  0  0  0  0  0  0  0  0  0  0
    1.5960  141.3869   50.8471 H   0  0  0  0  0  0  0  0  0  0  0  0
    2.5217  142.5851   49.3962 N   0  0  0  0  0  0  0  0  0  0  0  0
    3.3272  141.5812   48.6780 C   0  0  0  0  0  0  0  0  0  0  0  0
    4.3933  141.6721   48.9180 H   0  0  0  0  0  0  0  0  0  0  0  0
    3.0002  140.5698   48.9473 H   0  0  0  0  0  0  0  0  0  0  0  0
    3.0691  141.8206   47.1908 C   0  0  0  0  0  0  0  0  0  0  0  0
    3.9173  142.3331   46.7238 H   0  0  0  0  0  0  0  0  0  0  0  0
    2.9164  140.8669   46.6748 H   0  0  0  0  0  0  0  0  0  0  0  0
    1.8193  142.6956   47.1071 C   0  0  0  0  0  0  0  0  0  0  0  0
    2.0572  143.6417   46.6084 H   0  0  0  0  0  0  0  0  0  0  0  0
    1.0266  142.1985   46.5380 H   0  0  0  0  0  0  0  0  0  0  0  0
    1.3687  142.9370   48.5467 C   0  0  0  0  0  0  0  0  0  0  0  0
    0.5162  142.2873   48.7772 H   0  0  0  0  0  0  0  0  0  0  0  0
    1.0561  143.9772   48.6974 H   0  0  0  0  0  0  0  0  0  0  0  0
    3.5067  142.0197   51.6163 C   0  0  0  0  0  0  0  0  0  0  0  0
    4.0166  141.1654   51.1628 H   0  0  0  0  0  0  0  0  0  0  0  0
    4.1595  142.8961   51.5500 H   0  0  0  0  0  0  0  0  0  0  0  0
    3.2048  141.7186   53.0955 C   0  0  0  0  0  0  0  0  0  0  0  0
    2.6252  140.7899   53.1630 H   0  0  0  0  0  0  0  0  0  0  0  0
    4.1379  141.5595   53.6539 H   0  0  0  0  0  0  0  0  0  0  0  0
    3.2846  143.1880   55.8736 C   0  0  0  0  0  0  0  0  0  0  0  0
    3.1545  141.8104   56.2035 C   0  0  0  0  0  0  0  0  0  0  0  0
    3.0337  140.6770   56.4343 N   0  0  0  0  0  0  0  0  0  0  0  0
    3.7519  144.0998   56.7765 C   0  0  0  0  0  0  0  0  0  0  0  0
    4.1414  143.7225   58.0020 N   0  0  0  0  0  0  0  0  0  0  0  0
    4.4877  144.4334   58.6414 H   0  0  0  0  0  0  0  0  0  0  0  0
    4.0574  142.7476   58.2757 H   0  0  0  0  0  0  0  0  0  0  0  0
    3.8814  145.4178   56.4732 C   0  0  0  0  0  0  0  0  0  0  0  0
    4.2964  146.1137   57.1904 H   0  0  0  0  0  0  0  0  0  0  0  0
    1.9337  149.2346   52.6529 C   0  0  0  0  0  0  0  0  0  0  0  0
    2.7734  148.4037   51.9450 O   0  0  0  0  0  0  0  0  0  0  0  0
    2.1637  147.2962   51.2802 C   0  0  0  0  0  0  0  0  0  0  0  0
    1.6175  147.6390   50.3977 H   0  0  0  0  0  0  0  0  0  0  0  0
    2.9495  146.6004   50.9678 H   0  0  0  0  0  0  0  0  0  0  0  0
    1.4785  146.7687   51.9519 H   0  0  0  0  0  0  0  0  0  0  0  0
  1  2  1  0
  2  3  2  0
  3  4  1  0
  3  5  1  0
  5  6  1  0
  6  7  1  0
  7  8  1  0
  7  9  1  0
  7 10  1  0
  5 11  2  0
 11 12  1  0
 11 13  1  0
 13 14  1  0
 14 15  1  0
 14 16  1  0
 14 17  1  0
 17 18  2  0
 17 19  1  0
 19 20  1  0
 19 21  1  0
 21 22  2  0
 22 23  1  0
 23 24  1  0
 24 25  1  0
 25 26  1  0
 25 27  1  0
 25 28  1  0
 28 29  1  0
 28 30  1  0
 28 31  1  0
 31 32  1  0
 31 33  1  0
 33 34  1  0
 34 35  1  0
 34 36  1  0
 34 37  1  0
 37 38  1  0
 37 39  1  0
 37 40  1  0
 40 41  1  0
 40 42  1  0
 40 43  1  0
 43 44  1  0
 43 45  1  0
 31 46  1  0
 46 47  1  0
 46 48  1  0
 46 49  1  0
 49 50  1  0
 49 51  1  0
 23 52  2  0
 52 53  1  0
 53 54  3  0
 52 55  1  0
 55 56  1  0
 56 57  1  0
 56 58  1  0
 55 59  2  0
 59 60  1  0
 13 61  2  0
 61 62  1  0
 62 63  1  0
 63 64  1  0
 63 65  1  0
 63 66  1  0
 61  2  1  0
 59 21  1  0
 49 24  1  0
 43 33  1  0
M  END
>  <score>  (421) 
7.47147

$$$$

     RDKit          3D

 52 54  0  0  0  0  0  0  0  0999 V2000
    2.2193  144.6762   48.5920 H   0  0  0  0  0  0  0  0  0  0  0  0
    2.1605  144.1945   49.5648 C   0  0  0  0  0  0  0  0  0  0  0  0
    1.1817  144.6064   50.4756 C   0  0  0  0  0  0  0  0  0  0  0  0
    0.4529  145.3742   50.1992 H   0  0  0  0  0  0  0  0  0  0  0  0
    1.1797  144.0491   51.7660 C   0  0  0  0  0  0  0  0  0  0  0  0
    0.4526  144.3890   52.4994 H   0  0  0  0  0  0  0  0  0  0  0  0
    2.1497  143.0952   52.1477 C   0  0  0  0  0  0  0  0  0  0  0  0
    2.2000  142.6244   53.5930 C   0  0  0  0  0  0  0  0  0  0  0  0
    1.1826  142.3734   53.8903 H   0  0  0  0  0  0  0  0  0  0  0  0
    2.8107  141.7185   53.6578 H   0  0  0  0  0  0  0  0  0  0  0  0
    2.7772  143.6294   54.5861 C   0  0  0  0  0  0  0  0  0  0  0  0
    2.9160  144.9053   54.2085 N   0  0  0  0  0  0  0  0  0  0  0  0
    3.4573  145.7713   55.0474 C   0  0  0  0  0  0  0  0  0  0  0  0
    3.6066  146.9932   54.4876 N   0  0  0  0  0  0  0  0  0  0  0  0
    3.3693  147.0582   53.5149 H   0  0  0  0  0  0  0  0  0  0  0  0
    3.6746  148.1478   55.2148 C   0  0  0  0  0  0  0  0  0  0  0  0
    3.7749  148.1047   56.4243 O   0  0  0  0  0  0  0  0  0  0  0  0
    3.6495  149.4908   54.4998 C   0  0  0  0  0  0  0  0  0  0  0  0
    3.8510  150.2727   55.2314 H   0  0  0  0  0  0  0  0  0  0  0  0
    4.4323  149.5141   53.7406 H   0  0  0  0  0  0  0  0  0  0  0  0
    2.3133  149.7878   53.8794 C   0  0  0  0  0  0  0  0  0  0  0  0
    1.4928  150.6929   54.5529 C   0  0  0  0  0  0  0  0  0  0  0  0
    1.8248  151.1359   55.4871 H   0  0  0  0  0  0  0  0  0  0  0  0
    0.2518  151.0546   54.0403 C   0  0  0  0  0  0  0  0  0  0  0  0
   -0.4812  151.9897   54.7142 O   0  0  0  0  0  0  0  0  0  0  0  0
   -1.4834  151.3972   55.5398 C   0  0  0  0  0  0  0  0  0  0  0  0
   -2.2389  150.9000   54.9253 H   0  0  0  0  0  0  0  0  0  0  0  0
   -1.9719  152.1674   56.1431 H   0  0  0  0  0  0  0  0  0  0  0  0
   -1.0380  150.6607   56.2128 H   0  0  0  0  0  0  0  0  0  0  0  0
   -0.2103  150.4584   52.8571 C   0  0  0  0  0  0  0  0  0  0  0  0
   -1.9462  150.8876   52.1704 Br  0  0  0  0  0  0  0  0  0  0  0  0
    0.6043  149.5383   52.1817 C   0  0  0  0  0  0  0  0  0  0  0  0
    0.2489  149.0882   51.2613 H   0  0  0  0  0  0  0  0  0  0  0  0
    1.8795  149.2029   52.6731 C   0  0  0  0  0  0  0  0  0  0  0  0
    2.7167  148.3320   52.0147 O   0  0  0  0  0  0  0  0  0  0  0  0
    2.0781  147.2962   51.2549 C   0  0  0  0  0  0  0  0  0  0  0  0
    1.3717  146.7464   51.8837 H   0  0  0  0  0  0  0  0  0  0  0  0
    1.5391  147.7056   50.3949 H   0  0  0  0  0  0  0  0  0  0  0  0
    2.8297  146.5907   50.8874 H   0  0  0  0  0  0  0  0  0  0  0  0
    3.8563  145.4529   56.3118 C   0  0  0  0  0  0  0  0  0  0  0  0
    4.3148  146.1850   56.9611 H   0  0  0  0  0  0  0  0  0  0  0  0
    3.7047  144.1625   56.7073 C   0  0  0  0  0  0  0  0  0  0  0  0
    4.1444  143.8440   57.9408 N   0  0  0  0  0  0  0  0  0  0  0  0
    4.4131  144.5925   58.5763 H   0  0  0  0  0  0  0  0  0  0  0  0
    4.0428  142.8891   58.2707 H   0  0  0  0  0  0  0  0  0  0  0  0
    3.1758  143.2142   55.8592 C   0  0  0  0  0  0  0  0  0  0  0  0
    3.1017  141.8414   56.2391 C   0  0  0  0  0  0  0  0  0  0  0  0
    3.0649  140.7014   56.4753 N   0  0  0  0  0  0  0  0  0  0  0  0
    3.0536  142.5996   51.1904 C   0  0  0  0  0  0  0  0  0  0  0  0
    4.1410  141.2829   51.5993 Cl  0  0  0  0  0  0  0  0  0  0  0  0
    3.0643  143.1687   49.9022 C   0  0  0  0  0  0  0  0  0  0  0  0
    3.7769  142.8300   49.1602 H   0  0  0  0  0  0  0  0  0  0  0  0
  1  2  1  0
  2  3  2  0
  3  4  1  0
  3  5  1  0
  5  6  1  0
  5  7  2  0
  7  8  1  0
  8  9  1  0
  8 10  1  0
  8 11  1  0
 11 12  2  0
 12 13  1  0
 13 14  1  0
 14 15  1  0
 14 16  1  0
 16 17  2  0
 16 18  1  0
 18 19  1  0
 18 20  1  0
 18 21  1  0
 21 22  2  0
 22 23  1  0
 22 24  1  0
 24 25  1  0
 25 26  1  0
 26 27  1  0
 26 28  1  0
 26 29  1  0
 24 30  2  0
 30 31  1  0
 30 32  1  0
 32 33  1  0
 32 34  2  0
 34 35  1  0
 35 36  1  0
 36 37  1  0
 36 38  1  0
 36 39  1  0
 13 40  2  0
 40 41  1  0
 40 42  1  0
 42 43  1  0
 43 44  1  0
 43 45  1  0
 42 46  2  0
 46 47  1  0
 47 48  3  0
  7 49  1  0
 49 50  1  0
 49 51  2  0
 51 52  1  0
 51  2  1  0
 46 11  1  0
 34 21  1  0
M  END
>  <score>  (422) 
7.47179

$$$$

     RDKit          3D

 53 55  0  0  0  0  0  0  0  0999 V2000
   -0.1432  145.7551   51.3841 H   0  0  0  0  0  0  0  0  0  0  0  0
    0.4031  144.8182   51.3979 C   0  0  0  0  0  0  0  0  0  0  0  0
    0.9365  144.3485   52.5945 C   0  0  0  0  0  0  0  0  0  0  0  0
    0.7880  144.9211   53.5000 H   0  0  0  0  0  0  0  0  0  0  0  0
    1.6924  143.1711   52.6293 C   0  0  0  0  0  0  0  0  0  0  0  0
    2.2565  142.7024   53.7856 O   0  0  0  0  0  0  0  0  0  0  0  0
    2.7755  143.6320   54.6453 C   0  0  0  0  0  0  0  0  0  0  0  0
    2.9321  144.8946   54.2454 N   0  0  0  0  0  0  0  0  0  0  0  0
    3.4694  145.7376   55.0834 C   0  0  0  0  0  0  0  0  0  0  0  0
    3.6220  146.9314   54.4904 N   0  0  0  0  0  0  0  0  0  0  0  0
    3.3365  146.9643   53.5266 H   0  0  0  0  0  0  0  0  0  0  0  0
    3.6872  148.0965   55.1848 C   0  0  0  0  0  0  0  0  0  0  0  0
    3.7791  148.0773   56.3994 O   0  0  0  0  0  0  0  0  0  0  0  0
    3.6809  149.4231   54.4437 C   0  0  0  0  0  0  0  0  0  0  0  0
    4.4417  149.4339   53.6541 H   0  0  0  0  0  0  0  0  0  0  0  0
    3.9114  150.1814   55.1826 H   0  0  0  0  0  0  0  0  0  0  0  0
    2.3368  149.7629   53.8659 C   0  0  0  0  0  0  0  0  0  0  0  0
    1.5339  150.6656   54.5636 C   0  0  0  0  0  0  0  0  0  0  0  0
    1.8802  151.1043   55.4922 H   0  0  0  0  0  0  0  0  0  0  0  0
    0.2871  151.0441   54.0775 C   0  0  0  0  0  0  0  0  0  0  0  0
   -0.4184  151.9870   54.7681 O   0  0  0  0  0  0  0  0  0  0  0  0
   -1.4402  151.4038   55.5729 C   0  0  0  0  0  0  0  0  0  0  0  0
   -1.0084  150.6808   56.2683 H   0  0  0  0  0  0  0  0  0  0  0  0
   -1.9433  152.1820   56.1524 H   0  0  0  0  0  0  0  0  0  0  0  0
   -2.1762  150.8944   54.9440 H   0  0  0  0  0  0  0  0  0  0  0  0
   -0.2010  150.4688   52.8950 C   0  0  0  0  0  0  0  0  0  0  0  0
   -1.9352  150.9441   52.2282 Br  0  0  0  0  0  0  0  0  0  0  0  0
    0.6068  149.5648   52.1876 C   0  0  0  0  0  0  0  0  0  0  0  0
    0.2548  149.1495   51.2516 H   0  0  0  0  0  0  0  0  0  0  0  0
    1.8862  149.2171   52.6566 C   0  0  0  0  0  0  0  0  0  0  0  0
    2.7332  148.3770   51.9769 O   0  0  0  0  0  0  0  0  0  0  0  0
    2.1110  147.3036   51.2693 C   0  0  0  0  0  0  0  0  0  0  0  0
    2.8758  146.5894   50.9497 H   0  0  0  0  0  0  0  0  0  0  0  0
    1.5855  147.6724   50.3836 H   0  0  0  0  0  0  0  0  0  0  0  0
    1.4029  146.7839   51.9211 H   0  0  0  0  0  0  0  0  0  0  0  0
    3.8388  145.4296   56.3641 C   0  0  0  0  0  0  0  0  0  0  0  0
    4.2575  146.1610   57.0350 H   0  0  0  0  0  0  0  0  0  0  0  0
    3.7034  144.1367   56.7467 C   0  0  0  0  0  0  0  0  0  0  0  0
    4.1356  143.7861   57.9751 N   0  0  0  0  0  0  0  0  0  0  0  0
    4.0655  142.8161   58.2763 H   0  0  0  0  0  0  0  0  0  0  0  0
    4.4439  144.5156   58.6136 H   0  0  0  0  0  0  0  0  0  0  0  0
    3.1869  143.2116   55.8919 C   0  0  0  0  0  0  0  0  0  0  0  0
    3.1283  141.8342   56.2355 C   0  0  0  0  0  0  0  0  0  0  0  0
    3.0935  140.6905   56.4370 N   0  0  0  0  0  0  0  0  0  0  0  0
    1.8348  142.4150   51.4711 C   0  0  0  0  0  0  0  0  0  0  0  0
    2.4481  141.5210   51.5355 H   0  0  0  0  0  0  0  0  0  0  0  0
    1.2360  142.8361   50.2721 C   0  0  0  0  0  0  0  0  0  0  0  0
    1.2458  141.9890   49.0297 C   0  0  0  0  0  0  0  0  0  0  0  0
    1.9935  142.3592   48.3199 H   0  0  0  0  0  0  0  0  0  0  0  0
    0.2550  142.0369   48.5684 H   0  0  0  0  0  0  0  0  0  0  0  0
    1.4492  140.9361   49.2500 H   0  0  0  0  0  0  0  0  0  0  0  0
    0.5720  144.0673   50.2421 C   0  0  0  0  0  0  0  0  0  0  0  0
    0.1128  144.4004   49.3169 H   0  0  0  0  0  0  0  0  0  0  0  0
  1  2  1  0
  2  3  2  0
  3  4  1  0
  3  5  1  0
  5  6  1  0
  6  7  1  0
  7  8  2  0
  8  9  1  0
  9 10  1  0
 10 11  1  0
 10 12  1  0
 12 13  2  0
 12 14  1  0
 14 15  1  0
 14 16  1  0
 14 17  1  0
 17 18  2  0
 18 19  1  0
 18 20  1  0
 20 21  1  0
 21 22  1  0
 22 23  1  0
 22 24  1  0
 22 25  1  0
 20 26  2  0
 26 27  1  0
 26 28  1  0
 28 29  1  0
 28 30  2  0
 30 31  1  0
 31 32  1  0
 32 33  1  0
 32 34  1  0
 32 35  1  0
  9 36  2  0
 36 37  1  0
 36 38  1  0
 38 39  1  0
 39 40  1  0
 39 41  1  0
 38 42  2  0
 42 43  1  0
 43 44  3  0
  5 45  2  0
 45 46  1  0
 45 47  1  0
 47 48  1  0
 48 49  1  0
 48 50  1  0
 48 51  1  0
 47 52  2  0
 52 53  1  0
 52  2  1  0
 42  7  1  0
 30 17  1  0
M  END
>  <score>  (423) 
7.47631

$$$$

     RDKit          3D

 56 58  0  0  0  0  0  0  0  0999 V2000
    0.2421  149.1289   51.2644 H   0  0  0  0  0  0  0  0  0  0  0  0
    0.6008  149.5579   52.1925 C   0  0  0  0  0  0  0  0  0  0  0  0
   -0.2148  150.4716   52.8810 C   0  0  0  0  0  0  0  0  0  0  0  0
   -1.9495  150.9215   52.2051 Br  0  0  0  0  0  0  0  0  0  0  0  0
    0.2545  151.0565   54.0652 C   0  0  0  0  0  0  0  0  0  0  0  0
   -0.4575  152.0012   54.7496 O   0  0  0  0  0  0  0  0  0  0  0  0
   -1.4606  151.4046   55.5648 C   0  0  0  0  0  0  0  0  0  0  0  0
   -1.9587  152.1777   56.1548 H   0  0  0  0  0  0  0  0  0  0  0  0
   -2.2022  150.8932   54.9419 H   0  0  0  0  0  0  0  0  0  0  0  0
   -1.0098  150.6799   56.2483 H   0  0  0  0  0  0  0  0  0  0  0  0
    1.5008  150.6905   54.5543 C   0  0  0  0  0  0  0  0  0  0  0  0
    1.8362  151.1335   55.4852 H   0  0  0  0  0  0  0  0  0  0  0  0
    2.3299  149.8057   53.8654 C   0  0  0  0  0  0  0  0  0  0  0  0
    3.6884  149.5655   54.4634 C   0  0  0  0  0  0  0  0  0  0  0  0
    3.8804  150.4082   55.1200 H   0  0  0  0  0  0  0  0  0  0  0  0
    4.4495  149.5271   53.6748 H   0  0  0  0  0  0  0  0  0  0  0  0
    3.7623  148.2995   55.3018 C   0  0  0  0  0  0  0  0  0  0  0  0
    3.8114  148.3188   56.5175 O   0  0  0  0  0  0  0  0  0  0  0  0
    3.8120  147.1229   54.6323 N   0  0  0  0  0  0  0  0  0  0  0  0
    3.5337  147.1485   53.6644 H   0  0  0  0  0  0  0  0  0  0  0  0
    3.7051  145.9115   55.2022 C   0  0  0  0  0  0  0  0  0  0  0  0
    3.3124  145.0706   54.2738 N   0  0  0  0  0  0  0  0  0  0  0  0
    3.1528  143.7619   54.5397 C   0  0  0  0  0  0  0  0  0  0  0  0
    2.7082  142.8602   53.3912 C   0  0  0  0  0  0  0  0  0  0  0  0
    2.6738  141.6375   53.5284 O   0  0  0  0  0  0  0  0  0  0  0  0
    2.2696  143.3877   52.1720 N   0  0  0  0  0  0  0  0  0  0  0  0
    2.5438  144.3419   51.9527 H   0  0  0  0  0  0  0  0  0  0  0  0
    1.6507  142.6112   51.1069 C   0  0  0  0  0  0  0  0  0  0  0  0
    0.6237  142.3279   51.3731 H   0  0  0  0  0  0  0  0  0  0  0  0
    2.4797  141.3742   50.8160 C   0  0  0  0  0  0  0  0  0  0  0  0
    3.5396  141.5713   51.0123 H   0  0  0  0  0  0  0  0  0  0  0  0
    2.1629  140.5437   51.4531 H   0  0  0  0  0  0  0  0  0  0  0  0
    2.2830  141.0826   49.3342 C   0  0  0  0  0  0  0  0  0  0  0  0
    1.6942  140.1804   49.2009 H   0  0  0  0  0  0  0  0  0  0  0  0
    3.2534  140.9336   48.8518 H   0  0  0  0  0  0  0  0  0  0  0  0
    1.5461  142.2820   48.7401 C   0  0  0  0  0  0  0  0  0  0  0  0
    1.9963  142.5994   47.7969 H   0  0  0  0  0  0  0  0  0  0  0  0
    0.4998  142.0244   48.5532 H   0  0  0  0  0  0  0  0  0  0  0  0
    1.6168  143.3775   49.7933 C   0  0  0  0  0  0  0  0  0  0  0  0
    0.7593  144.0567   49.7390 H   0  0  0  0  0  0  0  0  0  0  0  0
    2.5312  143.9638   49.6605 H   0  0  0  0  0  0  0  0  0  0  0  0
    3.3825  143.3182   55.8550 C   0  0  0  0  0  0  0  0  0  0  0  0
    3.2111  141.9437   56.1996 C   0  0  0  0  0  0  0  0  0  0  0  0
    3.0817  140.8094   56.4114 N   0  0  0  0  0  0  0  0  0  0  0  0
    3.7798  144.2341   56.8172 C   0  0  0  0  0  0  0  0  0  0  0  0
    3.9962  143.8451   58.1038 N   0  0  0  0  0  0  0  0  0  0  0  0
    4.1172  142.8482   58.2862 H   0  0  0  0  0  0  0  0  0  0  0  0
    4.4864  144.4994   58.7046 H   0  0  0  0  0  0  0  0  0  0  0  0
    3.9628  145.5550   56.4999 C   0  0  0  0  0  0  0  0  0  0  0  0
    4.3019  146.2696   57.2376 H   0  0  0  0  0  0  0  0  0  0  0  0
    1.8869  149.2253   52.6628 C   0  0  0  0  0  0  0  0  0  0  0  0
    2.7327  148.3792   51.9875 O   0  0  0  0  0  0  0  0  0  0  0  0
    2.1033  147.3163   51.2652 C   0  0  0  0  0  0  0  0  0  0  0  0
    1.4099  146.7689   51.9159 H   0  0  0  0  0  0  0  0  0  0  0  0
    1.5569  147.7062   50.3994 H   0  0  0  0  0  0  0  0  0  0  0  0
    2.8740  146.6219   50.9135 H   0  0  0  0  0  0  0  0  0  0  0  0
  1  2  1  0
  2  3  2  0
  3  4  1  0
  3  5  1  0
  5  6  1  0
  6  7  1  0
  7  8  1  0
  7  9  1  0
  7 10  1  0
  5 11  2  0
 11 12  1  0
 11 13  1  0
 13 14  1  0
 14 15  1  0
 14 16  1  0
 14 17  1  0
 17 18  2  0
 17 19  1  0
 19 20  1  0
 19 21  1  0
 21 22  2  0
 22 23  1  0
 23 24  1  0
 24 25  2  0
 24 26  1  0
 26 27  1  0
 26 28  1  0
 28 29  1  0
 28 30  1  0
 30 31  1  0
 30 32  1  0
 30 33  1  0
 33 34  1  0
 33 35  1  0
 33 36  1  0
 36 37  1  0
 36 38  1  0
 36 39  1  0
 39 40  1  0
 39 41  1  0
 23 42  2  0
 42 43  1  0
 43 44  3  0
 42 45  1  0
 45 46  1  0
 46 47  1  0
 46 48  1  0
 45 49  2  0
 49 50  1  0
 13 51  2  0
 51 52  1  0
 52 53  1  0
 53 54  1  0
 53 55  1  0
 53 56  1  0
 51  2  1  0
 49 21  1  0
 39 28  1  0
M  END
>  <score>  (424) 
7.4838

$$$$

     RDKit          3D

 51 53  0  0  0  0  0  0  0  0999 V2000
    4.1357  139.6974   52.5187 H   0  0  0  0  0  0  0  0  0  0  0  0
    3.8508  140.7401   52.3945 C   0  0  0  0  0  0  0  0  0  0  0  0
    3.4356  141.4215   53.4736 N   0  0  0  0  0  0  0  0  0  0  0  0
    3.1549  142.7484   53.3754 C   0  0  0  0  0  0  0  0  0  0  0  0
    3.1029  143.6544   54.5874 C   0  0  0  0  0  0  0  0  0  0  0  0
    3.0330  144.9824   54.3714 N   0  0  0  0  0  0  0  0  0  0  0  0
    3.3712  145.8332   55.3131 C   0  0  0  0  0  0  0  0  0  0  0  0
    3.2090  147.0722   54.8050 N   0  0  0  0  0  0  0  0  0  0  0  0
    2.9366  147.0797   53.8361 H   0  0  0  0  0  0  0  0  0  0  0  0
    3.6449  148.2263   55.3680 C   0  0  0  0  0  0  0  0  0  0  0  0
    4.1569  148.2323   56.4731 O   0  0  0  0  0  0  0  0  0  0  0  0
    3.6637  149.4917   54.5367 C   0  0  0  0  0  0  0  0  0  0  0  0
    4.4467  149.4187   53.7847 H   0  0  0  0  0  0  0  0  0  0  0  0
    3.8717  150.3186   55.1986 H   0  0  0  0  0  0  0  0  0  0  0  0
    2.3507  149.8044   53.9074 C   0  0  0  0  0  0  0  0  0  0  0  0
    1.5464  150.7032   54.6049 C   0  0  0  0  0  0  0  0  0  0  0  0
    1.8980  151.1484   55.5329 H   0  0  0  0  0  0  0  0  0  0  0  0
    0.2932  151.0482   54.1259 C   0  0  0  0  0  0  0  0  0  0  0  0
   -0.4201  151.9747   54.8321 O   0  0  0  0  0  0  0  0  0  0  0  0
   -1.4379  151.3993   55.6569 C   0  0  0  0  0  0  0  0  0  0  0  0
   -2.3877  151.3841   55.1131 H   0  0  0  0  0  0  0  0  0  0  0  0
   -1.5623  152.0027   56.5608 H   0  0  0  0  0  0  0  0  0  0  0  0
   -1.1839  150.3802   55.9704 H   0  0  0  0  0  0  0  0  0  0  0  0
   -0.1705  150.4811   52.9303 C   0  0  0  0  0  0  0  0  0  0  0  0
   -1.8843  150.9762   52.2493 Br  0  0  0  0  0  0  0  0  0  0  0  0
    0.6499  149.5883   52.2170 C   0  0  0  0  0  0  0  0  0  0  0  0
    0.3242  149.1873   51.2667 H   0  0  0  0  0  0  0  0  0  0  0  0
    1.9228  149.2369   52.6967 C   0  0  0  0  0  0  0  0  0  0  0  0
    2.7740  148.3932   52.0190 O   0  0  0  0  0  0  0  0  0  0  0  0
    2.1610  147.3218   51.2933 C   0  0  0  0  0  0  0  0  0  0  0  0
    1.7318  147.6814   50.3528 H   0  0  0  0  0  0  0  0  0  0  0  0
    2.9169  146.5615   51.0700 H   0  0  0  0  0  0  0  0  0  0  0  0
    1.3715  146.8523   51.8882 H   0  0  0  0  0  0  0  0  0  0  0  0
    3.8391  145.4513   56.5409 C   0  0  0  0  0  0  0  0  0  0  0  0
    4.1987  146.1516   57.2785 H   0  0  0  0  0  0  0  0  0  0  0  0
    3.7405  144.1197   56.8345 C   0  0  0  0  0  0  0  0  0  0  0  0
    4.0772  143.7461   58.0917 N   0  0  0  0  0  0  0  0  0  0  0  0
    4.4955  144.4304   58.7174 H   0  0  0  0  0  0  0  0  0  0  0  0
    4.1103  142.7502   58.3080 H   0  0  0  0  0  0  0  0  0  0  0  0
    3.3445  143.1959   55.8850 C   0  0  0  0  0  0  0  0  0  0  0  0
    3.2398  141.8118   56.2158 C   0  0  0  0  0  0  0  0  0  0  0  0
    3.0965  140.6833   56.4676 N   0  0  0  0  0  0  0  0  0  0  0  0
    3.1661  143.3605   52.1121 C   0  0  0  0  0  0  0  0  0  0  0  0
    2.9353  144.4148   52.0342 H   0  0  0  0  0  0  0  0  0  0  0  0
    3.6007  142.6812   50.9911 C   0  0  0  0  0  0  0  0  0  0  0  0
    3.7138  143.2082   50.0431 H   0  0  0  0  0  0  0  0  0  0  0  0
    4.0008  141.3548   51.1545 C   0  0  0  0  0  0  0  0  0  0  0  0
    4.7189  140.6146   50.0739 C   0  0  0  0  0  0  0  0  0  0  0  0
    4.4187  141.1315   48.8529 F   0  0  0  0  0  0  0  0  0  0  0  0
    6.0418  140.7506   50.3060 F   0  0  0  0  0  0  0  0  0  0  0  0
    4.4202  139.2910   50.0790 F   0  0  0  0  0  0  0  0  0  0  0  0
  1  2  1  0
  2  3  2  0
  3  4  1  0
  4  5  1  0
  5  6  2  0
  6  7  1  0
  7  8  1  0
  8  9  1  0
  8 10  1  0
 10 11  2  0
 10 12  1  0
 12 13  1  0
 12 14  1  0
 12 15  1  0
 15 16  2  0
 16 17  1  0
 16 18  1  0
 18 19  1  0
 19 20  1  0
 20 21  1  0
 20 22  1  0
 20 23  1  0
 18 24  2  0
 24 25  1  0
 24 26  1  0
 26 27  1  0
 26 28  2  0
 28 29  1  0
 29 30  1  0
 30 31  1  0
 30 32  1  0
 30 33  1  0
  7 34  2  0
 34 35  1  0
 34 36  1  0
 36 37  1  0
 37 38  1  0
 37 39  1  0
 36 40  2  0
 40 41  1  0
 41 42  3  0
  4 43  2  0
 43 44  1  0
 43 45  1  0
 45 46  1  0
 45 47  2  0
 47 48  1  0
 48 49  1  0
 48 50  1  0
 48 51  1  0
 47  2  1  0
 40  5  1  0
 28 15  1  0
M  END
>  <score>  (425) 
7.48743

$$$$

     RDKit          3D

 58 60  0  0  0  0  0  0  0  0999 V2000
    0.2853  149.1701   51.2319 H   0  0  0  0  0  0  0  0  0  0  0  0
    0.6158  149.5733   52.1832 C   0  0  0  0  0  0  0  0  0  0  0  0
   -0.1863  150.4731   52.9070 C   0  0  0  0  0  0  0  0  0  0  0  0
   -1.9163  150.9761   52.2642 Br  0  0  0  0  0  0  0  0  0  0  0  0
    0.3078  151.0327   54.0970 C   0  0  0  0  0  0  0  0  0  0  0  0
   -0.3832  151.9732   54.8007 O   0  0  0  0  0  0  0  0  0  0  0  0
   -1.4191  151.4053   55.6014 C   0  0  0  0  0  0  0  0  0  0  0  0
   -1.9322  152.1937   56.1614 H   0  0  0  0  0  0  0  0  0  0  0  0
   -2.1473  150.8868   54.9729 H   0  0  0  0  0  0  0  0  0  0  0  0
   -1.0066  150.6874   56.3128 H   0  0  0  0  0  0  0  0  0  0  0  0
    1.5594  150.6698   54.5766 C   0  0  0  0  0  0  0  0  0  0  0  0
    1.9368  151.1273   55.4916 H   0  0  0  0  0  0  0  0  0  0  0  0
    2.3355  149.7535   53.8731 C   0  0  0  0  0  0  0  0  0  0  0  0
    3.6852  149.4283   54.4200 C   0  0  0  0  0  0  0  0  0  0  0  0
    4.4126  149.4079   53.6104 H   0  0  0  0  0  0  0  0  0  0  0  0
    3.9426  150.2197   55.1065 H   0  0  0  0  0  0  0  0  0  0  0  0
    3.7258  148.1240   55.1881 C   0  0  0  0  0  0  0  0  0  0  0  0
    3.8058  148.1422   56.4024 O   0  0  0  0  0  0  0  0  0  0  0  0
    3.6931  146.9398   54.5300 N   0  0  0  0  0  0  0  0  0  0  0  0
    3.3984  146.9306   53.5688 H   0  0  0  0  0  0  0  0  0  0  0  0
    3.5492  145.7562   55.1297 C   0  0  0  0  0  0  0  0  0  0  0  0
    3.0667  144.9210   54.2436 N   0  0  0  0  0  0  0  0  0  0  0  0
    2.9173  143.6546   54.6117 C   0  0  0  0  0  0  0  0  0  0  0  0
    2.4287  142.7278   53.7335 O   0  0  0  0  0  0  0  0  0  0  0  0
    2.0614  143.1691   52.4274 C   0  0  0  0  0  0  0  0  0  0  0  0
    1.4962  144.1102   52.4885 H   0  0  0  0  0  0  0  0  0  0  0  0
    3.3098  143.3338   51.5454 C   0  0  0  0  0  0  0  0  0  0  0  0
    3.9234  144.1520   51.9166 H   0  0  0  0  0  0  0  0  0  0  0  0
    3.9098  142.4238   51.6045 H   0  0  0  0  0  0  0  0  0  0  0  0
    2.9385  143.5744   50.0759 C   0  0  0  0  0  0  0  0  0  0  0  0
    2.3931  144.5192   49.9727 H   0  0  0  0  0  0  0  0  0  0  0  0
    3.8359  143.6554   49.4550 H   0  0  0  0  0  0  0  0  0  0  0  0
    2.0710  142.4765   49.6127 N   0  0  0  0  0  0  0  0  0  0  0  0
    2.7019  141.1916   49.2348 C   0  0  0  0  0  0  0  0  0  0  0  0
    1.9480  140.5195   48.8015 H   0  0  0  0  0  0  0  0  0  0  0  0
    3.1565  140.7045   50.1042 H   0  0  0  0  0  0  0  0  0  0  0  0
    3.4923  141.3440   48.4892 H   0  0  0  0  0  0  0  0  0  0  0  0
    0.8404  142.4106   50.4051 C   0  0  0  0  0  0  0  0  0  0  0  0
    0.1385  141.6956   49.9793 H   0  0  0  0  0  0  0  0  0  0  0  0
    0.3853  143.3997   50.3982 H   0  0  0  0  0  0  0  0  0  0  0  0
    1.1711  142.0757   51.8450 C   0  0  0  0  0  0  0  0  0  0  0  0
    1.6956  141.1213   51.8897 H   0  0  0  0  0  0  0  0  0  0  0  0
    0.2573  141.9901   52.4288 H   0  0  0  0  0  0  0  0  0  0  0  0
    3.2523  143.2179   55.8663 C   0  0  0  0  0  0  0  0  0  0  0  0
    3.1412  141.8377   56.1982 C   0  0  0  0  0  0  0  0  0  0  0  0
    3.0657  140.7055   56.4405 N   0  0  0  0  0  0  0  0  0  0  0  0
    3.7312  144.1389   56.7505 C   0  0  0  0  0  0  0  0  0  0  0  0
    4.1178  143.7737   57.9768 N   0  0  0  0  0  0  0  0  0  0  0  0
    4.0571  142.7962   58.2348 H   0  0  0  0  0  0  0  0  0  0  0  0
    4.4660  144.4808   58.6217 H   0  0  0  0  0  0  0  0  0  0  0  0
    3.8749  145.4402   56.4197 C   0  0  0  0  0  0  0  0  0  0  0  0
    4.2629  146.1507   57.1380 H   0  0  0  0  0  0  0  0  0  0  0  0
    1.8888  149.2160   52.6602 C   0  0  0  0  0  0  0  0  0  0  0  0
    2.7533  148.4036   51.9690 O   0  0  0  0  0  0  0  0  0  0  0  0
    2.1452  147.3128   51.2779 C   0  0  0  0  0  0  0  0  0  0  0  0
    1.4601  146.7839   51.9440 H   0  0  0  0  0  0  0  0  0  0  0  0
    2.9117  146.6081   50.9452 H   0  0  0  0  0  0  0  0  0  0  0  0
    1.5924  147.6627   50.4034 H   0  0  0  0  0  0  0  0  0  0  0  0
  1  2  1  0
  2  3  2  0
  3  4  1  0
  3  5  1  0
  5  6  1  0
  6  7  1  0
  7  8  1  0
  7  9  1  0
  7 10  1  0
  5 11  2  0
 11 12  1  0
 11 13  1  0
 13 14  1  0
 14 15  1  0
 14 16  1  0
 14 17  1  0
 17 18  2  0
 17 19  1  0
 19 20  1  0
 19 21  1  0
 21 22  2  0
 22 23  1  0
 23 24  1  0
 24 25  1  0
 25 26  1  0
 25 27  1  0
 27 28  1  0
 27 29  1  0
 27 30  1  0
 30 31  1  0
 30 32  1  0
 30 33  1  0
 33 34  1  0
 34 35  1  0
 34 36  1  0
 34 37  1  0
 33 38  1  0
 38 39  1  0
 38 40  1  0
 38 41  1  0
 41 42  1  0
 41 43  1  0
 23 44  2  0
 44 45  1  0
 45 46  3  0
 44 47  1  0
 47 48  1  0
 48 49  1  0
 48 50  1  0
 47 51  2  0
 51 52  1  0
 13 53  2  0
 53 54  1  0
 54 55  1  0
 55 56  1  0
 55 57  1  0
 55 58  1  0
 53  2  1  0
 51 21  1  0
 41 25  1  0
M  END
>  <score>  (426) 
7.48921

$$$$

     RDKit          3D

 59 61  0  0  0  0  0  0  0  0999 V2000
    0.2256  149.1031   51.2681 H   0  0  0  0  0  0  0  0  0  0  0  0
    0.5884  149.5441   52.1902 C   0  0  0  0  0  0  0  0  0  0  0  0
   -0.2323  150.4625   52.8659 C   0  0  0  0  0  0  0  0  0  0  0  0
   -1.9687  150.9008   52.1832 Br  0  0  0  0  0  0  0  0  0  0  0  0
    0.2326  151.0586   54.0450 C   0  0  0  0  0  0  0  0  0  0  0  0
   -0.4850  152.0051   54.7186 O   0  0  0  0  0  0  0  0  0  0  0  0
   -1.4747  151.4037   55.5424 C   0  0  0  0  0  0  0  0  0  0  0  0
   -2.2211  150.8980   54.9224 H   0  0  0  0  0  0  0  0  0  0  0  0
   -1.9646  152.1728   56.1436 H   0  0  0  0  0  0  0  0  0  0  0  0
   -1.0115  150.6737   56.2115 H   0  0  0  0  0  0  0  0  0  0  0  0
    1.4750  150.6963   54.5483 C   0  0  0  0  0  0  0  0  0  0  0  0
    1.7949  151.1345   55.4860 H   0  0  0  0  0  0  0  0  0  0  0  0
    2.3143  149.8123   53.8713 C   0  0  0  0  0  0  0  0  0  0  0  0
    3.6685  149.5867   54.4881 C   0  0  0  0  0  0  0  0  0  0  0  0
    4.4404  149.5823   53.7151 H   0  0  0  0  0  0  0  0  0  0  0  0
    3.8456  150.4244   55.1520 H   0  0  0  0  0  0  0  0  0  0  0  0
    3.7614  148.3073   55.3030 C   0  0  0  0  0  0  0  0  0  0  0  0
    3.8025  148.3102   56.5205 O   0  0  0  0  0  0  0  0  0  0  0  0
    3.8159  147.1465   54.6111 N   0  0  0  0  0  0  0  0  0  0  0  0
    3.5473  147.1838   53.6398 H   0  0  0  0  0  0  0  0  0  0  0  0
    3.7336  145.9242   55.1646 C   0  0  0  0  0  0  0  0  0  0  0  0
    3.3763  145.0882   54.2187 N   0  0  0  0  0  0  0  0  0  0  0  0
    3.2205  143.7684   54.4716 C   0  0  0  0  0  0  0  0  0  0  0  0
    2.8064  142.8524   53.2971 C   0  0  0  0  0  0  0  0  0  0  0  0
    2.7577  141.6262   53.4394 O   0  0  0  0  0  0  0  0  0  0  0  0
    2.4207  143.3737   52.0437 N   0  0  0  0  0  0  0  0  0  0  0  0
    2.5651  144.3703   51.8927 H   0  0  0  0  0  0  0  0  0  0  0  0
    1.7635  142.6452   50.9515 C   0  0  0  0  0  0  0  0  0  0  0  0
    0.8235  142.2040   51.3075 H   0  0  0  0  0  0  0  0  0  0  0  0
    2.6812  141.5328   50.4384 C   0  0  0  0  0  0  0  0  0  0  0  0
    3.6643  141.9317   50.1785 H   0  0  0  0  0  0  0  0  0  0  0  0
    2.8180  140.8032   51.2355 H   0  0  0  0  0  0  0  0  0  0  0  0
    2.0866  140.8403   49.2139 C   0  0  0  0  0  0  0  0  0  0  0  0
    2.7470  140.0477   48.8528 H   0  0  0  0  0  0  0  0  0  0  0  0
    1.1457  140.3890   49.5074 H   0  0  0  0  0  0  0  0  0  0  0  0
    1.8234  141.8333   48.0922 C   0  0  0  0  0  0  0  0  0  0  0  0
    1.3921  141.3172   47.2310 H   0  0  0  0  0  0  0  0  0  0  0  0
    2.7598  142.2964   47.7777 H   0  0  0  0  0  0  0  0  0  0  0  0
    0.8438  142.8872   48.5768 C   0  0  0  0  0  0  0  0  0  0  0  0
   -0.0851  142.3580   48.7920 H   0  0  0  0  0  0  0  0  0  0  0  0
    0.6340  143.6126   47.7846 H   0  0  0  0  0  0  0  0  0  0  0  0
    1.3900  143.6214   49.8180 C   0  0  0  0  0  0  0  0  0  0  0  0
    2.2679  144.2010   49.5172 H   0  0  0  0  0  0  0  0  0  0  0  0
    0.6431  144.3348   50.1797 H   0  0  0  0  0  0  0  0  0  0  0  0
    3.4051  143.3248   55.8058 C   0  0  0  0  0  0  0  0  0  0  0  0
    3.2269  141.9503   56.1598 C   0  0  0  0  0  0  0  0  0  0  0  0
    3.0884  140.8194   56.3923 N   0  0  0  0  0  0  0  0  0  0  0  0
    3.7672  144.2443   56.7844 C   0  0  0  0  0  0  0  0  0  0  0  0
    3.9527  143.8720   58.0846 N   0  0  0  0  0  0  0  0  0  0  0  0
    4.4611  144.5297   58.6707 H   0  0  0  0  0  0  0  0  0  0  0  0
    4.1179  142.8833   58.2572 H   0  0  0  0  0  0  0  0  0  0  0  0
    3.9665  145.5627   56.4650 C   0  0  0  0  0  0  0  0  0  0  0  0
    4.2741  146.2916   57.2020 H   0  0  0  0  0  0  0  0  0  0  0  0
    1.8781  149.2222   52.6686 C   0  0  0  0  0  0  0  0  0  0  0  0
    2.7217  148.3685   51.9981 O   0  0  0  0  0  0  0  0  0  0  0  0
    2.0848  147.3206   51.2604 C   0  0  0  0  0  0  0  0  0  0  0  0
    2.8514  146.6280   50.8993 H   0  0  0  0  0  0  0  0  0  0  0  0
    1.3873  146.7684   51.9024 H   0  0  0  0  0  0  0  0  0  0  0  0
    1.5403  147.7260   50.4007 H   0  0  0  0  0  0  0  0  0  0  0  0
  1  2  1  0
  2  3  2  0
  3  4  1  0
  3  5  1  0
  5  6  1  0
  6  7  1  0
  7  8  1  0
  7  9  1  0
  7 10  1  0
  5 11  2  0
 11 12  1  0
 11 13  1  0
 13 14  1  0
 14 15  1  0
 14 16  1  0
 14 17  1  0
 17 18  2  0
 17 19  1  0
 19 20  1  0
 19 21  1  0
 21 22  2  0
 22 23  1  0
 23 24  1  0
 24 25  2  0
 24 26  1  0
 26 27  1  0
 26 28  1  0
 28 29  1  0
 28 30  1  0
 30 31  1  0
 30 32  1  0
 30 33  1  0
 33 34  1  0
 33 35  1  0
 33 36  1  0
 36 37  1  0
 36 38  1  0
 36 39  1  0
 39 40  1  0
 39 41  1  0
 39 42  1  0
 42 43  1  0
 42 44  1  0
 23 45  2  0
 45 46  1  0
 46 47  3  0
 45 48  1  0
 48 49  1  0
 49 50  1  0
 49 51  1  0
 48 52  2  0
 52 53  1  0
 13 54  2  0
 54 55  1  0
 55 56  1  0
 56 57  1  0
 56 58  1  0
 56 59  1  0
 54  2  1  0
 52 21  1  0
 42 28  1  0
M  END
>  <score>  (427) 
7.49256

$$$$

     RDKit          3D

 62 64  0  0  0  0  0  0  0  0999 V2000
    0.2472  149.1398   51.2480 H   0  0  0  0  0  0  0  0  0  0  0  0
    0.6005  149.5569   52.1838 C   0  0  0  0  0  0  0  0  0  0  0  0
   -0.2070  150.4650   52.8894 C   0  0  0  0  0  0  0  0  0  0  0  0
   -1.9441  150.9391   52.2235 Br  0  0  0  0  0  0  0  0  0  0  0  0
    0.2787  151.0445   54.0709 C   0  0  0  0  0  0  0  0  0  0  0  0
   -0.4251  151.9908   54.7588 O   0  0  0  0  0  0  0  0  0  0  0  0
   -1.4417  151.4030   55.5616 C   0  0  0  0  0  0  0  0  0  0  0  0
   -1.9396  152.1811   56.1434 H   0  0  0  0  0  0  0  0  0  0  0  0
   -2.1786  150.8965   54.9316 H   0  0  0  0  0  0  0  0  0  0  0  0
   -1.0053  150.6777   56.2520 H   0  0  0  0  0  0  0  0  0  0  0  0
    1.5186  150.6592   54.5621 C   0  0  0  0  0  0  0  0  0  0  0  0
    1.8645  151.0969   55.4893 H   0  0  0  0  0  0  0  0  0  0  0  0
    2.3254  149.7586   53.8691 C   0  0  0  0  0  0  0  0  0  0  0  0
    3.6683  149.4319   54.4570 C   0  0  0  0  0  0  0  0  0  0  0  0
    3.8997  150.1881   55.2019 H   0  0  0  0  0  0  0  0  0  0  0  0
    4.4326  149.4426   53.6706 H   0  0  0  0  0  0  0  0  0  0  0  0
    3.6793  148.1105   55.1967 C   0  0  0  0  0  0  0  0  0  0  0  0
    3.7821  148.0820   56.4107 O   0  0  0  0  0  0  0  0  0  0  0  0
    3.6579  146.9548   54.4910 N   0  0  0  0  0  0  0  0  0  0  0  0
    3.3261  146.9651   53.5370 H   0  0  0  0  0  0  0  0  0  0  0  0
    3.5620  145.7669   55.0738 C   0  0  0  0  0  0  0  0  0  0  0  0
    3.1136  144.9513   54.1782 N   0  0  0  0  0  0  0  0  0  0  0  0
    3.0106  143.6972   54.5462 C   0  0  0  0  0  0  0  0  0  0  0  0
    2.5204  142.8899   53.5588 N   0  0  0  0  0  0  0  0  0  0  0  0
    3.4368  142.0173   52.8159 C   0  0  0  0  0  0  0  0  0  0  0  0
    3.9212  141.3245   53.5167 H   0  0  0  0  0  0  0  0  0  0  0  0
    4.2164  142.6070   52.3153 H   0  0  0  0  0  0  0  0  0  0  0  0
    2.6356  141.2034   51.7979 C   0  0  0  0  0  0  0  0  0  0  0  0
    2.0306  140.4791   52.3506 H   0  0  0  0  0  0  0  0  0  0  0  0
    3.3231  140.6336   51.1729 H   0  0  0  0  0  0  0  0  0  0  0  0
    1.7017  142.0591   50.9067 C   0  0  0  0  0  0  0  0  0  0  0  0
    0.8317  141.4339   50.6672 H   0  0  0  0  0  0  0  0  0  0  0  0
    2.3720  142.4604   49.6656 N   0  0  0  0  0  0  0  0  0  0  0  0
    3.6353  143.2069   49.8325 C   0  0  0  0  0  0  0  0  0  0  0  0
    3.8947  143.7297   48.9088 H   0  0  0  0  0  0  0  0  0  0  0  0
    4.4551  142.5305   50.0915 H   0  0  0  0  0  0  0  0  0  0  0  0
    3.5375  143.9493   50.6313 H   0  0  0  0  0  0  0  0  0  0  0  0
    2.3079  141.4948   48.5553 C   0  0  0  0  0  0  0  0  0  0  0  0
    1.2737  141.1709   48.3973 H   0  0  0  0  0  0  0  0  0  0  0  0
    2.9207  140.6128   48.7633 H   0  0  0  0  0  0  0  0  0  0  0  0
    2.6638  141.9570   47.6309 H   0  0  0  0  0  0  0  0  0  0  0  0
    1.1995  143.3496   51.5708 C   0  0  0  0  0  0  0  0  0  0  0  0
    0.2025  143.5948   51.1943 H   0  0  0  0  0  0  0  0  0  0  0  0
    1.8491  144.2019   51.3473 H   0  0  0  0  0  0  0  0  0  0  0  0
    1.1669  143.1543   53.0646 C   0  0  0  0  0  0  0  0  0  0  0  0
    0.5813  142.2709   53.2857 H   0  0  0  0  0  0  0  0  0  0  0  0
    0.7015  144.0222   53.5513 H   0  0  0  0  0  0  0  0  0  0  0  0
    3.3253  143.2160   55.7976 C   0  0  0  0  0  0  0  0  0  0  0  0
    3.1948  141.8391   56.1147 C   0  0  0  0  0  0  0  0  0  0  0  0
    3.1025  140.6949   56.3066 N   0  0  0  0  0  0  0  0  0  0  0  0
    3.7498  144.1276   56.7139 C   0  0  0  0  0  0  0  0  0  0  0  0
    4.0649  143.7768   57.9789 N   0  0  0  0  0  0  0  0  0  0  0  0
    4.0841  142.7942   58.2477 H   0  0  0  0  0  0  0  0  0  0  0  0
    4.4329  144.4908   58.6031 H   0  0  0  0  0  0  0  0  0  0  0  0
    3.8754  145.4326   56.3667 C   0  0  0  0  0  0  0  0  0  0  0  0
    4.2216  146.1563   57.0804 H   0  0  0  0  0  0  0  0  0  0  0  0
    1.8795  149.2110   52.6563 C   0  0  0  0  0  0  0  0  0  0  0  0
    2.7283  148.3761   51.9740 O   0  0  0  0  0  0  0  0  0  0  0  0
    2.1047  147.3067   51.2646 C   0  0  0  0  0  0  0  0  0  0  0  0
    1.5667  147.6879   50.3911 H   0  0  0  0  0  0  0  0  0  0  0  0
    2.8750  146.6053   50.9288 H   0  0  0  0  0  0  0  0  0  0  0  0
    1.4070  146.7737   51.9202 H   0  0  0  0  0  0  0  0  0  0  0  0
  1  2  1  0
  2  3  2  0
  3  4  1  0
  3  5  1  0
  5  6  1  0
  6  7  1  0
  7  8  1  0
  7  9  1  0
  7 10  1  0
  5 11  2  0
 11 12  1  0
 11 13  1  0
 13 14  1  0
 14 15  1  0
 14 16  1  0
 14 17  1  0
 17 18  2  0
 17 19  1  0
 19 20  1  0
 19 21  1  0
 21 22  2  0
 22 23  1  0
 23 24  1  0
 24 25  1  0
 25 26  1  0
 25 27  1  0
 25 28  1  0
 28 29  1  0
 28 30  1  0
 28 31  1  0
 31 32  1  0
 31 33  1  0
 33 34  1  0
 34 35  1  0
 34 36  1  0
 34 37  1  0
 33 38  1  0
 38 39  1  0
 38 40  1  0
 38 41  1  0
 31 42  1  0
 42 43  1  0
 42 44  1  0
 42 45  1  0
 45 46  1  0
 45 47  1  0
 23 48  2  0
 48 49  1  0
 49 50  3  0
 48 51  1  0
 51 52  1  0
 52 53  1  0
 52 54  1  0
 51 55  2  0
 55 56  1  0
 13 57  2  0
 57 58  1  0
 58 59  1  0
 59 60  1  0
 59 61  1  0
 59 62  1  0
 57  2  1  0
 55 21  1  0
 45 24  1  0
M  END
>  <score>  (428) 
7.4976

$$$$

     RDKit          3D

 61 64  0  0  0  0  0  0  0  0999 V2000
   -1.4187  142.7975   47.1130 H   0  0  0  0  0  0  0  0  0  0  0  0
   -0.5234  142.9185   47.7151 C   0  0  0  0  0  0  0  0  0  0  0  0
   -0.2536  144.1502   48.3213 C   0  0  0  0  0  0  0  0  0  0  0  0
   -0.9472  144.9734   48.2001 H   0  0  0  0  0  0  0  0  0  0  0  0
    0.9095  144.3296   49.0815 C   0  0  0  0  0  0  0  0  0  0  0  0
    1.1084  145.2928   49.5428 H   0  0  0  0  0  0  0  0  0  0  0  0
    1.8391  143.2889   49.2057 C   0  0  0  0  0  0  0  0  0  0  0  0
    3.1420  143.5187   49.9331 C   0  0  2  0  0  0  0  0  0  0  0  0
    3.8171  144.2196   49.4295 H   0  0  0  0  0  0  0  0  0  0  0  0
    3.7994  142.3820   50.7159 C   0  0  0  0  0  0  0  0  0  0  0  0
    4.8908  142.3188   50.7212 H   0  0  0  0  0  0  0  0  0  0  0  0
    3.2618  141.4321   50.7869 H   0  0  0  0  0  0  0  0  0  0  0  0
    3.1862  143.5531   51.4484 C   0  0  2  0  0  0  0  0  0  0  0  0
    3.8816  144.2721   51.8921 H   0  0  0  0  0  0  0  0  0  0  0  0
    2.0060  143.2191   52.2434 N   0  0  0  0  0  0  0  0  0  0  0  0
    1.3338  143.9893   52.2254 H   0  0  0  0  0  0  0  0  0  0  0  0
    2.3141  142.7534   53.6310 C   0  0  0  0  0  0  0  0  0  0  0  0
    3.0097  141.9153   53.5530 H   0  0  0  0  0  0  0  0  0  0  0  0
    1.3945  142.3624   54.0584 H   0  0  0  0  0  0  0  0  0  0  0  0
    2.9200  143.7186   54.6674 C   0  0  0  0  0  0  0  0  0  0  0  0
    3.1145  144.9952   54.3416 N   0  0  0  0  0  0  0  0  0  0  0  0
    3.6179  145.8115   55.2250 C   0  0  0  0  0  0  0  0  0  0  0  0
    3.7455  146.9863   54.6001 N   0  0  0  0  0  0  0  0  0  0  0  0
    3.4120  146.9609   53.6499 H   0  0  0  0  0  0  0  0  0  0  0  0
    3.7294  148.1751   55.2434 C   0  0  0  0  0  0  0  0  0  0  0  0
    3.8056  148.2135   56.4570 O   0  0  0  0  0  0  0  0  0  0  0  0
    3.6823  149.4570   54.4412 C   0  0  0  0  0  0  0  0  0  0  0  0
    3.9214  150.2498   55.1361 H   0  0  0  0  0  0  0  0  0  0  0  0
    4.4265  149.4393   53.6408 H   0  0  0  0  0  0  0  0  0  0  0  0
    2.3287  149.7567   53.8743 C   0  0  0  0  0  0  0  0  0  0  0  0
    1.5339  150.6596   54.5719 C   0  0  0  0  0  0  0  0  0  0  0  0
    1.8954  151.1076   55.4924 H   0  0  0  0  0  0  0  0  0  0  0  0
    0.2903  151.0363   54.0819 C   0  0  0  0  0  0  0  0  0  0  0  0
   -0.4052  151.9824   54.7750 O   0  0  0  0  0  0  0  0  0  0  0  0
   -1.4295  151.4046   55.5797 C   0  0  0  0  0  0  0  0  0  0  0  0
   -1.0048  150.6821   56.2796 H   0  0  0  0  0  0  0  0  0  0  0  0
   -1.9360  152.1856   56.1525 H   0  0  0  0  0  0  0  0  0  0  0  0
   -2.1614  150.8930   54.9498 H   0  0  0  0  0  0  0  0  0  0  0  0
   -0.2012  150.4672   52.8955 C   0  0  0  0  0  0  0  0  0  0  0  0
   -1.9365  150.9580   52.2414 Br  0  0  0  0  0  0  0  0  0  0  0  0
    0.6044  149.5628   52.1832 C   0  0  0  0  0  0  0  0  0  0  0  0
    0.2640  149.1547   51.2367 H   0  0  0  0  0  0  0  0  0  0  0  0
    1.8809  149.2114   52.6619 C   0  0  0  0  0  0  0  0  0  0  0  0
    2.7388  148.3913   51.9714 O   0  0  0  0  0  0  0  0  0  0  0  0
    2.1257  147.3102   51.2682 C   0  0  0  0  0  0  0  0  0  0  0  0
    1.4393  146.7766   51.9316 H   0  0  0  0  0  0  0  0  0  0  0  0
    2.8923  146.6080   50.9268 H   0  0  0  0  0  0  0  0  0  0  0  0
    1.5745  147.6760   50.3978 H   0  0  0  0  0  0  0  0  0  0  0  0
    3.9352  145.4710   56.5139 C   0  0  0  0  0  0  0  0  0  0  0  0
    4.3200  146.1783   57.2287 H   0  0  0  0  0  0  0  0  0  0  0  0
    3.7775  144.1620   56.8524 C   0  0  0  0  0  0  0  0  0  0  0  0
    4.1545  143.7835   58.0987 N   0  0  0  0  0  0  0  0  0  0  0  0
    4.1073  142.8030   58.3682 H   0  0  0  0  0  0  0  0  0  0  0  0
    4.4974  144.4885   58.7482 H   0  0  0  0  0  0  0  0  0  0  0  0
    3.2776  143.2624   55.9376 C   0  0  0  0  0  0  0  0  0  0  0  0
    3.1667  141.8809   56.2648 C   0  0  0  0  0  0  0  0  0  0  0  0
    3.0978  140.7428   56.4843 N   0  0  0  0  0  0  0  0  0  0  0  0
    1.5727  142.0648   48.5769 C   0  0  0  0  0  0  0  0  0  0  0  0
    2.3117  141.2727   48.6267 H   0  0  0  0  0  0  0  0  0  0  0  0
    0.3801  141.8633   47.8723 C   0  0  0  0  0  0  0  0  0  0  0  0
    0.1949  140.9044   47.4000 H   0  0  0  0  0  0  0  0  0  0  0  0
  1  2  1  0
  2  3  2  0
  3  4  1  0
  3  5  1  0
  5  6  1  0
  5  7  2  0
  7  8  1  0
  8  9  1  6
  8 10  1  0
 10 11  1  0
 10 12  1  0
 10 13  1  0
 13 14  1  6
 13 15  1  0
 15 16  1  0
 15 17  1  0
 17 18  1  0
 17 19  1  0
 17 20  1  0
 20 21  2  0
 21 22  1  0
 22 23  1  0
 23 24  1  0
 23 25  1  0
 25 26  2  0
 25 27  1  0
 27 28  1  0
 27 29  1  0
 27 30  1  0
 30 31  2  0
 31 32  1  0
 31 33  1  0
 33 34  1  0
 34 35  1  0
 35 36  1  0
 35 37  1  0
 35 38  1  0
 33 39  2  0
 39 40  1  0
 39 41  1  0
 41 42  1  0
 41 43  2  0
 43 44  1  0
 44 45  1  0
 45 46  1  0
 45 47  1  0
 45 48  1  0
 22 49  2  0
 49 50  1  0
 49 51  1  0
 51 52  1  0
 52 53  1  0
 52 54  1  0
 51 55  2  0
 55 56  1  0
 56 57  3  0
  7 58  1  0
 58 59  1  0
 58 60  2  0
 60 61  1  0
 60  2  1  0
 13  8  1  0
 55 20  1  0
 43 30  1  0
M  END
>  <score>  (429) 
7.50321

$$$$

     RDKit          3D

 52 54  0  0  0  0  0  0  0  0999 V2000
    4.4340  143.2188   49.5593 H   0  0  0  0  0  0  0  0  0  0  0  0
    4.2361  142.5966   50.4277 C   0  0  0  0  0  0  0  0  0  0  0  0
    3.5341  143.1089   51.5314 C   0  0  0  0  0  0  0  0  0  0  0  0
    3.1802  144.1329   51.5434 H   0  0  0  0  0  0  0  0  0  0  0  0
    3.2615  142.3024   52.6401 C   0  0  0  0  0  0  0  0  0  0  0  0
    2.3803  142.8132   53.7509 C   0  0  0  0  0  0  0  0  0  0  0  0
    1.9781  141.9705   54.3143 H   0  0  0  0  0  0  0  0  0  0  0  0
    1.5280  143.3552   53.3314 H   0  0  0  0  0  0  0  0  0  0  0  0
    3.0737  143.7303   54.7108 C   0  0  0  0  0  0  0  0  0  0  0  0
    3.1922  145.0051   54.3419 N   0  0  0  0  0  0  0  0  0  0  0  0
    3.6300  145.8786   55.2223 C   0  0  0  0  0  0  0  0  0  0  0  0
    3.6846  147.0980   54.6542 N   0  0  0  0  0  0  0  0  0  0  0  0
    3.4901  147.1059   53.6674 H   0  0  0  0  0  0  0  0  0  0  0  0
    3.6923  148.2841   55.3213 C   0  0  0  0  0  0  0  0  0  0  0  0
    3.7878  148.3075   56.5352 O   0  0  0  0  0  0  0  0  0  0  0  0
    3.6461  149.5734   54.5190 C   0  0  0  0  0  0  0  0  0  0  0  0
    4.4253  149.5603   53.7535 H   0  0  0  0  0  0  0  0  0  0  0  0
    3.8358  150.3972   55.2001 H   0  0  0  0  0  0  0  0  0  0  0  0
    2.3078  149.8288   53.8898 C   0  0  0  0  0  0  0  0  0  0  0  0
    1.4751  150.7481   54.5372 C   0  0  0  0  0  0  0  0  0  0  0  0
    1.8086  151.2357   55.4480 H   0  0  0  0  0  0  0  0  0  0  0  0
    0.2176  151.0675   54.0326 C   0  0  0  0  0  0  0  0  0  0  0  0
   -0.5500  151.9846   54.7015 O   0  0  0  0  0  0  0  0  0  0  0  0
   -1.5363  151.3859   55.5480 C   0  0  0  0  0  0  0  0  0  0  0  0
   -2.0107  152.1572   56.1637 H   0  0  0  0  0  0  0  0  0  0  0  0
   -1.0795  150.6480   56.2129 H   0  0  0  0  0  0  0  0  0  0  0  0
   -2.3082  150.8912   54.9502 H   0  0  0  0  0  0  0  0  0  0  0  0
   -0.2141  150.4540   52.8453 C   0  0  0  0  0  0  0  0  0  0  0  0
   -1.9343  150.8631   52.1101 Br  0  0  0  0  0  0  0  0  0  0  0  0
    0.6234  149.5357   52.1894 C   0  0  0  0  0  0  0  0  0  0  0  0
    0.3022  149.0707   51.2641 H   0  0  0  0  0  0  0  0  0  0  0  0
    1.8874  149.2001   52.7008 C   0  0  0  0  0  0  0  0  0  0  0  0
    2.7158  148.2926   52.0734 O   0  0  0  0  0  0  0  0  0  0  0  0
    2.0705  147.3047   51.2527 C   0  0  0  0  0  0  0  0  0  0  0  0
    1.3495  146.7318   51.8463 H   0  0  0  0  0  0  0  0  0  0  0  0
    2.8137  146.6085   50.8491 H   0  0  0  0  0  0  0  0  0  0  0  0
    1.5471  147.7721   50.4124 H   0  0  0  0  0  0  0  0  0  0  0  0
    3.9601  145.5625   56.5123 C   0  0  0  0  0  0  0  0  0  0  0  0
    4.3281  146.2897   57.2170 H   0  0  0  0  0  0  0  0  0  0  0  0
    3.8217  144.2600   56.8841 C   0  0  0  0  0  0  0  0  0  0  0  0
    4.0867  143.9737   58.1762 N   0  0  0  0  0  0  0  0  0  0  0  0
    4.2251  142.9957   58.4269 H   0  0  0  0  0  0  0  0  0  0  0  0
    4.5463  144.7021   58.7174 H   0  0  0  0  0  0  0  0  0  0  0  0
    3.4079  143.3075   55.9877 C   0  0  0  0  0  0  0  0  0  0  0  0
    3.2661  141.9363   56.3619 C   0  0  0  0  0  0  0  0  0  0  0  0
    3.1274  140.8090   56.6038 N   0  0  0  0  0  0  0  0  0  0  0  0
    3.6945  140.9777   52.6410 C   0  0  0  0  0  0  0  0  0  0  0  0
    3.4372  140.3620   53.5019 H   0  0  0  0  0  0  0  0  0  0  0  0
    4.4084  140.4609   51.5474 C   0  0  0  0  0  0  0  0  0  0  0  0
    4.9590  138.8123   51.5814 Cl  0  0  0  0  0  0  0  0  0  0  0  0
    4.6648  141.2656   50.4209 C   0  0  0  0  0  0  0  0  0  0  0  0
    5.4797  140.6195   49.0031 Cl  0  0  0  0  0  0  0  0  0  0  0  0
  1  2  1  0
  2  3  2  0
  3  4  1  0
  3  5  1  0
  5  6  1  0
  6  7  1  0
  6  8  1  0
  6  9  1  0
  9 10  2  0
 10 11  1  0
 11 12  1  0
 12 13  1  0
 12 14  1  0
 14 15  2  0
 14 16  1  0
 16 17  1  0
 16 18  1  0
 16 19  1  0
 19 20  2  0
 20 21  1  0
 20 22  1  0
 22 23  1  0
 23 24  1  0
 24 25  1  0
 24 26  1  0
 24 27  1  0
 22 28  2  0
 28 29  1  0
 28 30  1  0
 30 31  1  0
 30 32  2  0
 32 33  1  0
 33 34  1  0
 34 35  1  0
 34 36  1  0
 34 37  1  0
 11 38  2  0
 38 39  1  0
 38 40  1  0
 40 41  1  0
 41 42  1  0
 41 43  1  0
 40 44  2  0
 44 45  1  0
 45 46  3  0
  5 47  2  0
 47 48  1  0
 47 49  1  0
 49 50  1  0
 49 51  2  0
 51 52  1  0
 51  2  1  0
 44  9  1  0
 32 19  1  0
M  END
>  <score>  (430) 
7.50339

$$$$

     RDKit          3D

 52 54  0  0  0  0  0  0  0  0999 V2000
    5.7557  139.7599   52.5122 H   0  0  0  0  0  0  0  0  0  0  0  0
    5.0691  140.5365   52.1915 C   0  0  0  0  0  0  0  0  0  0  0  0
    5.0628  140.9697   50.8546 C   0  0  0  0  0  0  0  0  0  0  0  0
    5.7192  140.5000   50.1281 H   0  0  0  0  0  0  0  0  0  0  0  0
    4.2148  142.0111   50.4533 C   0  0  0  0  0  0  0  0  0  0  0  0
    4.2280  142.5802   48.8061 Cl  0  0  0  0  0  0  0  0  0  0  0  0
    3.3514  142.5908   51.3813 C   0  0  0  0  0  0  0  0  0  0  0  0
    2.7209  143.4240   51.0791 H   0  0  0  0  0  0  0  0  0  0  0  0
    3.3210  142.1349   52.7043 C   0  0  0  0  0  0  0  0  0  0  0  0
    2.3721  142.7569   53.6773 C   0  0  0  0  0  0  0  0  0  0  0  0
    1.6199  143.3341   53.1304 H   0  0  0  0  0  0  0  0  0  0  0  0
    1.8672  141.9710   54.2383 H   0  0  0  0  0  0  0  0  0  0  0  0
    3.0533  143.6730   54.6477 C   0  0  0  0  0  0  0  0  0  0  0  0
    3.1856  144.9390   54.2603 N   0  0  0  0  0  0  0  0  0  0  0  0
    3.6263  145.8118   55.1328 C   0  0  0  0  0  0  0  0  0  0  0  0
    3.6932  147.0252   54.5589 N   0  0  0  0  0  0  0  0  0  0  0  0
    3.4245  147.0389   53.5849 H   0  0  0  0  0  0  0  0  0  0  0  0
    3.6787  148.1909   55.2539 C   0  0  0  0  0  0  0  0  0  0  0  0
    3.7843  148.1827   56.4710 O   0  0  0  0  0  0  0  0  0  0  0  0
    3.6423  149.5073   54.5028 C   0  0  0  0  0  0  0  0  0  0  0  0
    4.4246  149.5086   53.7401 H   0  0  0  0  0  0  0  0  0  0  0  0
    3.8376  150.3055   55.2164 H   0  0  0  0  0  0  0  0  0  0  0  0
    2.3060  149.7940   53.8760 C   0  0  0  0  0  0  0  0  0  0  0  0
    1.4822  150.6975   54.5525 C   0  0  0  0  0  0  0  0  0  0  0  0
    1.8099  151.1338   55.4922 H   0  0  0  0  0  0  0  0  0  0  0  0
    0.2407  151.0648   54.0381 C   0  0  0  0  0  0  0  0  0  0  0  0
   -0.5001  151.9968   54.7109 O   0  0  0  0  0  0  0  0  0  0  0  0
   -1.4946  151.3986   55.5416 C   0  0  0  0  0  0  0  0  0  0  0  0
   -1.9791  152.1697   56.1470 H   0  0  0  0  0  0  0  0  0  0  0  0
   -2.2530  150.9035   54.9275 H   0  0  0  0  0  0  0  0  0  0  0  0
   -1.0436  150.6619   56.2128 H   0  0  0  0  0  0  0  0  0  0  0  0
   -0.2177  150.4668   52.8527 C   0  0  0  0  0  0  0  0  0  0  0  0
   -1.9521  150.8886   52.1554 Br  0  0  0  0  0  0  0  0  0  0  0  0
    0.6002  149.5480   52.1755 C   0  0  0  0  0  0  0  0  0  0  0  0
    0.2460  149.0928   51.2555 H   0  0  0  0  0  0  0  0  0  0  0  0
    1.8771  149.2110   52.6655 C   0  0  0  0  0  0  0  0  0  0  0  0
    2.7123  148.3338   52.0089 O   0  0  0  0  0  0  0  0  0  0  0  0
    2.0755  147.3020   51.2423 C   0  0  0  0  0  0  0  0  0  0  0  0
    1.3774  146.7421   51.8726 H   0  0  0  0  0  0  0  0  0  0  0  0
    1.5297  147.7170   50.3885 H   0  0  0  0  0  0  0  0  0  0  0  0
    2.8322  146.6071   50.8643 H   0  0  0  0  0  0  0  0  0  0  0  0
    3.9411  145.5142   56.4345 C   0  0  0  0  0  0  0  0  0  0  0  0
    4.2967  146.2626   57.1251 H   0  0  0  0  0  0  0  0  0  0  0  0
    3.7961  144.2133   56.8232 C   0  0  0  0  0  0  0  0  0  0  0  0
    4.0604  143.9042   58.1146 N   0  0  0  0  0  0  0  0  0  0  0  0
    4.4968  144.6231   58.6864 H   0  0  0  0  0  0  0  0  0  0  0  0
    4.1768  142.9219   58.3572 H   0  0  0  0  0  0  0  0  0  0  0  0
    3.3788  143.2542   55.9315 C   0  0  0  0  0  0  0  0  0  0  0  0
    3.2480  141.8755   56.2877 C   0  0  0  0  0  0  0  0  0  0  0  0
    3.1523  140.7351   56.4893 N   0  0  0  0  0  0  0  0  0  0  0  0
    4.1864  141.1161   53.1115 C   0  0  0  0  0  0  0  0  0  0  0  0
    4.1986  140.8069   54.1555 H   0  0  0  0  0  0  0  0  0  0  0  0
  1  2  1  0
  2  3  2  0
  3  4  1  0
  3  5  1  0
  5  6  1  0
  5  7  2  0
  7  8  1  0
  7  9  1  0
  9 10  1  0
 10 11  1  0
 10 12  1  0
 10 13  1  0
 13 14  2  0
 14 15  1  0
 15 16  1  0
 16 17  1  0
 16 18  1  0
 18 19  2  0
 18 20  1  0
 20 21  1  0
 20 22  1  0
 20 23  1  0
 23 24  2  0
 24 25  1  0
 24 26  1  0
 26 27  1  0
 27 28  1  0
 28 29  1  0
 28 30  1  0
 28 31  1  0
 26 32  2  0
 32 33  1  0
 32 34  1  0
 34 35  1  0
 34 36  2  0
 36 37  1  0
 37 38  1  0
 38 39  1  0
 38 40  1  0
 38 41  1  0
 15 42  2  0
 42 43  1  0
 42 44  1  0
 44 45  1  0
 45 46  1  0
 45 47  1  0
 44 48  2  0
 48 49  1  0
 49 50  3  0
  9 51  2  0
 51 52  1  0
 51  2  1  0
 48 13  1  0
 36 23  1  0
M  END
>  <score>  (431) 
7.51144

$$$$

     RDKit          3D

 51 53  0  0  0  0  0  0  0  0999 V2000
    2.4027  143.5361   48.4362 H   0  0  0  0  0  0  0  0  0  0  0  0
    2.3918  143.4057   49.5135 C   0  0  0  0  0  0  0  0  0  0  0  0
    3.4636  143.8659   50.2853 C   0  0  0  0  0  0  0  0  0  0  0  0
    4.3206  144.3317   49.8026 H   0  0  0  0  0  0  0  0  0  0  0  0
    3.4281  143.6945   51.6734 C   0  0  0  0  0  0  0  0  0  0  0  0
    4.2473  144.0345   52.2859 H   0  0  0  0  0  0  0  0  0  0  0  0
    2.3577  143.0528   52.2968 C   0  0  0  0  0  0  0  0  0  0  0  0
    2.3589  142.8486   53.6725 N   0  0  0  0  0  0  0  0  0  0  0  0
    1.8093  142.0942   54.0557 H   0  0  0  0  0  0  0  0  0  0  0  0
    2.9425  143.6871   54.5897 C   0  0  0  0  0  0  0  0  0  0  0  0
    3.1265  144.9428   54.2345 N   0  0  0  0  0  0  0  0  0  0  0  0
    3.5795  145.7680   55.1379 C   0  0  0  0  0  0  0  0  0  0  0  0
    3.6998  146.9609   54.5484 N   0  0  0  0  0  0  0  0  0  0  0  0
    3.4311  146.9542   53.5785 H   0  0  0  0  0  0  0  0  0  0  0  0
    3.7345  148.1447   55.2110 C   0  0  0  0  0  0  0  0  0  0  0  0
    3.8133  148.1818   56.4210 O   0  0  0  0  0  0  0  0  0  0  0  0
    3.6944  149.4350   54.4144 C   0  0  0  0  0  0  0  0  0  0  0  0
    3.9697  150.2323   55.0849 H   0  0  0  0  0  0  0  0  0  0  0  0
    4.4208  149.3949   53.6063 H   0  0  0  0  0  0  0  0  0  0  0  0
    2.3444  149.7636   53.8708 C   0  0  0  0  0  0  0  0  0  0  0  0
    1.5681  150.6752   54.5814 C   0  0  0  0  0  0  0  0  0  0  0  0
    1.9534  151.1249   55.4995 H   0  0  0  0  0  0  0  0  0  0  0  0
    0.3140  151.0342   54.1057 C   0  0  0  0  0  0  0  0  0  0  0  0
   -0.3820  151.9728   54.8140 O   0  0  0  0  0  0  0  0  0  0  0  0
   -1.4193  151.4061   55.6121 C   0  0  0  0  0  0  0  0  0  0  0  0
   -2.1450  150.8861   54.9835 H   0  0  0  0  0  0  0  0  0  0  0  0
   -1.0072  150.6901   56.3248 H   0  0  0  0  0  0  0  0  0  0  0  0
   -1.9358  152.1947   56.1687 H   0  0  0  0  0  0  0  0  0  0  0  0
   -0.1771  150.4784   52.9064 C   0  0  0  0  0  0  0  0  0  0  0  0
   -1.9129  150.9805   52.2650 Br  0  0  0  0  0  0  0  0  0  0  0  0
    0.6241  149.5758   52.1830 C   0  0  0  0  0  0  0  0  0  0  0  0
    0.2862  149.1786   51.2310 H   0  0  0  0  0  0  0  0  0  0  0  0
    1.8950  149.2175   52.6572 C   0  0  0  0  0  0  0  0  0  0  0  0
    2.7589  148.4061   51.9611 O   0  0  0  0  0  0  0  0  0  0  0  0
    2.1514  147.3064   51.2772 C   0  0  0  0  0  0  0  0  0  0  0  0
    1.5853  147.6498   50.4074 H   0  0  0  0  0  0  0  0  0  0  0  0
    2.9210  146.6087   50.9340 H   0  0  0  0  0  0  0  0  0  0  0  0
    1.4799  146.7696   51.9530 H   0  0  0  0  0  0  0  0  0  0  0  0
    3.8833  145.4321   56.4326 C   0  0  0  0  0  0  0  0  0  0  0  0
    4.2617  146.1266   57.1691 H   0  0  0  0  0  0  0  0  0  0  0  0
    3.7263  144.1178   56.7485 C   0  0  0  0  0  0  0  0  0  0  0  0
    4.0921  143.7464   57.9903 N   0  0  0  0  0  0  0  0  0  0  0  0
    4.0635  142.7697   58.2658 H   0  0  0  0  0  0  0  0  0  0  0  0
    4.4707  144.4436   58.6244 H   0  0  0  0  0  0  0  0  0  0  0  0
    3.2386  143.2110   55.8421 C   0  0  0  0  0  0  0  0  0  0  0  0
    3.1069  141.8270   56.1518 C   0  0  0  0  0  0  0  0  0  0  0  0
    3.0302  140.6961   56.4145 N   0  0  0  0  0  0  0  0  0  0  0  0
    1.3016  142.5783   51.5187 C   0  0  0  0  0  0  0  0  0  0  0  0
    0.4790  142.0783   52.0164 H   0  0  0  0  0  0  0  0  0  0  0  0
    1.3111  142.7579   50.1257 C   0  0  0  0  0  0  0  0  0  0  0  0
    0.5000  142.3790   49.5093 H   0  0  0  0  0  0  0  0  0  0  0  0
  1  2  1  0
  2  3  2  0
  3  4  1  0
  3  5  1  0
  5  6  1  0
  5  7  2  0
  7  8  1  0
  8  9  1  0
  8 10  1  0
 10 11  2  0
 11 12  1  0
 12 13  1  0
 13 14  1  0
 13 15  1  0
 15 16  2  0
 15 17  1  0
 17 18  1  0
 17 19  1  0
 17 20  1  0
 20 21  2  0
 21 22  1  0
 21 23  1  0
 23 24  1  0
 24 25  1  0
 25 26  1  0
 25 27  1  0
 25 28  1  0
 23 29  2  0
 29 30  1  0
 29 31  1  0
 31 32  1  0
 31 33  2  0
 33 34  1  0
 34 35  1  0
 35 36  1  0
 35 37  1  0
 35 38  1  0
 12 39  2  0
 39 40  1  0
 39 41  1  0
 41 42  1  0
 42 43  1  0
 42 44  1  0
 41 45  2  0
 45 46  1  0
 46 47  3  0
  7 48  1  0
 48 49  1  0
 48 50  2  0
 50 51  1  0
 50  2  1  0
 45 10  1  0
 33 20  1  0
M  END
>  <score>  (432) 
7.51303

$$$$

     RDKit          3D

 59 61  0  0  0  0  0  0  0  0999 V2000
    0.3062  149.2028   51.2519 H   0  0  0  0  0  0  0  0  0  0  0  0
    0.6591  149.6066   52.1958 C   0  0  0  0  0  0  0  0  0  0  0  0
   -0.1448  150.5007   52.9355 C   0  0  0  0  0  0  0  0  0  0  0  0
   -1.8704  150.9848   52.2763 Br  0  0  0  0  0  0  0  0  0  0  0  0
    0.3335  151.0596   54.1322 C   0  0  0  0  0  0  0  0  0  0  0  0
   -0.3796  151.9764   54.8614 O   0  0  0  0  0  0  0  0  0  0  0  0
   -1.4270  151.4044   55.6488 C   0  0  0  0  0  0  0  0  0  0  0  0
   -1.0146  150.7033   56.3755 H   0  0  0  0  0  0  0  0  0  0  0  0
   -2.1531  150.8754   55.0234 H   0  0  0  0  0  0  0  0  0  0  0  0
   -1.9433  152.2012   56.1929 H   0  0  0  0  0  0  0  0  0  0  0  0
    1.5966  150.6912   54.5732 C   0  0  0  0  0  0  0  0  0  0  0  0
    1.9902  151.1463   55.4731 H   0  0  0  0  0  0  0  0  0  0  0  0
    2.3810  149.7860   53.8573 C   0  0  0  0  0  0  0  0  0  0  0  0
    3.7273  149.4758   54.3987 C   0  0  0  0  0  0  0  0  0  0  0  0
    3.9971  150.3536   54.9727 H   0  0  0  0  0  0  0  0  0  0  0  0
    4.4157  149.3584   53.5585 H   0  0  0  0  0  0  0  0  0  0  0  0
    3.7517  148.2143   55.2693 C   0  0  0  0  0  0  0  0  0  0  0  0
    3.8514  148.2721   56.4847 O   0  0  0  0  0  0  0  0  0  0  0  0
    3.7152  146.9998   54.6497 N   0  0  0  0  0  0  0  0  0  0  0  0
    3.5235  146.9564   53.6626 H   0  0  0  0  0  0  0  0  0  0  0  0
    3.5498  145.8037   55.2359 C   0  0  0  0  0  0  0  0  0  0  0  0
    3.0708  144.9817   54.3257 N   0  0  0  0  0  0  0  0  0  0  0  0
    2.9201  143.6911   54.6330 C   0  0  0  0  0  0  0  0  0  0  0  0
    2.3829  142.7402   53.5641 C   0  0  0  0  0  0  0  0  0  0  0  0
    1.8596  141.9748   54.1361 H   0  0  0  0  0  0  0  0  0  0  0  0
    3.5400  142.0738   52.7802 C   0  0  0  0  0  0  0  0  0  0  0  0
    4.0295  141.3303   53.4194 H   0  0  0  0  0  0  0  0  0  0  0  0
    4.2690  142.8450   52.5040 H   0  0  0  0  0  0  0  0  0  0  0  0
    3.0879  141.3925   51.4832 C   0  0  0  0  0  0  0  0  0  0  0  0
    2.4289  140.5490   51.7072 H   0  0  0  0  0  0  0  0  0  0  0  0
    3.9788  141.0057   50.9748 H   0  0  0  0  0  0  0  0  0  0  0  0
    2.4041  142.3447   50.6070 N   0  0  0  0  0  0  0  0  0  0  0  0
    2.2669  142.0536   49.2532 C   0  0  0  0  0  0  0  0  0  0  0  0
    2.5459  140.9371   48.8377 O   0  0  0  0  0  0  0  0  0  0  0  0
    1.8732  143.1152   48.2356 C   0  0  0  0  0  0  0  0  0  0  0  0
    2.1354  142.7715   47.2294 H   0  0  0  0  0  0  0  0  0  0  0  0
    0.7977  143.3109   48.2760 H   0  0  0  0  0  0  0  0  0  0  0  0
    2.4178  144.0421   48.4391 H   0  0  0  0  0  0  0  0  0  0  0  0
    1.9297  143.6109   51.1650 C   0  0  0  0  0  0  0  0  0  0  0  0
    1.1462  144.0338   50.5227 H   0  0  0  0  0  0  0  0  0  0  0  0
    2.7525  144.3332   51.2251 H   0  0  0  0  0  0  0  0  0  0  0  0
    1.3553  143.3688   52.5738 C   0  0  0  0  0  0  0  0  0  0  0  0
    0.9781  144.3147   52.9769 H   0  0  0  0  0  0  0  0  0  0  0  0
    0.5060  142.6824   52.4756 H   0  0  0  0  0  0  0  0  0  0  0  0
    3.2617  143.2131   55.8981 C   0  0  0  0  0  0  0  0  0  0  0  0
    3.1395  141.8305   56.2260 C   0  0  0  0  0  0  0  0  0  0  0  0
    3.0397  140.6926   56.4504 N   0  0  0  0  0  0  0  0  0  0  0  0
    3.7458  144.1164   56.8129 C   0  0  0  0  0  0  0  0  0  0  0  0
    4.1491  143.7229   58.0337 N   0  0  0  0  0  0  0  0  0  0  0  0
    4.5023  144.4270   58.6762 H   0  0  0  0  0  0  0  0  0  0  0  0
    4.0639  142.7452   58.3024 H   0  0  0  0  0  0  0  0  0  0  0  0
    3.8938  145.4367   56.5097 C   0  0  0  0  0  0  0  0  0  0  0  0
    4.3137  146.1282   57.2265 H   0  0  0  0  0  0  0  0  0  0  0  0
    1.9350  149.2396   52.6488 C   0  0  0  0  0  0  0  0  0  0  0  0
    2.7765  148.4044   51.9476 O   0  0  0  0  0  0  0  0  0  0  0  0
    2.1685  147.2970   51.2791 C   0  0  0  0  0  0  0  0  0  0  0  0
    1.5727  147.6426   50.4296 H   0  0  0  0  0  0  0  0  0  0  0  0
    2.9573  146.6303   50.9137 H   0  0  0  0  0  0  0  0  0  0  0  0
    1.5294  146.7312   51.9656 H   0  0  0  0  0  0  0  0  0  0  0  0
  1  2  1  0
  2  3  2  0
  3  4  1  0
  3  5  1  0
  5  6  1  0
  6  7  1  0
  7  8  1  0
  7  9  1  0
  7 10  1  0
  5 11  2  0
 11 12  1  0
 11 13  1  0
 13 14  1  0
 14 15  1  0
 14 16  1  0
 14 17  1  0
 17 18  2  0
 17 19  1  0
 19 20  1  0
 19 21  1  0
 21 22  2  0
 22 23  1  0
 23 24  1  0
 24 25  1  0
 24 26  1  0
 26 27  1  0
 26 28  1  0
 26 29  1  0
 29 30  1  0
 29 31  1  0
 29 32  1  0
 32 33  1  0
 33 34  2  0
 33 35  1  0
 35 36  1  0
 35 37  1  0
 35 38  1  0
 32 39  1  0
 39 40  1  0
 39 41  1  0
 39 42  1  0
 42 43  1  0
 42 44  1  0
 23 45  2  0
 45 46  1  0
 46 47  3  0
 45 48  1  0
 48 49  1  0
 49 50  1  0
 49 51  1  0
 48 52  2  0
 52 53  1  0
 13 54  2  0
 54 55  1  0
 55 56  1  0
 56 57  1  0
 56 58  1  0
 56 59  1  0
 54  2  1  0
 52 21  1  0
 42 24  1  0
M  END
>  <score>  (433) 
7.51393

$$$$

     RDKit          3D

 55 57  0  0  0  0  0  0  0  0999 V2000
    4.2839  144.3157   49.7575 H   0  0  0  0  0  0  0  0  0  0  0  0
    3.4286  143.8513   50.2401 C   0  0  0  0  0  0  0  0  0  0  0  0
    3.4055  143.6639   51.6360 C   0  0  0  0  0  0  0  0  0  0  0  0
    4.2484  143.9533   52.2477 H   0  0  0  0  0  0  0  0  0  0  0  0
    2.3256  143.0572   52.2730 C   0  0  0  0  0  0  0  0  0  0  0  0
    2.3609  142.8551   53.6682 N   0  0  0  0  0  0  0  0  0  0  0  0
    1.8413  142.0901   54.0643 H   0  0  0  0  0  0  0  0  0  0  0  0
    2.9341  143.6872   54.6099 C   0  0  0  0  0  0  0  0  0  0  0  0
    3.0874  144.9591   54.2822 N   0  0  0  0  0  0  0  0  0  0  0  0
    3.5476  145.7765   55.1983 C   0  0  0  0  0  0  0  0  0  0  0  0
    3.7038  146.9776   54.6246 N   0  0  0  0  0  0  0  0  0  0  0  0
    3.5071  146.9298   53.6381 H   0  0  0  0  0  0  0  0  0  0  0  0
    3.7444  148.1894   55.2553 C   0  0  0  0  0  0  0  0  0  0  0  0
    3.8472  148.2367   56.4721 O   0  0  0  0  0  0  0  0  0  0  0  0
    3.7218  149.4635   54.4014 C   0  0  0  0  0  0  0  0  0  0  0  0
    3.9938  150.3346   54.9851 H   0  0  0  0  0  0  0  0  0  0  0  0
    4.4089  149.3567   53.5602 H   0  0  0  0  0  0  0  0  0  0  0  0
    2.3774  149.7791   53.8603 C   0  0  0  0  0  0  0  0  0  0  0  0
    1.5948  150.6871   54.5728 C   0  0  0  0  0  0  0  0  0  0  0  0
    1.9884  151.1443   55.4708 H   0  0  0  0  0  0  0  0  0  0  0  0
    0.3331  151.0576   54.1304 C   0  0  0  0  0  0  0  0  0  0  0  0
   -0.3791  151.9762   54.8591 O   0  0  0  0  0  0  0  0  0  0  0  0
   -1.4259  151.4038   55.6460 C   0  0  0  0  0  0  0  0  0  0  0  0
   -1.0132  150.7019   56.3723 H   0  0  0  0  0  0  0  0  0  0  0  0
   -2.1520  150.8754   55.0199 H   0  0  0  0  0  0  0  0  0  0  0  0
   -1.9405  152.2016   56.1895 H   0  0  0  0  0  0  0  0  0  0  0  0
   -0.1463  150.4983   52.9339 C   0  0  0  0  0  0  0  0  0  0  0  0
   -1.8722  150.9855   52.2777 Br  0  0  0  0  0  0  0  0  0  0  0  0
    0.6575  149.6038   52.1940 C   0  0  0  0  0  0  0  0  0  0  0  0
    0.3066  149.1993   51.2495 H   0  0  0  0  0  0  0  0  0  0  0  0
    1.9327  149.2361   52.6495 C   0  0  0  0  0  0  0  0  0  0  0  0
    2.7751  148.4025   51.9477 O   0  0  0  0  0  0  0  0  0  0  0  0
    2.1662  147.2950   51.2806 C   0  0  0  0  0  0  0  0  0  0  0  0
    1.6032  147.6384   50.4080 H   0  0  0  0  0  0  0  0  0  0  0  0
    2.9530  146.6081   50.9502 H   0  0  0  0  0  0  0  0  0  0  0  0
    1.4951  146.7543   51.9572 H   0  0  0  0  0  0  0  0  0  0  0  0
    3.8778  145.4100   56.4736 C   0  0  0  0  0  0  0  0  0  0  0  0
    4.2923  146.1044   57.1881 H   0  0  0  0  0  0  0  0  0  0  0  0
    3.7256  144.0935   56.7803 C   0  0  0  0  0  0  0  0  0  0  0  0
    4.1342  143.7155   58.0040 N   0  0  0  0  0  0  0  0  0  0  0  0
    4.0574  142.7402   58.2859 H   0  0  0  0  0  0  0  0  0  0  0  0
    4.4891  144.4311   58.6361 H   0  0  0  0  0  0  0  0  0  0  0  0
    3.2386  143.1937   55.8689 C   0  0  0  0  0  0  0  0  0  0  0  0
    3.1092  141.8141   56.2004 C   0  0  0  0  0  0  0  0  0  0  0  0
    3.0264  140.6778   56.4409 N   0  0  0  0  0  0  0  0  0  0  0  0
    1.2669  142.6088   51.4628 C   0  0  0  0  0  0  0  0  0  0  0  0
    0.4380  142.1088   51.9466 H   0  0  0  0  0  0  0  0  0  0  0  0
    1.2818  142.8053   50.0552 C   0  0  0  0  0  0  0  0  0  0  0  0
    0.4750  142.4736   49.4144 H   0  0  0  0  0  0  0  0  0  0  0  0
    2.3641  143.4457   49.4335 C   0  0  0  0  0  0  0  0  0  0  0  0
    2.4738  143.7059   48.0821 O   0  0  0  0  0  0  0  0  0  0  0  0
    1.3989  143.3536   47.2006 C   0  0  0  0  0  0  0  0  0  0  0  0
    1.2275  142.2725   47.2117 H   0  0  0  0  0  0  0  0  0  0  0  0
    0.4743  143.8688   47.4811 H   0  0  0  0  0  0  0  0  0  0  0  0
    1.6595  143.6508   46.1752 H   0  0  0  0  0  0  0  0  0  0  0  0
  1  2  1  0
  2  3  2  0
  3  4  1  0
  3  5  1  0
  5  6  1  0
  6  7  1  0
  6  8  1  0
  8  9  2  0
  9 10  1  0
 10 11  1  0
 11 12  1  0
 11 13  1  0
 13 14  2  0
 13 15  1  0
 15 16  1  0
 15 17  1  0
 15 18  1  0
 18 19  2  0
 19 20  1  0
 19 21  1  0
 21 22  1  0
 22 23  1  0
 23 24  1  0
 23 25  1  0
 23 26  1  0
 21 27  2  0
 27 28  1  0
 27 29  1  0
 29 30  1  0
 29 31  2  0
 31 32  1  0
 32 33  1  0
 33 34  1  0
 33 35  1  0
 33 36  1  0
 10 37  2  0
 37 38  1  0
 37 39  1  0
 39 40  1  0
 40 41  1  0
 40 42  1  0
 39 43  2  0
 43 44  1  0
 44 45  3  0
  5 46  2  0
 46 47  1  0
 46 48  1  0
 48 49  1  0
 48 50  2  0
 50 51  1  0
 51 52  1  0
 52 53  1  0
 52 54  1  0
 52 55  1  0
 50  2  1  0
 43  8  1  0
 31 18  1  0
M  END
>  <score>  (434) 
7.52941

$$$$

     RDKit          3D

 57 59  0  0  0  0  0  0  0  0999 V2000
    0.2437  149.0973   51.2597 H   0  0  0  0  0  0  0  0  0  0  0  0
    0.6103  149.5483   52.1753 C   0  0  0  0  0  0  0  0  0  0  0  0
   -0.1983  150.4676   52.8550 C   0  0  0  0  0  0  0  0  0  0  0  0
   -1.9364  150.8953   52.1763 Br  0  0  0  0  0  0  0  0  0  0  0  0
    0.2651  151.0538   54.0416 C   0  0  0  0  0  0  0  0  0  0  0  0
   -0.4674  151.9849   54.7200 O   0  0  0  0  0  0  0  0  0  0  0  0
   -1.4790  151.3975   55.5401 C   0  0  0  0  0  0  0  0  0  0  0  0
   -2.2337  150.9035   54.9238 H   0  0  0  0  0  0  0  0  0  0  0  0
   -1.9717  152.1668   56.1437 H   0  0  0  0  0  0  0  0  0  0  0  0
   -1.0404  150.6560   56.2107 H   0  0  0  0  0  0  0  0  0  0  0  0
    1.4979  150.6797   54.5587 C   0  0  0  0  0  0  0  0  0  0  0  0
    1.8293  151.1023   55.5025 H   0  0  0  0  0  0  0  0  0  0  0  0
    2.3130  149.7801   53.8780 C   0  0  0  0  0  0  0  0  0  0  0  0
    3.6379  149.4834   54.5096 C   0  0  0  0  0  0  0  0  0  0  0  0
    4.4278  149.4789   53.7639 H   0  0  0  0  0  0  0  0  0  0  0  0
    3.8488  150.2806   55.2203 H   0  0  0  0  0  0  0  0  0  0  0  0
    3.6521  148.1634   55.2500 C   0  0  0  0  0  0  0  0  0  0  0  0
    3.7612  148.1507   56.4590 O   0  0  0  0  0  0  0  0  0  0  0  0
    3.6394  146.9916   54.5647 N   0  0  0  0  0  0  0  0  0  0  0  0
    3.3608  146.9846   53.5964 H   0  0  0  0  0  0  0  0  0  0  0  0
    3.6150  145.8003   55.1650 C   0  0  0  0  0  0  0  0  0  0  0  0
    3.2728  144.9385   54.2739 N   0  0  0  0  0  0  0  0  0  0  0  0
    3.2173  143.6984   54.6701 C   0  0  0  0  0  0  0  0  0  0  0  0
    2.9467  142.8221   53.6891 N   0  0  0  0  0  0  0  0  0  0  0  0
    2.5675  141.9555   54.0395 H   0  0  0  0  0  0  0  0  0  0  0  0
    2.3738  143.3224   52.4506 C   0  0  0  0  0  0  0  0  0  0  0  0
    2.0231  144.3625   52.5272 H   0  0  0  0  0  0  0  0  0  0  0  0
    3.4057  143.2769   51.3350 C   0  0  0  0  0  0  0  0  0  0  0  0
    4.2104  143.9906   51.5414 H   0  0  0  0  0  0  0  0  0  0  0  0
    3.8576  142.2839   51.2911 H   0  0  0  0  0  0  0  0  0  0  0  0
    2.7162  143.6226   50.0153 C   0  0  0  0  0  0  0  0  0  0  0  0
    2.3441  144.6525   50.0580 H   0  0  0  0  0  0  0  0  0  0  0  0
    3.4375  143.5664   49.1954 H   0  0  0  0  0  0  0  0  0  0  0  0
    1.5527  142.6541   49.7682 C   0  0  0  0  0  0  0  0  0  0  0  0
    1.9539  141.6399   49.6694 H   0  0  0  0  0  0  0  0  0  0  0  0
    1.0503  142.9191   48.8382 H   0  0  0  0  0  0  0  0  0  0  0  0
    0.5347  142.6602   50.9100 C   0  0  0  0  0  0  0  0  0  0  0  0
   -0.1990  141.8813   50.7444 H   0  0  0  0  0  0  0  0  0  0  0  0
   -0.0063  143.6068   50.9510 H   0  0  0  0  0  0  0  0  0  0  0  0
    1.1874  142.4111   52.2461 C   0  0  0  0  0  0  0  0  0  0  0  0
    1.5264  141.3709   52.2985 H   0  0  0  0  0  0  0  0  0  0  0  0
    0.4530  142.5893   53.0371 H   0  0  0  0  0  0  0  0  0  0  0  0
    3.4064  143.2557   55.9396 C   0  0  0  0  0  0  0  0  0  0  0  0
    3.2614  141.8684   56.2226 C   0  0  0  0  0  0  0  0  0  0  0  0
    3.1390  140.7226   56.3748 N   0  0  0  0  0  0  0  0  0  0  0  0
    3.7692  144.2067   56.8482 C   0  0  0  0  0  0  0  0  0  0  0  0
    4.0066  143.8809   58.1299 N   0  0  0  0  0  0  0  0  0  0  0  0
    4.4772  144.5828   58.7055 H   0  0  0  0  0  0  0  0  0  0  0  0
    4.1406  142.8921   58.3253 H   0  0  0  0  0  0  0  0  0  0  0  0
    3.9139  145.5069   56.4650 C   0  0  0  0  0  0  0  0  0  0  0  0
    4.2535  146.2780   57.1356 H   0  0  0  0  0  0  0  0  0  0  0  0
    1.8831  149.2065   52.6646 C   0  0  0  0  0  0  0  0  0  0  0  0
    2.7162  148.3377   51.9973 O   0  0  0  0  0  0  0  0  0  0  0  0
    2.0759  147.2946   51.2448 C   0  0  0  0  0  0  0  0  0  0  0  0
    1.5371  147.6951   50.3813 H   0  0  0  0  0  0  0  0  0  0  0  0
    1.3653  146.7491   51.8710 H   0  0  0  0  0  0  0  0  0  0  0  0
    2.8242  146.5814   50.8848 H   0  0  0  0  0  0  0  0  0  0  0  0
  1  2  1  0
  2  3  2  0
  3  4  1  0
  3  5  1  0
  5  6  1  0
  6  7  1  0
  7  8  1  0
  7  9  1  0
  7 10  1  0
  5 11  2  0
 11 12  1  0
 11 13  1  0
 13 14  1  0
 14 15  1  0
 14 16  1  0
 14 17  1  0
 17 18  2  0
 17 19  1  0
 19 20  1  0
 19 21  1  0
 21 22  2  0
 22 23  1  0
 23 24  1  0
 24 25  1  0
 24 26  1  0
 26 27  1  0
 26 28  1  0
 28 29  1  0
 28 30  1  0
 28 31  1  0
 31 32  1  0
 31 33  1  0
 31 34  1  0
 34 35  1  0
 34 36  1  0
 34 37  1  0
 37 38  1  0
 37 39  1  0
 37 40  1  0
 40 41  1  0
 40 42  1  0
 23 43  2  0
 43 44  1  0
 44 45  3  0
 43 46  1  0
 46 47  1  0
 47 48  1  0
 47 49  1  0
 46 50  2  0
 50 51  1  0
 13 52  2  0
 52 53  1  0
 53 54  1  0
 54 55  1  0
 54 56  1  0
 54 57  1  0
 52  2  1  0
 50 21  1  0
 40 26  1  0
M  END
>  <score>  (435) 
7.55207

$$$$

     RDKit          3D

 51 53  0  0  0  0  0  0  0  0999 V2000
    0.5029  142.4303   49.4458 H   0  0  0  0  0  0  0  0  0  0  0  0
    1.3092  142.7700   50.0865 C   0  0  0  0  0  0  0  0  0  0  0  0
    1.2911  142.5854   51.4893 C   0  0  0  0  0  0  0  0  0  0  0  0
    0.4594  142.0795   51.9637 H   0  0  0  0  0  0  0  0  0  0  0  0
    2.3452  143.0530   52.2923 C   0  0  0  0  0  0  0  0  0  0  0  0
    2.3702  142.8598   53.6857 N   0  0  0  0  0  0  0  0  0  0  0  0
    1.8531  142.0988   54.0908 H   0  0  0  0  0  0  0  0  0  0  0  0
    2.9396  143.6912   54.6185 C   0  0  0  0  0  0  0  0  0  0  0  0
    3.0886  144.9573   54.2816 N   0  0  0  0  0  0  0  0  0  0  0  0
    3.5455  145.7743   55.1963 C   0  0  0  0  0  0  0  0  0  0  0  0
    3.6992  146.9753   54.6239 N   0  0  0  0  0  0  0  0  0  0  0  0
    3.5092  146.9274   53.6360 H   0  0  0  0  0  0  0  0  0  0  0  0
    3.7399  148.1860   55.2563 C   0  0  0  0  0  0  0  0  0  0  0  0
    3.8451  148.2343   56.4729 O   0  0  0  0  0  0  0  0  0  0  0  0
    3.7209  149.4592   54.4029 C   0  0  0  0  0  0  0  0  0  0  0  0
    4.4083  149.3524   53.5627 H   0  0  0  0  0  0  0  0  0  0  0  0
    3.9945  150.3289   54.9877 H   0  0  0  0  0  0  0  0  0  0  0  0
    2.3779  149.7759   53.8621 C   0  0  0  0  0  0  0  0  0  0  0  0
    1.5960  150.6835   54.5748 C   0  0  0  0  0  0  0  0  0  0  0  0
    1.9919  151.1394   55.4722 H   0  0  0  0  0  0  0  0  0  0  0  0
    0.3350  151.0572   54.1316 C   0  0  0  0  0  0  0  0  0  0  0  0
   -0.3786  151.9758   54.8588 O   0  0  0  0  0  0  0  0  0  0  0  0
   -1.4253  151.4037   55.6460 C   0  0  0  0  0  0  0  0  0  0  0  0
   -1.0126  150.7020   56.3725 H   0  0  0  0  0  0  0  0  0  0  0  0
   -2.1520  150.8752   55.0204 H   0  0  0  0  0  0  0  0  0  0  0  0
   -1.9398  152.2017   56.1893 H   0  0  0  0  0  0  0  0  0  0  0  0
   -0.1455  150.4990   52.9350 C   0  0  0  0  0  0  0  0  0  0  0  0
   -1.8717  150.9859   52.2783 Br  0  0  0  0  0  0  0  0  0  0  0  0
    0.6584  149.6049   52.1950 C   0  0  0  0  0  0  0  0  0  0  0  0
    0.3073  149.2012   51.2499 H   0  0  0  0  0  0  0  0  0  0  0  0
    1.9336  149.2345   52.6503 C   0  0  0  0  0  0  0  0  0  0  0  0
    2.7754  148.4021   51.9450 O   0  0  0  0  0  0  0  0  0  0  0  0
    2.1664  147.2942   51.2797 C   0  0  0  0  0  0  0  0  0  0  0  0
    1.4948  146.7550   51.9572 H   0  0  0  0  0  0  0  0  0  0  0  0
    2.9531  146.6067   50.9506 H   0  0  0  0  0  0  0  0  0  0  0  0
    1.6039  147.6372   50.4066 H   0  0  0  0  0  0  0  0  0  0  0  0
    3.8756  145.4095   56.4693 C   0  0  0  0  0  0  0  0  0  0  0  0
    4.2907  146.1009   57.1852 H   0  0  0  0  0  0  0  0  0  0  0  0
    3.7223  144.0958   56.7730 C   0  0  0  0  0  0  0  0  0  0  0  0
    4.1302  143.7181   57.9906 N   0  0  0  0  0  0  0  0  0  0  0  0
    4.4839  144.4336   58.6217 H   0  0  0  0  0  0  0  0  0  0  0  0
    4.0508  142.7426   58.2677 H   0  0  0  0  0  0  0  0  0  0  0  0
    3.2379  143.1953   55.8706 C   0  0  0  0  0  0  0  0  0  0  0  0
    3.1079  141.8153   56.2006 C   0  0  0  0  0  0  0  0  0  0  0  0
    3.0249  140.6786   56.4355 N   0  0  0  0  0  0  0  0  0  0  0  0
    3.4226  143.6678   51.6526 C   0  0  0  0  0  0  0  0  0  0  0  0
    4.2537  143.9704   52.2715 H   0  0  0  0  0  0  0  0  0  0  0  0
    3.4528  143.8420   50.2550 C   0  0  0  0  0  0  0  0  0  0  0  0
    4.3040  144.3109   49.7703 H   0  0  0  0  0  0  0  0  0  0  0  0
    2.3854  143.4084   49.4681 C   0  0  0  0  0  0  0  0  0  0  0  0
    2.3958  143.6016   48.1272 F   0  0  0  0  0  0  0  0  0  0  0  0
  1  2  1  0
  2  3  2  0
  3  4  1  0
  3  5  1  0
  5  6  1  0
  6  7  1  0
  6  8  1  0
  8  9  2  0
  9 10  1  0
 10 11  1  0
 11 12  1  0
 11 13  1  0
 13 14  2  0
 13 15  1  0
 15 16  1  0
 15 17  1  0
 15 18  1  0
 18 19  2  0
 19 20  1  0
 19 21  1  0
 21 22  1  0
 22 23  1  0
 23 24  1  0
 23 25  1  0
 23 26  1  0
 21 27  2  0
 27 28  1  0
 27 29  1  0
 29 30  1  0
 29 31  2  0
 31 32  1  0
 32 33  1  0
 33 34  1  0
 33 35  1  0
 33 36  1  0
 10 37  2  0
 37 38  1  0
 37 39  1  0
 39 40  1  0
 40 41  1  0
 40 42  1  0
 39 43  2  0
 43 44  1  0
 44 45  3  0
  5 46  2  0
 46 47  1  0
 46 48  1  0
 48 49  1  0
 48 50  2  0
 50 51  1  0
 50  2  1  0
 43  8  1  0
 31 18  1  0
M  END
>  <score>  (436) 
7.55545

$$$$

     RDKit          3D

 58 60  0  0  0  0  0  0  0  0999 V2000
    0.3058  149.2006   51.2506 H   0  0  0  0  0  0  0  0  0  0  0  0
    0.6594  149.6052   52.1952 C   0  0  0  0  0  0  0  0  0  0  0  0
   -0.1448  150.5000   52.9345 C   0  0  0  0  0  0  0  0  0  0  0  0
   -1.8712  150.9840   52.2759 Br  0  0  0  0  0  0  0  0  0  0  0  0
    0.3334  151.0588   54.1315 C   0  0  0  0  0  0  0  0  0  0  0  0
   -0.3798  151.9757   54.8603 O   0  0  0  0  0  0  0  0  0  0  0  0
   -1.4266  151.4042   55.6477 C   0  0  0  0  0  0  0  0  0  0  0  0
   -1.0142  150.7030   56.3740 H   0  0  0  0  0  0  0  0  0  0  0  0
   -1.9425  152.2010   56.1917 H   0  0  0  0  0  0  0  0  0  0  0  0
   -2.1524  150.8756   55.0225 H   0  0  0  0  0  0  0  0  0  0  0  0
    1.5963  150.6909   54.5734 C   0  0  0  0  0  0  0  0  0  0  0  0
    1.9895  151.1457   55.4727 H   0  0  0  0  0  0  0  0  0  0  0  0
    2.3818  149.7867   53.8587 C   0  0  0  0  0  0  0  0  0  0  0  0
    3.7268  149.4730   54.4004 C   0  0  0  0  0  0  0  0  0  0  0  0
    3.9984  150.3496   54.9758 H   0  0  0  0  0  0  0  0  0  0  0  0
    4.4153  149.3595   53.5603 H   0  0  0  0  0  0  0  0  0  0  0  0
    3.7519  148.2080   55.2668 C   0  0  0  0  0  0  0  0  0  0  0  0
    3.8505  148.2671   56.4829 O   0  0  0  0  0  0  0  0  0  0  0  0
    3.7104  146.9934   54.6444 N   0  0  0  0  0  0  0  0  0  0  0  0
    3.5192  146.9541   53.6567 H   0  0  0  0  0  0  0  0  0  0  0  0
    3.5453  145.7919   55.2244 C   0  0  0  0  0  0  0  0  0  0  0  0
    3.0565  144.9620   54.3205 N   0  0  0  0  0  0  0  0  0  0  0  0
    2.9072  143.6697   54.6246 C   0  0  0  0  0  0  0  0  0  0  0  0
    2.3059  142.7363   53.5784 C   0  0  0  0  0  0  0  0  0  0  0  0
    1.2554  142.5912   53.8219 H   0  0  0  0  0  0  0  0  0  0  0  0
    2.8083  141.7647   53.6564 H   0  0  0  0  0  0  0  0  0  0  0  0
    2.3633  143.2431   52.1109 C   0  0  0  0  0  0  0  0  0  0  0  0
    1.9671  144.2666   52.0816 H   0  0  0  0  0  0  0  0  0  0  0  0
    1.4976  142.3533   51.1949 C   0  0  0  0  0  0  0  0  0  0  0  0
    0.4504  142.6611   51.2878 H   0  0  0  0  0  0  0  0  0  0  0  0
    1.5776  141.3055   51.5100 H   0  0  0  0  0  0  0  0  0  0  0  0
    1.9442  142.4681   49.7295 C   0  0  0  0  0  0  0  0  0  0  0  0
    1.9028  143.5230   49.4332 H   0  0  0  0  0  0  0  0  0  0  0  0
    1.2628  141.9072   49.0817 H   0  0  0  0  0  0  0  0  0  0  0  0
    3.3780  141.9492   49.5288 C   0  0  0  0  0  0  0  0  0  0  0  0
    3.8437  142.5160   48.7135 H   0  0  0  0  0  0  0  0  0  0  0  0
    3.3530  140.8939   49.2317 H   0  0  0  0  0  0  0  0  0  0  0  0
    4.2338  142.0807   50.7960 C   0  0  0  0  0  0  0  0  0  0  0  0
    4.1204  141.1773   51.4054 H   0  0  0  0  0  0  0  0  0  0  0  0
    5.2891  142.1645   50.5120 H   0  0  0  0  0  0  0  0  0  0  0  0
    3.8119  143.3008   51.6249 C   0  0  0  0  0  0  0  0  0  0  0  0
    4.4261  143.3713   52.5146 H   0  0  0  0  0  0  0  0  0  0  0  0
    3.9568  144.2009   51.0150 H   0  0  0  0  0  0  0  0  0  0  0  0
    3.2638  143.1999   55.8872 C   0  0  0  0  0  0  0  0  0  0  0  0
    3.1389  141.8208   56.2249 C   0  0  0  0  0  0  0  0  0  0  0  0
    3.0351  140.6853   56.4574 N   0  0  0  0  0  0  0  0  0  0  0  0
    3.7519  144.1081   56.7996 C   0  0  0  0  0  0  0  0  0  0  0  0
    4.1485  143.7218   58.0256 N   0  0  0  0  0  0  0  0  0  0  0  0
    4.0632  142.7457   58.2980 H   0  0  0  0  0  0  0  0  0  0  0  0
    4.4991  144.4270   58.6687 H   0  0  0  0  0  0  0  0  0  0  0  0
    3.8955  145.4287   56.4975 C   0  0  0  0  0  0  0  0  0  0  0  0
    4.3106  146.1220   57.2170 H   0  0  0  0  0  0  0  0  0  0  0  0
    1.9353  149.2390   52.6509 C   0  0  0  0  0  0  0  0  0  0  0  0
    2.7747  148.4017   51.9499 O   0  0  0  0  0  0  0  0  0  0  0  0
    2.1644  147.2959   51.2814 C   0  0  0  0  0  0  0  0  0  0  0  0
    1.4696  146.7729   51.9473 H   0  0  0  0  0  0  0  0  0  0  0  0
    2.9481  146.5937   50.9773 H   0  0  0  0  0  0  0  0  0  0  0  0
    1.6279  147.6365   50.3916 H   0  0  0  0  0  0  0  0  0  0  0  0
  1  2  1  0
  2  3  2  0
  3  4  1  0
  3  5  1  0
  5  6  1  0
  6  7  1  0
  7  8  1  0
  7  9  1  0
  7 10  1  0
  5 11  2  0
 11 12  1  0
 11 13  1  0
 13 14  1  0
 14 15  1  0
 14 16  1  0
 14 17  1  0
 17 18  2  0
 17 19  1  0
 19 20  1  0
 19 21  1  0
 21 22  2  0
 22 23  1  0
 23 24  1  0
 24 25  1  0
 24 26  1  0
 24 27  1  0
 27 28  1  0
 27 29  1  0
 29 30  1  0
 29 31  1  0
 29 32  1  0
 32 33  1  0
 32 34  1  0
 32 35  1  0
 35 36  1  0
 35 37  1  0
 35 38  1  0
 38 39  1  0
 38 40  1  0
 38 41  1  0
 41 42  1  0
 41 43  1  0
 23 44  2  0
 44 45  1  0
 45 46  3  0
 44 47  1  0
 47 48  1  0
 48 49  1  0
 48 50  1  0
 47 51  2  0
 51 52  1  0
 13 53  2  0
 53 54  1  0
 54 55  1  0
 55 56  1  0
 55 57  1  0
 55 58  1  0
 53  2  1  0
 51 21  1  0
 41 27  1  0
M  END
>  <score>  (437) 
7.57453

$$$$

     RDKit          3D

 60 63  0  0  0  0  0  0  0  0999 V2000
    0.2599  149.0602   51.2595 H   0  0  0  0  0  0  0  0  0  0  0  0
    0.6074  149.5312   52.1716 C   0  0  0  0  0  0  0  0  0  0  0  0
   -0.2070  150.4647   52.8326 C   0  0  0  0  0  0  0  0  0  0  0  0
   -1.9367  150.8689   52.1226 Br  0  0  0  0  0  0  0  0  0  0  0  0
    0.2357  151.0679   54.0219 C   0  0  0  0  0  0  0  0  0  0  0  0
   -0.5221  151.9893   54.6950 O   0  0  0  0  0  0  0  0  0  0  0  0
   -1.5221  151.3907   55.5253 C   0  0  0  0  0  0  0  0  0  0  0  0
   -1.9966  152.1598   56.1416 H   0  0  0  0  0  0  0  0  0  0  0  0
   -2.2925  150.9069   54.9168 H   0  0  0  0  0  0  0  0  0  0  0  0
   -1.0781  150.6447   56.1900 H   0  0  0  0  0  0  0  0  0  0  0  0
    1.4808  150.7118   54.5382 C   0  0  0  0  0  0  0  0  0  0  0  0
    1.8097  151.1604   55.4733 H   0  0  0  0  0  0  0  0  0  0  0  0
    2.2955  149.7818   53.8767 C   0  0  0  0  0  0  0  0  0  0  0  0
    3.6115  149.4467   54.5156 C   0  0  0  0  0  0  0  0  0  0  0  0
    3.8166  150.2184   55.2583 H   0  0  0  0  0  0  0  0  0  0  0  0
    4.4096  149.4672   53.7717 H   0  0  0  0  0  0  0  0  0  0  0  0
    3.6025  148.0925   55.2185 C   0  0  0  0  0  0  0  0  0  0  0  0
    3.7653  148.0647   56.4249 O   0  0  0  0  0  0  0  0  0  0  0  0
    3.5438  146.9274   54.5041 N   0  0  0  0  0  0  0  0  0  0  0  0
    3.3232  146.9459   53.5200 H   0  0  0  0  0  0  0  0  0  0  0  0
    3.5846  145.6937   55.0466 C   0  0  0  0  0  0  0  0  0  0  0  0
    3.2392  144.7822   54.1782 N   0  0  0  0  0  0  0  0  0  0  0  0
    3.1805  143.5274   54.6046 C   0  0  0  0  0  0  0  0  0  0  0  0
    2.6692  142.6165   53.7072 N   0  0  0  0  0  0  0  0  0  0  0  0
    3.6023  141.8285   52.8909 C   0  0  0  0  0  0  0  0  0  0  0  0
    3.9092  140.9025   53.3992 H   0  0  0  0  0  0  0  0  0  0  0  0
    4.4942  142.3952   52.6243 H   0  0  0  0  0  0  0  0  0  0  0  0
    2.8472  141.5481   51.5965 C   0  0  0  0  0  0  0  0  0  0  0  0
    3.2451  142.1742   50.7917 H   0  0  0  0  0  0  0  0  0  0  0  0
    2.9350  140.4998   51.3140 H   0  0  0  0  0  0  0  0  0  0  0  0
    1.4019  141.9166   51.8776 C   0  0  2  0  0  0  0  0  0  0  0  0
    0.8663  141.0319   52.2278 H   0  0  0  0  0  0  0  0  0  0  0  0
    0.6412  142.5830   50.7537 C   0  0  0  0  0  0  0  0  0  0  0  0
    1.0432  142.3555   49.7591 H   0  0  0  0  0  0  0  0  0  0  0  0
   -0.3605  142.1781   50.8453 H   0  0  0  0  0  0  0  0  0  0  0  0
    0.6035  144.0322   51.0565 N   0  0  0  0  0  0  0  0  0  0  0  0
    0.3961  145.0443   49.9877 C   0  0  0  0  0  0  0  0  0  0  0  0
   -0.4184  144.7296   49.3344 H   0  0  0  0  0  0  0  0  0  0  0  0
    0.1367  146.0327   50.3973 H   0  0  0  0  0  0  0  0  0  0  0  0
    1.2805  145.1605   49.3507 H   0  0  0  0  0  0  0  0  0  0  0  0
    1.4733  144.3046   52.2099 C   0  0  0  0  0  0  0  0  0  0  0  0
    1.0855  145.1028   52.8534 H   0  0  0  0  0  0  0  0  0  0  0  0
    2.4818  144.5658   51.8690 H   0  0  0  0  0  0  0  0  0  0  0  0
    1.4599  142.9650   52.9466 C   0  0  2  0  0  0  0  0  0  0  0  0
    0.5414  142.8983   53.5216 H   0  0  0  0  0  0  0  0  0  0  0  0
    3.4859  143.1366   55.8820 C   0  0  0  0  0  0  0  0  0  0  0  0
    3.3762  141.7652   56.2487 C   0  0  0  0  0  0  0  0  0  0  0  0
    3.2436  140.6256   56.4516 N   0  0  0  0  0  0  0  0  0  0  0  0
    3.7972  144.1340   56.7524 C   0  0  0  0  0  0  0  0  0  0  0  0
    3.9946  143.8861   58.0569 N   0  0  0  0  0  0  0  0  0  0  0  0
    4.4274  144.6384   58.5850 H   0  0  0  0  0  0  0  0  0  0  0  0
    4.1978  142.9218   58.3005 H   0  0  0  0  0  0  0  0  0  0  0  0
    3.8886  145.4260   56.3512 C   0  0  0  0  0  0  0  0  0  0  0  0
    4.1514  146.1943   57.0549 H   0  0  0  0  0  0  0  0  0  0  0  0
    1.8697  149.1801   52.6749 C   0  0  0  0  0  0  0  0  0  0  0  0
    2.6859  148.2647   52.0431 O   0  0  0  0  0  0  0  0  0  0  0  0
    2.0308  147.2775   51.2290 C   0  0  0  0  0  0  0  0  0  0  0  0
    1.5454  147.7309   50.3576 H   0  0  0  0  0  0  0  0  0  0  0  0
    2.7619  146.5455   50.8698 H   0  0  0  0  0  0  0  0  0  0  0  0
    1.2756  146.7479   51.8182 H   0  0  0  0  0  0  0  0  0  0  0  0
  1  2  1  0
  2  3  2  0
  3  4  1  0
  3  5  1  0
  5  6  1  0
  6  7  1  0
  7  8  1  0
  7  9  1  0
  7 10  1  0
  5 11  2  0
 11 12  1  0
 11 13  1  0
 13 14  1  0
 14 15  1  0
 14 16  1  0
 14 17  1  0
 17 18  2  0
 17 19  1  0
 19 20  1  0
 19 21  1  0
 21 22  2  0
 22 23  1  0
 23 24  1  0
 24 25  1  0
 25 26  1  0
 25 27  1  0
 25 28  1  0
 28 29  1  0
 28 30  1  0
 28 31  1  0
 31 32  1  1
 31 33  1  0
 33 34  1  0
 33 35  1  0
 33 36  1  0
 36 37  1  0
 37 38  1  0
 37 39  1  0
 37 40  1  0
 36 41  1  0
 41 42  1  0
 41 43  1  0
 41 44  1  0
 44 45  1  1
 23 46  2  0
 46 47  1  0
 47 48  3  0
 46 49  1  0
 49 50  1  0
 50 51  1  0
 50 52  1  0
 49 53  2  0
 53 54  1  0
 13 55  2  0
 55 56  1  0
 56 57  1  0
 57 58  1  0
 57 59  1  0
 57 60  1  0
 55  2  1  0
 53 21  1  0
 44 24  1  0
 44 31  1  0
M  END
>  <score>  (438) 
7.61873

$$$$

     RDKit          3D

 51 53  0  0  0  0  0  0  0  0999 V2000
    4.3033  144.3492   49.8022 H   0  0  0  0  0  0  0  0  0  0  0  0
    3.4502  143.8822   50.2866 C   0  0  0  0  0  0  0  0  0  0  0  0
    3.4257  143.7039   51.6747 C   0  0  0  0  0  0  0  0  0  0  0  0
    4.2463  144.0363   52.2904 H   0  0  0  0  0  0  0  0  0  0  0  0
    2.3529  143.0648   52.2982 C   0  0  0  0  0  0  0  0  0  0  0  0
    2.3572  142.8502   53.6712 N   0  0  0  0  0  0  0  0  0  0  0  0
    1.8037  142.0968   54.0551 H   0  0  0  0  0  0  0  0  0  0  0  0
    2.9435  143.6874   54.5895 C   0  0  0  0  0  0  0  0  0  0  0  0
    3.1283  144.9389   54.2265 N   0  0  0  0  0  0  0  0  0  0  0  0
    3.5866  145.7619   55.1308 C   0  0  0  0  0  0  0  0  0  0  0  0
    3.7046  146.9561   54.5380 N   0  0  0  0  0  0  0  0  0  0  0  0
    3.4196  146.9546   53.5728 H   0  0  0  0  0  0  0  0  0  0  0  0
    3.7318  148.1372   55.2038 C   0  0  0  0  0  0  0  0  0  0  0  0
    3.8130  148.1664   56.4154 O   0  0  0  0  0  0  0  0  0  0  0  0
    3.6954  149.4320   54.4169 C   0  0  0  0  0  0  0  0  0  0  0  0
    4.4259  149.4018   53.6090 H   0  0  0  0  0  0  0  0  0  0  0  0
    3.9639  150.2229   55.1041 H   0  0  0  0  0  0  0  0  0  0  0  0
    2.3408  149.7614   53.8704 C   0  0  0  0  0  0  0  0  0  0  0  0
    1.5636  150.6754   54.5778 C   0  0  0  0  0  0  0  0  0  0  0  0
    1.9396  151.1279   55.4966 H   0  0  0  0  0  0  0  0  0  0  0  0
    0.3079  151.0375   54.0991 C   0  0  0  0  0  0  0  0  0  0  0  0
   -0.3871  151.9758   54.8051 O   0  0  0  0  0  0  0  0  0  0  0  0
   -1.4226  151.4063   55.6064 C   0  0  0  0  0  0  0  0  0  0  0  0
   -1.0072  150.6886   56.3176 H   0  0  0  0  0  0  0  0  0  0  0  0
   -2.1496  150.8872   54.9762 H   0  0  0  0  0  0  0  0  0  0  0  0
   -1.9376  152.1934   56.1667 H   0  0  0  0  0  0  0  0  0  0  0  0
   -0.1840  150.4755   52.9050 C   0  0  0  0  0  0  0  0  0  0  0  0
   -1.9176  150.9746   52.2585 Br  0  0  0  0  0  0  0  0  0  0  0  0
    0.6155  149.5746   52.1809 C   0  0  0  0  0  0  0  0  0  0  0  0
    0.2814  149.1727   51.2325 H   0  0  0  0  0  0  0  0  0  0  0  0
    1.8915  149.2185   52.6572 C   0  0  0  0  0  0  0  0  0  0  0  0
    2.7533  148.4017   51.9676 O   0  0  0  0  0  0  0  0  0  0  0  0
    2.1470  147.3083   51.2765 C   0  0  0  0  0  0  0  0  0  0  0  0
    1.5800  147.6571   50.4087 H   0  0  0  0  0  0  0  0  0  0  0  0
    1.4748  146.7684   51.9496 H   0  0  0  0  0  0  0  0  0  0  0  0
    2.9154  146.6116   50.9289 H   0  0  0  0  0  0  0  0  0  0  0  0
    3.8848  145.4291   56.4282 C   0  0  0  0  0  0  0  0  0  0  0  0
    4.2573  146.1305   57.1620 H   0  0  0  0  0  0  0  0  0  0  0  0
    3.7276  144.1188   56.7522 C   0  0  0  0  0  0  0  0  0  0  0  0
    4.0864  143.7501   57.9989 N   0  0  0  0  0  0  0  0  0  0  0  0
    4.4693  144.4539   58.6235 H   0  0  0  0  0  0  0  0  0  0  0  0
    4.0633  142.7696   58.2611 H   0  0  0  0  0  0  0  0  0  0  0  0
    3.2419  143.2146   55.8454 C   0  0  0  0  0  0  0  0  0  0  0  0
    3.1083  141.8302   56.1546 C   0  0  0  0  0  0  0  0  0  0  0  0
    3.0304  140.7001   56.4064 N   0  0  0  0  0  0  0  0  0  0  0  0
    1.2908  142.5987   51.5264 C   0  0  0  0  0  0  0  0  0  0  0  0
    0.4672  142.1048   52.0293 H   0  0  0  0  0  0  0  0  0  0  0  0
    1.2989  142.7861   50.1345 C   0  0  0  0  0  0  0  0  0  0  0  0
    0.4879  142.4186   49.5159 H   0  0  0  0  0  0  0  0  0  0  0  0
    2.3734  143.4366   49.5151 C   0  0  0  0  0  0  0  0  0  0  0  0
    2.3787  143.6721   47.7844 Cl  0  0  0  0  0  0  0  0  0  0  0  0
  1  2  1  0
  2  3  2  0
  3  4  1  0
  3  5  1  0
  5  6  1  0
  6  7  1  0
  6  8  1  0
  8  9  2  0
  9 10  1  0
 10 11  1  0
 11 12  1  0
 11 13  1  0
 13 14  2  0
 13 15  1  0
 15 16  1  0
 15 17  1  0
 15 18  1  0
 18 19  2  0
 19 20  1  0
 19 21  1  0
 21 22  1  0
 22 23  1  0
 23 24  1  0
 23 25  1  0
 23 26  1  0
 21 27  2  0
 27 28  1  0
 27 29  1  0
 29 30  1  0
 29 31  2  0
 31 32  1  0
 32 33  1  0
 33 34  1  0
 33 35  1  0
 33 36  1  0
 10 37  2  0
 37 38  1  0
 37 39  1  0
 39 40  1  0
 40 41  1  0
 40 42  1  0
 39 43  2  0
 43 44  1  0
 44 45  3  0
  5 46  2  0
 46 47  1  0
 46 48  1  0
 48 49  1  0
 48 50  2  0
 50 51  1  0
 50  2  1  0
 43  8  1  0
 31 18  1  0
M  END
>  <score>  (439) 
7.61987

$$$$

     RDKit          3D

 54 56  0  0  0  0  0  0  0  0999 V2000
    0.3079  149.2013   51.2525 H   0  0  0  0  0  0  0  0  0  0  0  0
    0.6586  149.6057   52.1954 C   0  0  0  0  0  0  0  0  0  0  0  0
   -0.1443  150.4992   52.9351 C   0  0  0  0  0  0  0  0  0  0  0  0
   -1.8695  150.9846   52.2772 Br  0  0  0  0  0  0  0  0  0  0  0  0
    0.3346  151.0584   54.1316 C   0  0  0  0  0  0  0  0  0  0  0  0
   -0.3779  151.9764   54.8609 O   0  0  0  0  0  0  0  0  0  0  0  0
   -1.4262  151.4041   55.6479 C   0  0  0  0  0  0  0  0  0  0  0  0
   -2.1529  150.8750   55.0218 H   0  0  0  0  0  0  0  0  0  0  0  0
   -1.9420  152.2017   56.1917 H   0  0  0  0  0  0  0  0  0  0  0  0
   -1.0140  150.7024   56.3753 H   0  0  0  0  0  0  0  0  0  0  0  0
    1.5973  150.6876   54.5731 C   0  0  0  0  0  0  0  0  0  0  0  0
    1.9902  151.1450   55.4719 H   0  0  0  0  0  0  0  0  0  0  0  0
    2.3794  149.7778   53.8605 C   0  0  0  0  0  0  0  0  0  0  0  0
    3.7251  149.4631   54.4005 C   0  0  0  0  0  0  0  0  0  0  0  0
    3.9969  150.3382   54.9791 H   0  0  0  0  0  0  0  0  0  0  0  0
    4.4111  149.3518   53.5592 H   0  0  0  0  0  0  0  0  0  0  0  0
    3.7446  148.1919   55.2603 C   0  0  0  0  0  0  0  0  0  0  0  0
    3.8471  148.2444   56.4766 O   0  0  0  0  0  0  0  0  0  0  0  0
    3.6980  146.9816   54.6266 N   0  0  0  0  0  0  0  0  0  0  0  0
    3.5183  146.9448   53.6365 H   0  0  0  0  0  0  0  0  0  0  0  0
    3.5443  145.7735   55.1949 C   0  0  0  0  0  0  0  0  0  0  0  0
    3.0831  144.9554   54.2803 N   0  0  0  0  0  0  0  0  0  0  0  0
    2.9345  143.6863   54.6152 C   0  0  0  0  0  0  0  0  0  0  0  0
    2.3659  142.8535   53.6760 N   0  0  0  0  0  0  0  0  0  0  0  0
    1.8404  142.0882   54.0641 H   0  0  0  0  0  0  0  0  0  0  0  0
    2.3316  143.0654   52.2895 C   0  0  0  0  0  0  0  0  0  0  0  0
    3.4138  143.6682   51.6504 C   0  0  0  0  0  0  0  0  0  0  0  0
    4.2605  143.9480   52.2597 H   0  0  0  0  0  0  0  0  0  0  0  0
    3.4276  143.8668   50.2575 C   0  0  0  0  0  0  0  0  0  0  0  0
    4.2842  144.3315   49.7797 H   0  0  0  0  0  0  0  0  0  0  0  0
    2.3428  143.4691   49.4693 C   0  0  0  0  0  0  0  0  0  0  0  0
    2.3286  143.7455   47.9823 C   0  0  0  0  0  0  0  0  0  0  0  0
    1.9116  144.7388   47.7830 H   0  0  0  0  0  0  0  0  0  0  0  0
    1.7212  143.0048   47.4525 H   0  0  0  0  0  0  0  0  0  0  0  0
    3.3445  143.7127   47.5768 H   0  0  0  0  0  0  0  0  0  0  0  0
    1.2702  142.8268   50.0972 C   0  0  0  0  0  0  0  0  0  0  0  0
    0.4557  142.4989   49.4625 H   0  0  0  0  0  0  0  0  0  0  0  0
    1.2613  142.6234   51.4970 C   0  0  0  0  0  0  0  0  0  0  0  0
    0.4216  142.1275   51.9703 H   0  0  0  0  0  0  0  0  0  0  0  0
    3.2395  143.1923   55.8722 C   0  0  0  0  0  0  0  0  0  0  0  0
    3.1093  141.8121   56.2016 C   0  0  0  0  0  0  0  0  0  0  0  0
    3.0249  140.6758   56.4402 N   0  0  0  0  0  0  0  0  0  0  0  0
    3.7273  144.0913   56.7812 C   0  0  0  0  0  0  0  0  0  0  0  0
    4.1341  143.7124   58.0048 N   0  0  0  0  0  0  0  0  0  0  0  0
    4.4892  144.4305   58.6330 H   0  0  0  0  0  0  0  0  0  0  0  0
    4.0564  142.7372   58.2863 H   0  0  0  0  0  0  0  0  0  0  0  0
    3.8775  145.4075   56.4701 C   0  0  0  0  0  0  0  0  0  0  0  0
    4.2929  146.1049   57.1824 H   0  0  0  0  0  0  0  0  0  0  0  0
    1.9343  149.2364   52.6489 C   0  0  0  0  0  0  0  0  0  0  0  0
    2.7765  148.4021   51.9477 O   0  0  0  0  0  0  0  0  0  0  0  0
    2.1674  147.2945   51.2807 C   0  0  0  0  0  0  0  0  0  0  0  0
    2.9539  146.6076   50.9492 H   0  0  0  0  0  0  0  0  0  0  0  0
    1.6028  147.6370   50.4082 H   0  0  0  0  0  0  0  0  0  0  0  0
    1.4969  146.7525   51.9574 H   0  0  0  0  0  0  0  0  0  0  0  0
  1  2  1  0
  2  3  2  0
  3  4  1  0
  3  5  1  0
  5  6  1  0
  6  7  1  0
  7  8  1  0
  7  9  1  0
  7 10  1  0
  5 11  2  0
 11 12  1  0
 11 13  1  0
 13 14  1  0
 14 15  1  0
 14 16  1  0
 14 17  1  0
 17 18  2  0
 17 19  1  0
 19 20  1  0
 19 21  1  0
 21 22  2  0
 22 23  1  0
 23 24  1  0
 24 25  1  0
 24 26  1  0
 26 27  2  0
 27 28  1  0
 27 29  1  0
 29 30  1  0
 29 31  2  0
 31 32  1  0
 32 33  1  0
 32 34  1  0
 32 35  1  0
 31 36  1  0
 36 37  1  0
 36 38  2  0
 38 39  1  0
 23 40  2  0
 40 41  1  0
 41 42  3  0
 40 43  1  0
 43 44  1  0
 44 45  1  0
 44 46  1  0
 43 47  2  0
 47 48  1  0
 13 49  2  0
 49 50  1  0
 50 51  1  0
 51 52  1  0
 51 53  1  0
 51 54  1  0
 49  2  1  0
 47 21  1  0
 38 26  1  0
M  END
>  <score>  (440) 
7.62215

$$$$

     RDKit          3D

 56 59  0  0  0  0  0  0  0  0999 V2000
    0.2526  149.1429   51.2559 H   0  0  0  0  0  0  0  0  0  0  0  0
    0.6104  149.5662   52.1875 C   0  0  0  0  0  0  0  0  0  0  0  0
   -0.1991  150.4750   52.8891 C   0  0  0  0  0  0  0  0  0  0  0  0
   -1.9336  150.9336   52.2183 Br  0  0  0  0  0  0  0  0  0  0  0  0
    0.2757  151.0492   54.0783 C   0  0  0  0  0  0  0  0  0  0  0  0
   -0.4377  151.9876   54.7694 O   0  0  0  0  0  0  0  0  0  0  0  0
   -1.4613  151.4046   55.5721 C   0  0  0  0  0  0  0  0  0  0  0  0
   -1.9976  152.1873   56.1156 H   0  0  0  0  0  0  0  0  0  0  0  0
   -1.0236  150.7153   56.2959 H   0  0  0  0  0  0  0  0  0  0  0  0
   -2.1718  150.8551   54.9488 H   0  0  0  0  0  0  0  0  0  0  0  0
    1.5236  150.6784   54.5656 C   0  0  0  0  0  0  0  0  0  0  0  0
    1.8732  151.1128   55.4967 H   0  0  0  0  0  0  0  0  0  0  0  0
    2.3337  149.7822   53.8683 C   0  0  0  0  0  0  0  0  0  0  0  0
    3.6827  149.4913   54.4585 C   0  0  0  0  0  0  0  0  0  0  0  0
    3.9157  150.3111   55.1249 H   0  0  0  0  0  0  0  0  0  0  0  0
    4.4375  149.4491   53.6703 H   0  0  0  0  0  0  0  0  0  0  0  0
    3.7215  148.2160   55.2791 C   0  0  0  0  0  0  0  0  0  0  0  0
    3.8074  148.2508   56.4940 O   0  0  0  0  0  0  0  0  0  0  0  0
    3.6968  147.0277   54.6326 N   0  0  0  0  0  0  0  0  0  0  0  0
    3.4295  147.0247   53.6594 H   0  0  0  0  0  0  0  0  0  0  0  0
    3.5185  145.8488   55.2465 C   0  0  0  0  0  0  0  0  0  0  0  0
    3.0106  145.0332   54.3658 N   0  0  0  0  0  0  0  0  0  0  0  0
    2.8628  143.7342   54.6466 C   0  0  0  0  0  0  0  0  0  0  0  0
    2.5405  142.8540   53.4744 C   0  0  0  0  0  0  0  0  0  0  0  0
    1.6945  143.1073   52.4819 N   0  0  0  0  0  0  0  0  0  0  0  0
    2.0793  142.2726   51.4442 C   0  0  0  0  0  0  0  0  0  0  0  0
    1.6296  142.2357   50.1309 C   0  0  0  0  0  0  0  0  0  0  0  0
    0.7856  142.8555   49.8426 H   0  0  0  0  0  0  0  0  0  0  0  0
    2.2836  141.4205   49.1948 C   0  0  0  0  0  0  0  0  0  0  0  0
    1.6753  141.2104   47.8914 C   0  0  0  0  0  0  0  0  0  0  0  0
    0.6448  141.7571   47.5290 O   0  0  0  0  0  0  0  0  0  0  0  0
    1.9990  140.0999   47.1767 N   0  0  0  0  0  0  0  0  0  0  0  0
    2.5764  139.4378   47.6958 H   0  0  0  0  0  0  0  0  0  0  0  0
    1.1937  139.7383   46.6657 H   0  0  0  0  0  0  0  0  0  0  0  0
    3.4608  140.7297   49.5656 C   0  0  0  0  0  0  0  0  0  0  0  0
    4.0334  140.1653   48.8293 H   0  0  0  0  0  0  0  0  0  0  0  0
    3.8714  140.7470   50.9014 C   0  0  0  0  0  0  0  0  0  0  0  0
    4.7592  140.2121   51.2118 H   0  0  0  0  0  0  0  0  0  0  0  0
    3.1517  141.4945   51.8263 C   0  0  0  0  0  0  0  0  0  0  0  0
    3.2994  141.7309   53.1634 N   0  0  0  0  0  0  0  0  0  0  0  0
    4.0084  141.2973   53.7485 H   0  0  0  0  0  0  0  0  0  0  0  0
    3.2264  143.2567   55.9143 C   0  0  0  0  0  0  0  0  0  0  0  0
    3.1722  141.8636   56.2241 C   0  0  0  0  0  0  0  0  0  0  0  0
    3.1504  140.7223   56.4330 N   0  0  0  0  0  0  0  0  0  0  0  0
    3.7141  144.1634   56.8429 C   0  0  0  0  0  0  0  0  0  0  0  0
    4.1137  143.7966   58.0926 N   0  0  0  0  0  0  0  0  0  0  0  0
    4.4787  144.5063   58.7239 H   0  0  0  0  0  0  0  0  0  0  0  0
    4.1105  142.8212   58.3796 H   0  0  0  0  0  0  0  0  0  0  0  0
    3.8738  145.4811   56.5133 C   0  0  0  0  0  0  0  0  0  0  0  0
    4.3072  146.1859   57.2042 H   0  0  0  0  0  0  0  0  0  0  0  0
    1.8911  149.2197   52.6586 C   0  0  0  0  0  0  0  0  0  0  0  0
    2.7381  148.3798   51.9737 O   0  0  0  0  0  0  0  0  0  0  0  0
    2.1136  147.3057   51.2645 C   0  0  0  0  0  0  0  0  0  0  0  0
    1.3987  146.7829   51.9084 H   0  0  0  0  0  0  0  0  0  0  0  0
    2.8789  146.5913   50.9477 H   0  0  0  0  0  0  0  0  0  0  0  0
    1.5926  147.6776   50.3778 H   0  0  0  0  0  0  0  0  0  0  0  0
  1  2  1  0
  2  3  2  0
  3  4  1  0
  3  5  1  0
  5  6  1  0
  6  7  1  0
  7  8  1  0
  7  9  1  0
  7 10  1  0
  5 11  2  0
 11 12  1  0
 11 13  1  0
 13 14  1  0
 14 15  1  0
 14 16  1  0
 14 17  1  0
 17 18  2  0
 17 19  1  0
 19 20  1  0
 19 21  1  0
 21 22  2  0
 22 23  1  0
 23 24  1  0
 24 25  2  0
 25 26  1  0
 26 27  2  0
 27 28  1  0
 27 29  1  0
 29 30  1  0
 30 31  2  0
 30 32  1  0
 32 33  1  0
 32 34  1  0
 29 35  2  0
 35 36  1  0
 35 37  1  0
 37 38  1  0
 37 39  2  0
 39 40  1  0
 40 41  1  0
 23 42  2  0
 42 43  1  0
 43 44  3  0
 42 45  1  0
 45 46  1  0
 46 47  1  0
 46 48  1  0
 45 49  2  0
 49 50  1  0
 13 51  2  0
 51 52  1  0
 52 53  1  0
 53 54  1  0
 53 55  1  0
 53 56  1  0
 51  2  1  0
 49 21  1  0
 40 24  1  0
 39 26  1  0
M  END
>  <score>  (441) 
7.64022

$$$$

     RDKit          3D

 54 56  0  0  0  0  0  0  0  0999 V2000
    3.8586  139.7706   52.4758 H   0  0  0  0  0  0  0  0  0  0  0  0
    3.2694  140.6765   52.5972 C   0  0  0  0  0  0  0  0  0  0  0  0
    2.4734  141.1410   51.5368 C   0  0  0  0  0  0  0  0  0  0  0  0
    2.4018  140.6094   50.6002 H   0  0  0  0  0  0  0  0  0  0  0  0
    1.7989  142.3578   51.6323 C   0  0  0  0  0  0  0  0  0  0  0  0
    1.0556  142.9426   50.5173 C   0  0  0  0  0  0  0  0  0  0  0  0
    0.7341  142.2784   49.5314 O   0  0  0  0  0  0  0  0  0  0  0  0
    0.6691  144.4126   50.5896 C   0  0  0  0  0  0  0  0  0  0  0  0
   -0.3418  144.5047   50.9958 H   0  0  0  0  0  0  0  0  0  0  0  0
    0.7346  144.8731   49.6002 H   0  0  0  0  0  0  0  0  0  0  0  0
    1.3568  144.9432   51.2549 H   0  0  0  0  0  0  0  0  0  0  0  0
    1.9505  143.1106   52.7936 C   0  0  0  0  0  0  0  0  0  0  0  0
    1.4773  144.0843   52.8499 H   0  0  0  0  0  0  0  0  0  0  0  0
    2.7677  142.6936   53.8509 C   0  0  0  0  0  0  0  0  0  0  0  0
    3.0877  143.6647   54.9168 C   0  0  0  0  0  0  0  0  0  0  0  0
    3.1291  144.9439   54.5288 N   0  0  0  0  0  0  0  0  0  0  0  0
    3.5695  145.8603   55.3573 C   0  0  0  0  0  0  0  0  0  0  0  0
    3.6337  147.0509   54.7346 N   0  0  0  0  0  0  0  0  0  0  0  0
    3.3757  147.0293   53.7627 H   0  0  0  0  0  0  0  0  0  0  0  0
    3.6619  148.2494   55.3763 C   0  0  0  0  0  0  0  0  0  0  0  0
    3.7974  148.2859   56.5850 O   0  0  0  0  0  0  0  0  0  0  0  0
    3.6100  149.5359   54.5675 C   0  0  0  0  0  0  0  0  0  0  0  0
    4.3994  149.5191   53.8144 H   0  0  0  0  0  0  0  0  0  0  0  0
    3.8023  150.3607   55.2517 H   0  0  0  0  0  0  0  0  0  0  0  0
    2.2767  149.7923   53.9120 C   0  0  0  0  0  0  0  0  0  0  0  0
    1.4426  150.7241   54.5366 C   0  0  0  0  0  0  0  0  0  0  0  0
    1.7658  151.2142   55.4495 H   0  0  0  0  0  0  0  0  0  0  0  0
    0.1994  151.0556   54.0060 C   0  0  0  0  0  0  0  0  0  0  0  0
   -0.5625  151.9845   54.6590 O   0  0  0  0  0  0  0  0  0  0  0  0
   -1.5401  151.3835   55.5107 C   0  0  0  0  0  0  0  0  0  0  0  0
   -2.3176  150.8989   54.9129 H   0  0  0  0  0  0  0  0  0  0  0  0
   -2.0062  152.1474   56.1401 H   0  0  0  0  0  0  0  0  0  0  0  0
   -1.0776  150.6355   56.1610 H   0  0  0  0  0  0  0  0  0  0  0  0
   -0.2340  150.4337   52.8261 C   0  0  0  0  0  0  0  0  0  0  0  0
   -1.9580  150.8372   52.0936 Br  0  0  0  0  0  0  0  0  0  0  0  0
    0.6030  149.5076   52.1858 C   0  0  0  0  0  0  0  0  0  0  0  0
    0.2795  149.0428   51.2613 H   0  0  0  0  0  0  0  0  0  0  0  0
    1.8638  149.1703   52.7137 C   0  0  0  0  0  0  0  0  0  0  0  0
    2.6933  148.2666   52.0853 O   0  0  0  0  0  0  0  0  0  0  0  0
    2.0384  147.3083   51.2389 C   0  0  0  0  0  0  0  0  0  0  0  0
    2.7697  146.6060   50.8271 H   0  0  0  0  0  0  0  0  0  0  0  0
    1.5239  147.7974   50.4051 H   0  0  0  0  0  0  0  0  0  0  0  0
    1.3046  146.7423   51.8210 H   0  0  0  0  0  0  0  0  0  0  0  0
    3.9511  145.6030   56.6403 C   0  0  0  0  0  0  0  0  0  0  0  0
    4.3263  146.3509   57.3220 H   0  0  0  0  0  0  0  0  0  0  0  0
    3.8578  144.3149   57.0509 C   0  0  0  0  0  0  0  0  0  0  0  0
    4.2036  144.1061   58.3287 N   0  0  0  0  0  0  0  0  0  0  0  0
    4.3312  143.1573   58.6718 H   0  0  0  0  0  0  0  0  0  0  0  0
    4.5341  144.9050   58.8636 H   0  0  0  0  0  0  0  0  0  0  0  0
    3.4478  143.3097   56.2077 C   0  0  0  0  0  0  0  0  0  0  0  0
    3.3937  141.9505   56.6327 C   0  0  0  0  0  0  0  0  0  0  0  0
    3.3419  140.8300   56.9354 N   0  0  0  0  0  0  0  0  0  0  0  0
    3.3823  141.4288   53.7758 C   0  0  0  0  0  0  0  0  0  0  0  0
    4.0162  141.0624   54.5837 H   0  0  0  0  0  0  0  0  0  0  0  0
  1  2  1  0
  2  3  2  0
  3  4  1  0
  3  5  1  0
  5  6  1  0
  6  7  2  0
  6  8  1  0
  8  9  1  0
  8 10  1  0
  8 11  1  0
  5 12  2  0
 12 13  1  0
 12 14  1  0
 14 15  1  0
 15 16  2  0
 16 17  1  0
 17 18  1  0
 18 19  1  0
 18 20  1  0
 20 21  2  0
 20 22  1  0
 22 23  1  0
 22 24  1  0
 22 25  1  0
 25 26  2  0
 26 27  1  0
 26 28  1  0
 28 29  1  0
 29 30  1  0
 30 31  1  0
 30 32  1  0
 30 33  1  0
 28 34  2  0
 34 35  1  0
 34 36  1  0
 36 37  1  0
 36 38  2  0
 38 39  1  0
 39 40  1  0
 40 41  1  0
 40 42  1  0
 40 43  1  0
 17 44  2  0
 44 45  1  0
 44 46  1  0
 46 47  1  0
 47 48  1  0
 47 49  1  0
 46 50  2  0
 50 51  1  0
 51 52  3  0
 14 53  2  0
 53 54  1  0
 53  2  1  0
 50 15  1  0
 38 25  1  0
M  END
>  <score>  (442) 
7.64401

$$$$

     RDKit          3D

 55 57  0  0  0  0  0  0  0  0999 V2000
    0.4042  144.7059   49.0548 H   0  0  0  0  0  0  0  0  0  0  0  0
    0.8147  144.3142   49.9753 C   0  0  0  0  0  0  0  0  0  0  0  0
    0.2408  144.6720   51.1898 C   0  0  0  0  0  0  0  0  0  0  0  0
   -0.6096  145.3445   51.1790 H   0  0  0  0  0  0  0  0  0  0  0  0
    0.7660  144.1597   52.3835 C   0  0  0  0  0  0  0  0  0  0  0  0
    0.3643  144.4742   53.3372 H   0  0  0  0  0  0  0  0  0  0  0  0
    1.8544  143.2814   52.3608 C   0  0  0  0  0  0  0  0  0  0  0  0
    2.4272  142.7839   53.5266 N   0  0  0  0  0  0  0  0  0  0  0  0
    3.1301  142.0832   53.3548 H   0  0  0  0  0  0  0  0  0  0  0  0
    2.8644  143.6494   54.4933 C   0  0  0  0  0  0  0  0  0  0  0  0
    3.0068  144.8981   54.1032 N   0  0  0  0  0  0  0  0  0  0  0  0
    3.4935  145.7402   54.9642 C   0  0  0  0  0  0  0  0  0  0  0  0
    3.5748  146.9718   54.4319 N   0  0  0  0  0  0  0  0  0  0  0  0
    3.2881  147.0508   53.4699 H   0  0  0  0  0  0  0  0  0  0  0  0
    3.6296  148.1030   55.1911 C   0  0  0  0  0  0  0  0  0  0  0  0
    3.7387  148.0354   56.3991 O   0  0  0  0  0  0  0  0  0  0  0  0
    3.6215  149.4683   54.5271 C   0  0  0  0  0  0  0  0  0  0  0  0
    3.8205  150.2344   55.2807 H   0  0  0  0  0  0  0  0  0  0  0  0
    4.4263  149.5000   53.7979 H   0  0  0  0  0  0  0  0  0  0  0  0
    2.3000  149.7815   53.8768 C   0  0  0  0  0  0  0  0  0  0  0  0
    1.4753  150.6828   54.5503 C   0  0  0  0  0  0  0  0  0  0  0  0
    1.7950  151.1020   55.4992 H   0  0  0  0  0  0  0  0  0  0  0  0
    0.2441  151.0587   54.0259 C   0  0  0  0  0  0  0  0  0  0  0  0
   -0.4916  151.9946   54.6962 O   0  0  0  0  0  0  0  0  0  0  0  0
   -1.4932  151.3984   55.5202 C   0  0  0  0  0  0  0  0  0  0  0  0
   -1.0428  150.6529   56.1799 H   0  0  0  0  0  0  0  0  0  0  0  0
   -1.9788  152.1625   56.1344 H   0  0  0  0  0  0  0  0  0  0  0  0
   -2.2540  150.9068   54.9076 H   0  0  0  0  0  0  0  0  0  0  0  0
   -0.2093  150.4648   52.8388 C   0  0  0  0  0  0  0  0  0  0  0  0
   -1.9499  150.8740   52.1538 Br  0  0  0  0  0  0  0  0  0  0  0  0
    0.5969  149.5338   52.1720 C   0  0  0  0  0  0  0  0  0  0  0  0
    0.2235  149.0749   51.2633 H   0  0  0  0  0  0  0  0  0  0  0  0
    1.8696  149.1953   52.6657 C   0  0  0  0  0  0  0  0  0  0  0  0
    2.6972  148.3147   52.0075 O   0  0  0  0  0  0  0  0  0  0  0  0
    2.0488  147.2832   51.2452 C   0  0  0  0  0  0  0  0  0  0  0  0
    1.5075  147.7022   50.3901 H   0  0  0  0  0  0  0  0  0  0  0  0
    2.7974  146.5756   50.8714 H   0  0  0  0  0  0  0  0  0  0  0  0
    1.3392  146.7309   51.8705 H   0  0  0  0  0  0  0  0  0  0  0  0
    3.8314  145.4239   56.2456 C   0  0  0  0  0  0  0  0  0  0  0  0
    4.1931  146.1726   56.9258 H   0  0  0  0  0  0  0  0  0  0  0  0
    3.6790  144.1308   56.6265 C   0  0  0  0  0  0  0  0  0  0  0  0
    3.9432  143.8177   57.9120 N   0  0  0  0  0  0  0  0  0  0  0  0
    4.3987  144.5221   58.4869 H   0  0  0  0  0  0  0  0  0  0  0  0
    4.0800  142.8377   58.1348 H   0  0  0  0  0  0  0  0  0  0  0  0
    3.2391  143.1940   55.7321 C   0  0  0  0  0  0  0  0  0  0  0  0
    3.1564  141.8026   56.0289 C   0  0  0  0  0  0  0  0  0  0  0  0
    3.1086  140.6556   56.2058 N   0  0  0  0  0  0  0  0  0  0  0  0
    2.4772  142.9956   51.1500 C   0  0  0  0  0  0  0  0  0  0  0  0
    3.7419  142.2795   51.1856 C   0  0  0  0  0  0  0  0  0  0  0  0
    4.1062  141.5825   52.1187 O   0  0  0  0  0  0  0  0  0  0  0  0
    4.6170  142.4302   50.1466 N   0  0  0  0  0  0  0  0  0  0  0  0
    5.5598  142.1093   50.3343 H   0  0  0  0  0  0  0  0  0  0  0  0
    4.4811  143.2425   49.5531 H   0  0  0  0  0  0  0  0  0  0  0  0
    1.9389  143.4942   49.9429 C   0  0  0  0  0  0  0  0  0  0  0  0
    2.4096  143.2797   48.9845 H   0  0  0  0  0  0  0  0  0  0  0  0
  1  2  1  0
  2  3  2  0
  3  4  1  0
  3  5  1  0
  5  6  1  0
  5  7  2  0
  7  8  1  0
  8  9  1  0
  8 10  1  0
 10 11  2  0
 11 12  1  0
 12 13  1  0
 13 14  1  0
 13 15  1  0
 15 16  2  0
 15 17  1  0
 17 18  1  0
 17 19  1  0
 17 20  1  0
 20 21  2  0
 21 22  1  0
 21 23  1  0
 23 24  1  0
 24 25  1  0
 25 26  1  0
 25 27  1  0
 25 28  1  0
 23 29  2  0
 29 30  1  0
 29 31  1  0
 31 32  1  0
 31 33  2  0
 33 34  1  0
 34 35  1  0
 35 36  1  0
 35 37  1  0
 35 38  1  0
 12 39  2  0
 39 40  1  0
 39 41  1  0
 41 42  1  0
 42 43  1  0
 42 44  1  0
 41 45  2  0
 45 46  1  0
 46 47  3  0
  7 48  1  0
 48 49  1  0
 49 50  2  0
 49 51  1  0
 51 52  1  0
 51 53  1  0
 48 54  2  0
 54 55  1  0
 54  2  1  0
 45 10  1  0
 33 20  1  0
M  END
>  <score>  (443) 
7.66503

$$$$
2gmx
     RDKit          3D

 48 49  0  0  0  0  0  0  0  0999 V2000
    0.6680  149.6310   52.1780 C   0  0  0  0  0  0  0  0  0  0  0  0
    3.0090  140.6200   56.4870 N   0  0  0  0  0  0  0  0  0  0  0  0
    1.9620  149.2640   52.6280 C   0  0  0  0  0  0  0  0  0  0  0  0
    2.4660  149.8330   53.8590 C   0  0  0  0  0  0  0  0  0  0  0  0
    1.6570  150.7410   54.6000 C   0  0  0  0  0  0  0  0  0  0  0  0
    0.3580  151.1130   54.1650 C   0  0  0  0  0  0  0  0  0  0  0  0
   -0.1340  150.5380   52.9220 C   0  0  0  0  0  0  0  0  0  0  0  0
    3.8340  149.4930   54.3900 C   0  0  0  0  0  0  0  0  0  0  0  0
    3.7760  148.3010   55.3550 C   0  0  0  0  0  0  0  0  0  0  0  0
    3.6080  147.1180   54.7070 N   0  0  0  0  0  0  0  0  0  0  0  0
    3.5230  145.8440   55.1920 C   0  0  0  0  0  0  0  0  0  0  0  0
    3.8880  148.4710   56.5680 O   0  0  0  0  0  0  0  0  0  0  0  0
    3.0190  144.9720   54.2890 N   0  0  0  0  0  0  0  0  0  0  0  0
    2.8790  143.6460   54.6100 C   0  0  0  0  0  0  0  0  0  0  0  0
    3.2540  143.1490   55.8980 C   0  0  0  0  0  0  0  0  0  0  0  0
    3.7840  144.0620   56.8580 C   0  0  0  0  0  0  0  0  0  0  0  0
    3.9180  145.4220   56.4980 C   0  0  0  0  0  0  0  0  0  0  0  0
   -0.4210  152.0200   54.9250 O   0  0  0  0  0  0  0  0  0  0  0  0
   -1.4550  151.4120   55.7020 C   0  0  0  0  0  0  0  0  0  0  0  0
    2.7960  148.3740   51.9370 O   0  0  0  0  0  0  0  0  0  0  0  0
    2.1840  147.2640   51.2740 C   0  0  0  0  0  0  0  0  0  0  0  0
    4.1700  143.6740   58.1190 N   0  0  0  0  0  0  0  0  0  0  0  0
    3.1040  141.7440   56.2230 C   0  0  0  0  0  0  0  0  0  0  0  0
   -1.8550  150.9620   52.2300 Br  0  0  0  0  0  0  0  0  0  0  0  0
    0.0000    0.0000    0.0000 H   0  0  0  0  0  0  0  0  0  0  0  0
    0.0000    0.0000    0.0000 H   0  0  0  0  0  0  0  0  0  0  0  0
    0.0000    0.0000    0.0000 H   0  0  0  0  0  0  0  0  0  0  0  0
    0.0000    0.0000    0.0000 H   0  0  0  0  0  0  0  0  0  0  0  0
    0.0000    0.0000    0.0000 H   0  0  0  0  0  0  0  0  0  0  0  0
    0.0000    0.0000    0.0000 H   0  0  0  0  0  0  0  0  0  0  0  0
    0.0000    0.0000    0.0000 H   0  0  0  0  0  0  0  0  0  0  0  0
    0.0000    0.0000    0.0000 H   0  0  0  0  0  0  0  0  0  0  0  0
    0.0000    0.0000    0.0000 H   0  0  0  0  0  0  0  0  0  0  0  0
    0.0000    0.0000    0.0000 H   0  0  0  0  0  0  0  0  0  0  0  0
    0.0000    0.0000    0.0000 H   0  0  0  0  0  0  0  0  0  0  0  0
    0.0000    0.0000    0.0000 H   0  0  0  0  0  0  0  0  0  0  0  0
    0.0000    0.0000    0.0000 H   0  0  0  0  0  0  0  0  0  0  0  0
    0.0000    0.0000    0.0000 H   0  0  0  0  0  0  0  0  0  0  0  0
    1.4315   71.4238   27.1533 C   0  0  0  0  0  0  0  0  0  0  0  0
    0.0750   71.0114   26.6347 C   0  0  0  0  0  0  0  0  0  0  0  0
    2.4278   71.2152   26.0268 C   0  0  0  0  0  0  0  0  0  0  0  0
    1.7074   70.7905   28.0382 H   0  0  0  0  0  0  0  0  0  0  0  0
   -0.0061   71.1535   25.5320 H   0  0  0  0  0  0  0  0  0  0  0  0
   -0.0358   69.9235   26.8421 H   0  0  0  0  0  0  0  0  0  0  0  0
   -0.7141   71.5920   27.1074 H   0  0  0  0  0  0  0  0  0  0  0  0
    2.7583   72.2251   25.6826 H   0  0  0  0  0  0  0  0  0  0  0  0
    3.2717   70.5859   26.3738 H   0  0  0  0  0  0  0  0  0  0  0  0
    1.9739   70.6598   25.1690 H   0  0  0  0  0  0  0  0  0  0  0  0
  1  3  2  0
  1  7  1  0
  2 23  3  0
  3  4  1  0
  3 20  1  0
  4  5  2  0
  4  8  1  0
  5  6  1  0
  6  7  2  0
  6 18  1  0
  7 24  1  0
  8  9  1  0
  9 10  1  0
  9 12  2  0
 10 11  1  0
 11 13  2  0
 11 17  1  0
 13 14  1  0
 14 15  2  0
 15 16  1  0
 15 23  1  0
 16 17  2  0
 16 22  1  0
 18 19  1  0
 20 21  1  0
  1 25  1  0
  5 26  1  0
  8 27  1  0
  8 28  1  0
 10 29  1  0
 17 30  1  0
 19 31  1  0
 19 32  1  0
 19 33  1  0
 21 34  1  0
 21 35  1  0
 21 36  1  0
 22 37  1  0
 22 38  1  0
 39 40  1  0
 39 41  1  0
 39 42  1  0
 40 43  1  0
 40 44  1  0
 40 45  1  0
 41 46  1  0
 41 47  1  0
 41 48  1  0
 14 39  1  0
M  END
>  <attachment_point>  (444) 
29

>  <score>  (444) 
<NA>

$$$$
2gmx
     RDKit          3D

 51 52  0  0  0  0  0  0  0  0999 V2000
    0.6680  149.6310   52.1780 C   0  0  0  0  0  0  0  0  0  0  0  0
    3.0090  140.6200   56.4870 N   0  0  0  0  0  0  0  0  0  0  0  0
    1.9620  149.2640   52.6280 C   0  0  0  0  0  0  0  0  0  0  0  0
    2.4660  149.8330   53.8590 C   0  0  0  0  0  0  0  0  0  0  0  0
    1.6570  150.7410   54.6000 C   0  0  0  0  0  0  0  0  0  0  0  0
    0.3580  151.1130   54.1650 C   0  0  0  0  0  0  0  0  0  0  0  0
   -0.1340  150.5380   52.9220 C   0  0  0  0  0  0  0  0  0  0  0  0
    3.8340  149.4930   54.3900 C   0  0  0  0  0  0  0  0  0  0  0  0
    3.7760  148.3010   55.3550 C   0  0  0  0  0  0  0  0  0  0  0  0
    3.6080  147.1180   54.7070 N   0  0  0  0  0  0  0  0  0  0  0  0
    3.5230  145.8440   55.1920 C   0  0  0  0  0  0  0  0  0  0  0  0
    3.8880  148.4710   56.5680 O   0  0  0  0  0  0  0  0  0  0  0  0
    3.0190  144.9720   54.2890 N   0  0  0  0  0  0  0  0  0  0  0  0
    2.8790  143.6460   54.6100 C   0  0  0  0  0  0  0  0  0  0  0  0
    3.2540  143.1490   55.8980 C   0  0  0  0  0  0  0  0  0  0  0  0
    3.7840  144.0620   56.8580 C   0  0  0  0  0  0  0  0  0  0  0  0
    3.9180  145.4220   56.4980 C   0  0  0  0  0  0  0  0  0  0  0  0
   -0.4210  152.0200   54.9250 O   0  0  0  0  0  0  0  0  0  0  0  0
   -1.4550  151.4120   55.7020 C   0  0  0  0  0  0  0  0  0  0  0  0
    2.7960  148.3740   51.9370 O   0  0  0  0  0  0  0  0  0  0  0  0
    2.1840  147.2640   51.2740 C   0  0  0  0  0  0  0  0  0  0  0  0
    4.1700  143.6740   58.1190 N   0  0  0  0  0  0  0  0  0  0  0  0
    3.1040  141.7440   56.2230 C   0  0  0  0  0  0  0  0  0  0  0  0
   -1.8550  150.9620   52.2300 Br  0  0  0  0  0  0  0  0  0  0  0  0
    0.0000    0.0000    0.0000 H   0  0  0  0  0  0  0  0  0  0  0  0
    0.0000    0.0000    0.0000 H   0  0  0  0  0  0  0  0  0  0  0  0
    0.0000    0.0000    0.0000 H   0  0  0  0  0  0  0  0  0  0  0  0
    0.0000    0.0000    0.0000 H   0  0  0  0  0  0  0  0  0  0  0  0
    0.0000    0.0000    0.0000 H   0  0  0  0  0  0  0  0  0  0  0  0
    0.0000    0.0000    0.0000 H   0  0  0  0  0  0  0  0  0  0  0  0
    0.0000    0.0000    0.0000 H   0  0  0  0  0  0  0  0  0  0  0  0
    0.0000    0.0000    0.0000 H   0  0  0  0  0  0  0  0  0  0  0  0
    0.0000    0.0000    0.0000 H   0  0  0  0  0  0  0  0  0  0  0  0
    0.0000    0.0000    0.0000 H   0  0  0  0  0  0  0  0  0  0  0  0
    0.0000    0.0000    0.0000 H   0  0  0  0  0  0  0  0  0  0  0  0
    0.0000    0.0000    0.0000 H   0  0  0  0  0  0  0  0  0  0  0  0
    0.0000    0.0000    0.0000 H   0  0  0  0  0  0  0  0  0  0  0  0
    0.0000    0.0000    0.0000 H   0  0  0  0  0  0  0  0  0  0  0  0
    1.4308   71.3889   27.1400 C   0  0  0  0  0  0  0  0  0  0  0  0
    2.6398   71.3411   26.2570 C   0  0  0  0  0  0  0  0  0  0  0  0
    0.1356   71.3338   26.3951 C   0  0  0  0  0  0  0  0  0  0  0  0
    1.5041   70.4939   28.3247 C   0  0  0  0  0  0  0  0  0  0  0  0
    2.5851   70.5290   25.5150 H   0  0  0  0  0  0  0  0  0  0  0  0
    3.5316   71.2591   26.9282 H   0  0  0  0  0  0  0  0  0  0  0  0
    2.7936   72.3070   25.7031 H   0  0  0  0  0  0  0  0  0  0  0  0
    0.1915   72.0749   25.5680 H   0  0  0  0  0  0  0  0  0  0  0  0
   -0.6835   71.6937   27.0666 H   0  0  0  0  0  0  0  0  0  0  0  0
   -0.0471   70.3032   26.0433 H   0  0  0  0  0  0  0  0  0  0  0  0
    0.4988   70.2511   28.7173 H   0  0  0  0  0  0  0  0  0  0  0  0
    2.1336   70.9057   29.1567 H   0  0  0  0  0  0  0  0  0  0  0  0
    1.9966   69.5408   28.0283 H   0  0  0  0  0  0  0  0  0  0  0  0
  1  3  2  0
  1  7  1  0
  2 23  3  0
  3  4  1  0
  3 20  1  0
  4  5  2  0
  4  8  1  0
  5  6  1  0
  6  7  2  0
  6 18  1  0
  7 24  1  0
  8  9  1  0
  9 10  1  0
  9 12  2  0
 10 11  1  0
 11 13  2  0
 11 17  1  0
 13 14  1  0
 14 15  2  0
 15 16  1  0
 15 23  1  0
 16 17  2  0
 16 22  1  0
 18 19  1  0
 20 21  1  0
  1 25  1  0
  5 26  1  0
  8 27  1  0
  8 28  1  0
 10 29  1  0
 17 30  1  0
 19 31  1  0
 19 32  1  0
 19 33  1  0
 21 34  1  0
 21 35  1  0
 21 36  1  0
 22 37  1  0
 22 38  1  0
 39 40  1  0
 39 41  1  0
 39 42  1  0
 40 43  1  0
 40 44  1  0
 40 45  1  0
 41 46  1  0
 41 47  1  0
 41 48  1  0
 42 49  1  0
 42 50  1  0
 42 51  1  0
 14 39  1  0
M  END
>  <attachment_point>  (445) 
29

>  <score>  (445) 
<NA>

$$$$
2gmx
     RDKit          3D

 53 55  0  0  0  0  0  0  0  0999 V2000
    0.6680  149.6310   52.1780 C   0  0  0  0  0  0  0  0  0  0  0  0
    3.0090  140.6200   56.4870 N   0  0  0  0  0  0  0  0  0  0  0  0
    1.9620  149.2640   52.6280 C   0  0  0  0  0  0  0  0  0  0  0  0
    2.4660  149.8330   53.8590 C   0  0  0  0  0  0  0  0  0  0  0  0
    1.6570  150.7410   54.6000 C   0  0  0  0  0  0  0  0  0  0  0  0
    0.3580  151.1130   54.1650 C   0  0  0  0  0  0  0  0  0  0  0  0
   -0.1340  150.5380   52.9220 C   0  0  0  0  0  0  0  0  0  0  0  0
    3.8340  149.4930   54.3900 C   0  0  0  0  0  0  0  0  0  0  0  0
    3.7760  148.3010   55.3550 C   0  0  0  0  0  0  0  0  0  0  0  0
    3.6080  147.1180   54.7070 N   0  0  0  0  0  0  0  0  0  0  0  0
    3.5230  145.8440   55.1920 C   0  0  0  0  0  0  0  0  0  0  0  0
    3.8880  148.4710   56.5680 O   0  0  0  0  0  0  0  0  0  0  0  0
    3.0190  144.9720   54.2890 N   0  0  0  0  0  0  0  0  0  0  0  0
    2.8790  143.6460   54.6100 C   0  0  0  0  0  0  0  0  0  0  0  0
    3.2540  143.1490   55.8980 C   0  0  0  0  0  0  0  0  0  0  0  0
    3.7840  144.0620   56.8580 C   0  0  0  0  0  0  0  0  0  0  0  0
    3.9180  145.4220   56.4980 C   0  0  0  0  0  0  0  0  0  0  0  0
   -0.4210  152.0200   54.9250 O   0  0  0  0  0  0  0  0  0  0  0  0
   -1.4550  151.4120   55.7020 C   0  0  0  0  0  0  0  0  0  0  0  0
    2.7960  148.3740   51.9370 O   0  0  0  0  0  0  0  0  0  0  0  0
    2.1840  147.2640   51.2740 C   0  0  0  0  0  0  0  0  0  0  0  0
    4.1700  143.6740   58.1190 N   0  0  0  0  0  0  0  0  0  0  0  0
    3.1040  141.7440   56.2230 C   0  0  0  0  0  0  0  0  0  0  0  0
   -1.8550  150.9620   52.2300 Br  0  0  0  0  0  0  0  0  0  0  0  0
    0.0000    0.0000    0.0000 H   0  0  0  0  0  0  0  0  0  0  0  0
    0.0000    0.0000    0.0000 H   0  0  0  0  0  0  0  0  0  0  0  0
    0.0000    0.0000    0.0000 H   0  0  0  0  0  0  0  0  0  0  0  0
    0.0000    0.0000    0.0000 H   0  0  0  0  0  0  0  0  0  0  0  0
    0.0000    0.0000    0.0000 H   0  0  0  0  0  0  0  0  0  0  0  0
    0.0000    0.0000    0.0000 H   0  0  0  0  0  0  0  0  0  0  0  0
    0.0000    0.0000    0.0000 H   0  0  0  0  0  0  0  0  0  0  0  0
    0.0000    0.0000    0.0000 H   0  0  0  0  0  0  0  0  0  0  0  0
    0.0000    0.0000    0.0000 H   0  0  0  0  0  0  0  0  0  0  0  0
    0.0000    0.0000    0.0000 H   0  0  0  0  0  0  0  0  0  0  0  0
    0.0000    0.0000    0.0000 H   0  0  0  0  0  0  0  0  0  0  0  0
    0.0000    0.0000    0.0000 H   0  0  0  0  0  0  0  0  0  0  0  0
    0.0000    0.0000    0.0000 H   0  0  0  0  0  0  0  0  0  0  0  0
    0.0000    0.0000    0.0000 H   0  0  0  0  0  0  0  0  0  0  0  0
    1.4316   71.4273   27.1546 C   0  0  0  0  0  0  0  0  0  0  0  0
    2.5425   70.7692   26.6722 C   0  0  0  0  0  0  0  0  0  0  0  0
    2.4231   69.4649   26.1955 C   0  0  0  0  0  0  0  0  0  0  0  0
    1.2147   68.8038   26.1911 C   0  0  0  0  0  0  0  0  0  0  0  0
    1.1299   67.4965   25.7061 O   0  0  0  0  0  0  0  0  0  0  0  0
    2.2307   66.8003   25.2111 C   0  0  0  0  0  0  0  0  0  0  0  0
    0.1021   69.4520   26.6699 C   0  0  0  0  0  0  0  0  0  0  0  0
    0.2285   70.7492   27.1424 C   0  0  0  0  0  0  0  0  0  0  0  0
    3.5083   71.2547   26.6593 H   0  0  0  0  0  0  0  0  0  0  0  0
    3.3004   68.9613   25.8208 H   0  0  0  0  0  0  0  0  0  0  0  0
    2.6020   67.1542   24.2358 H   0  0  0  0  0  0  0  0  0  0  0  0
    3.0749   66.9347   25.9354 H   0  0  0  0  0  0  0  0  0  0  0  0
    1.9782   65.7242   25.1650 H   0  0  0  0  0  0  0  0  0  0  0  0
   -0.8322   68.9150   26.6565 H   0  0  0  0  0  0  0  0  0  0  0  0
   -0.6489   71.2403   27.5124 H   0  0  0  0  0  0  0  0  0  0  0  0
  1  3  2  0
  1  7  1  0
  2 23  3  0
  3  4  1  0
  3 20  1  0
  4  5  2  0
  4  8  1  0
  5  6  1  0
  6  7  2  0
  6 18  1  0
  7 24  1  0
  8  9  1  0
  9 10  1  0
  9 12  2  0
 10 11  1  0
 11 13  2  0
 11 17  1  0
 13 14  1  0
 14 15  2  0
 15 16  1  0
 15 23  1  0
 16 17  2  0
 16 22  1  0
 18 19  1  0
 20 21  1  0
  1 25  1  0
  5 26  1  0
  8 27  1  0
  8 28  1  0
 10 29  1  0
 17 30  1  0
 19 31  1  0
 19 32  1  0
 19 33  1  0
 21 34  1  0
 21 35  1  0
 21 36  1  0
 22 37  1  0
 22 38  1  0
 39 40  2  0
 40 41  1  0
 41 42  2  0
 42 43  1  0
 43 44  1  0
 42 45  1  0
 45 46  2  0
 46 39  1  0
 40 47  1  0
 41 48  1  0
 44 49  1  0
 44 50  1  0
 44 51  1  0
 45 52  1  0
 46 53  1  0
 14 39  1  0
M  END
>  <attachment_point>  (446) 
29

>  <score>  (446) 
<NA>

$$$$
2gmx
     RDKit          3D

 55 57  0  0  0  0  0  0  0  0999 V2000
    0.6680  149.6310   52.1780 C   0  0  0  0  0  0  0  0  0  0  0  0
    3.0090  140.6200   56.4870 N   0  0  0  0  0  0  0  0  0  0  0  0
    1.9620  149.2640   52.6280 C   0  0  0  0  0  0  0  0  0  0  0  0
    2.4660  149.8330   53.8590 C   0  0  0  0  0  0  0  0  0  0  0  0
    1.6570  150.7410   54.6000 C   0  0  0  0  0  0  0  0  0  0  0  0
    0.3580  151.1130   54.1650 C   0  0  0  0  0  0  0  0  0  0  0  0
   -0.1340  150.5380   52.9220 C   0  0  0  0  0  0  0  0  0  0  0  0
    3.8340  149.4930   54.3900 C   0  0  0  0  0  0  0  0  0  0  0  0
    3.7760  148.3010   55.3550 C   0  0  0  0  0  0  0  0  0  0  0  0
    3.6080  147.1180   54.7070 N   0  0  0  0  0  0  0  0  0  0  0  0
    3.5230  145.8440   55.1920 C   0  0  0  0  0  0  0  0  0  0  0  0
    3.8880  148.4710   56.5680 O   0  0  0  0  0  0  0  0  0  0  0  0
    3.0190  144.9720   54.2890 N   0  0  0  0  0  0  0  0  0  0  0  0
    2.8790  143.6460   54.6100 C   0  0  0  0  0  0  0  0  0  0  0  0
    3.2540  143.1490   55.8980 C   0  0  0  0  0  0  0  0  0  0  0  0
    3.7840  144.0620   56.8580 C   0  0  0  0  0  0  0  0  0  0  0  0
    3.9180  145.4220   56.4980 C   0  0  0  0  0  0  0  0  0  0  0  0
   -0.4210  152.0200   54.9250 O   0  0  0  0  0  0  0  0  0  0  0  0
   -1.4550  151.4120   55.7020 C   0  0  0  0  0  0  0  0  0  0  0  0
    2.7960  148.3740   51.9370 O   0  0  0  0  0  0  0  0  0  0  0  0
    2.1840  147.2640   51.2740 C   0  0  0  0  0  0  0  0  0  0  0  0
    4.1700  143.6740   58.1190 N   0  0  0  0  0  0  0  0  0  0  0  0
    3.1040  141.7440   56.2230 C   0  0  0  0  0  0  0  0  0  0  0  0
   -1.8550  150.9620   52.2300 Br  0  0  0  0  0  0  0  0  0  0  0  0
    0.0000    0.0000    0.0000 H   0  0  0  0  0  0  0  0  0  0  0  0
    0.0000    0.0000    0.0000 H   0  0  0  0  0  0  0  0  0  0  0  0
    0.0000    0.0000    0.0000 H   0  0  0  0  0  0  0  0  0  0  0  0
    0.0000    0.0000    0.0000 H   0  0  0  0  0  0  0  0  0  0  0  0
    0.0000    0.0000    0.0000 H   0  0  0  0  0  0  0  0  0  0  0  0
    0.0000    0.0000    0.0000 H   0  0  0  0  0  0  0  0  0  0  0  0
    0.0000    0.0000    0.0000 H   0  0  0  0  0  0  0  0  0  0  0  0
    0.0000    0.0000    0.0000 H   0  0  0  0  0  0  0  0  0  0  0  0
    0.0000    0.0000    0.0000 H   0  0  0  0  0  0  0  0  0  0  0  0
    0.0000    0.0000    0.0000 H   0  0  0  0  0  0  0  0  0  0  0  0
    0.0000    0.0000    0.0000 H   0  0  0  0  0  0  0  0  0  0  0  0
    0.0000    0.0000    0.0000 H   0  0  0  0  0  0  0  0  0  0  0  0
    0.0000    0.0000    0.0000 H   0  0  0  0  0  0  0  0  0  0  0  0
    0.0000    0.0000    0.0000 H   0  0  0  0  0  0  0  0  0  0  0  0
    1.4315   71.4251   27.1537 C   0  0  0  0  0  0  0  0  0  0  0  0
    0.6090   70.5790   28.1267 C   0  0  0  0  0  0  0  0  0  0  0  0
   -0.7707   71.1149   28.2276 C   0  0  0  0  0  0  0  0  0  0  0  0
   -1.1240   72.0726   29.1600 C   0  0  0  0  0  0  0  0  0  0  0  0
   -2.4199   72.5450   29.2206 C   0  0  0  0  0  0  0  0  0  0  0  0
   -3.4122   72.0985   28.3739 C   0  0  0  0  0  0  0  0  0  0  0  0
   -3.0606   71.1431   27.4433 C   0  0  0  0  0  0  0  0  0  0  0  0
   -1.7642   70.6679   27.3798 C   0  0  0  0  0  0  0  0  0  0  0  0
    1.0425   71.3554   26.1342 H   0  0  0  0  0  0  0  0  0  0  0  0
    2.4624   71.0337   27.2083 H   0  0  0  0  0  0  0  0  0  0  0  0
    0.5997   69.5361   27.7257 H   0  0  0  0  0  0  0  0  0  0  0  0
    1.1516   70.5845   29.0843 H   0  0  0  0  0  0  0  0  0  0  0  0
   -0.3690   72.4371   29.8318 H   0  0  0  0  0  0  0  0  0  0  0  0
   -2.7268   73.3046   29.9508 H   0  0  0  0  0  0  0  0  0  0  0  0
   -4.4269   72.4835   28.4379 H   0  0  0  0  0  0  0  0  0  0  0  0
   -3.8225   70.7770   26.7675 H   0  0  0  0  0  0  0  0  0  0  0  0
   -1.4807   69.9095   26.6427 H   0  0  0  0  0  0  0  0  0  0  0  0
  1  3  2  0
  1  7  1  0
  2 23  3  0
  3  4  1  0
  3 20  1  0
  4  5  2  0
  4  8  1  0
  5  6  1  0
  6  7  2  0
  6 18  1  0
  7 24  1  0
  8  9  1  0
  9 10  1  0
  9 12  2  0
 10 11  1  0
 11 13  2  0
 11 17  1  0
 13 14  1  0
 14 15  2  0
 15 16  1  0
 15 23  1  0
 16 17  2  0
 16 22  1  0
 18 19  1  0
 20 21  1  0
  1 25  1  0
  5 26  1  0
  8 27  1  0
  8 28  1  0
 10 29  1  0
 17 30  1  0
 19 31  1  0
 19 32  1  0
 19 33  1  0
 21 34  1  0
 21 35  1  0
 21 36  1  0
 22 37  1  0
 22 38  1  0
 39 40  1  0
 40 41  1  0
 41 42  2  0
 42 43  1  0
 43 44  2  0
 44 45  1  0
 45 46  2  0
 46 41  1  0
 39 47  1  0
 39 48  1  0
 40 49  1  0
 40 50  1  0
 42 51  1  0
 43 52  1  0
 44 53  1  0
 45 54  1  0
 46 55  1  0
 14 39  1  0
M  END
>  <attachment_point>  (447) 
29

>  <score>  (447) 
<NA>

$$$$
2gmx
     RDKit          3D

 52 54  0  0  0  0  0  0  0  0999 V2000
    0.6680  149.6310   52.1780 C   0  0  0  0  0  0  0  0  0  0  0  0
    3.0090  140.6200   56.4870 N   0  0  0  0  0  0  0  0  0  0  0  0
    1.9620  149.2640   52.6280 C   0  0  0  0  0  0  0  0  0  0  0  0
    2.4660  149.8330   53.8590 C   0  0  0  0  0  0  0  0  0  0  0  0
    1.6570  150.7410   54.6000 C   0  0  0  0  0  0  0  0  0  0  0  0
    0.3580  151.1130   54.1650 C   0  0  0  0  0  0  0  0  0  0  0  0
   -0.1340  150.5380   52.9220 C   0  0  0  0  0  0  0  0  0  0  0  0
    3.8340  149.4930   54.3900 C   0  0  0  0  0  0  0  0  0  0  0  0
    3.7760  148.3010   55.3550 C   0  0  0  0  0  0  0  0  0  0  0  0
    3.6080  147.1180   54.7070 N   0  0  0  0  0  0  0  0  0  0  0  0
    3.5230  145.8440   55.1920 C   0  0  0  0  0  0  0  0  0  0  0  0
    3.8880  148.4710   56.5680 O   0  0  0  0  0  0  0  0  0  0  0  0
    3.0190  144.9720   54.2890 N   0  0  0  0  0  0  0  0  0  0  0  0
    2.8790  143.6460   54.6100 C   0  0  0  0  0  0  0  0  0  0  0  0
    3.2540  143.1490   55.8980 C   0  0  0  0  0  0  0  0  0  0  0  0
    3.7840  144.0620   56.8580 C   0  0  0  0  0  0  0  0  0  0  0  0
    3.9180  145.4220   56.4980 C   0  0  0  0  0  0  0  0  0  0  0  0
   -0.4210  152.0200   54.9250 O   0  0  0  0  0  0  0  0  0  0  0  0
   -1.4550  151.4120   55.7020 C   0  0  0  0  0  0  0  0  0  0  0  0
    2.7960  148.3740   51.9370 O   0  0  0  0  0  0  0  0  0  0  0  0
    2.1840  147.2640   51.2740 C   0  0  0  0  0  0  0  0  0  0  0  0
    4.1700  143.6740   58.1190 N   0  0  0  0  0  0  0  0  0  0  0  0
    3.1040  141.7440   56.2230 C   0  0  0  0  0  0  0  0  0  0  0  0
   -1.8550  150.9620   52.2300 Br  0  0  0  0  0  0  0  0  0  0  0  0
    0.0000    0.0000    0.0000 H   0  0  0  0  0  0  0  0  0  0  0  0
    0.0000    0.0000    0.0000 H   0  0  0  0  0  0  0  0  0  0  0  0
    0.0000    0.0000    0.0000 H   0  0  0  0  0  0  0  0  0  0  0  0
    0.0000    0.0000    0.0000 H   0  0  0  0  0  0  0  0  0  0  0  0
    0.0000    0.0000    0.0000 H   0  0  0  0  0  0  0  0  0  0  0  0
    0.0000    0.0000    0.0000 H   0  0  0  0  0  0  0  0  0  0  0  0
    0.0000    0.0000    0.0000 H   0  0  0  0  0  0  0  0  0  0  0  0
    0.0000    0.0000    0.0000 H   0  0  0  0  0  0  0  0  0  0  0  0
    0.0000    0.0000    0.0000 H   0  0  0  0  0  0  0  0  0  0  0  0
    0.0000    0.0000    0.0000 H   0  0  0  0  0  0  0  0  0  0  0  0
    0.0000    0.0000    0.0000 H   0  0  0  0  0  0  0  0  0  0  0  0
    0.0000    0.0000    0.0000 H   0  0  0  0  0  0  0  0  0  0  0  0
    0.0000    0.0000    0.0000 H   0  0  0  0  0  0  0  0  0  0  0  0
    0.0000    0.0000    0.0000 H   0  0  0  0  0  0  0  0  0  0  0  0
    1.4299   71.3452   27.1234 C   0  0  0  0  0  0  0  0  0  0  0  0
    2.0540   70.3926   27.8152 C   0  0  0  0  0  0  0  0  0  0  0  0
    2.0105   69.0895   27.2914 C   0  0  0  0  0  0  0  0  0  0  0  0
    1.3518   68.8248   26.1198 C   0  0  0  0  0  0  0  0  0  0  0  0
    1.3176   67.4356   25.5812 C   0  0  0  0  0  0  0  0  0  0  0  0
    0.7187   69.8306   25.4315 C   0  0  0  0  0  0  0  0  0  0  0  0
    0.7743   71.1373   25.9767 C   0  0  0  0  0  0  0  0  0  0  0  0
    2.5816   70.5747   28.7433 H   0  0  0  0  0  0  0  0  0  0  0  0
    2.4951   68.2745   27.8026 H   0  0  0  0  0  0  0  0  0  0  0  0
    0.2875   67.1329   25.2763 H   0  0  0  0  0  0  0  0  0  0  0  0
    2.0122   67.3139   24.7257 H   0  0  0  0  0  0  0  0  0  0  0  0
    1.6262   66.7301   26.3998 H   0  0  0  0  0  0  0  0  0  0  0  0
    0.2057   69.6291   24.5206 H   0  0  0  0  0  0  0  0  0  0  0  0
    0.2758   71.9292   25.4346 H   0  0  0  0  0  0  0  0  0  0  0  0
  1  3  2  0
  1  7  1  0
  2 23  3  0
  3  4  1  0
  3 20  1  0
  4  5  2  0
  4  8  1  0
  5  6  1  0
  6  7  2  0
  6 18  1  0
  7 24  1  0
  8  9  1  0
  9 10  1  0
  9 12  2  0
 10 11  1  0
 11 13  2  0
 11 17  1  0
 13 14  1  0
 14 15  2  0
 15 16  1  0
 15 23  1  0
 16 17  2  0
 16 22  1  0
 18 19  1  0
 20 21  1  0
  1 25  1  0
  5 26  1  0
  8 27  1  0
  8 28  1  0
 10 29  1  0
 17 30  1  0
 19 31  1  0
 19 32  1  0
 19 33  1  0
 21 34  1  0
 21 35  1  0
 21 36  1  0
 22 37  1  0
 22 38  1  0
 39 40  2  0
 40 41  1  0
 41 42  2  0
 42 43  1  0
 42 44  1  0
 44 45  2  0
 45 39  1  0
 40 46  1  0
 41 47  1  0
 43 48  1  0
 43 49  1  0
 43 50  1  0
 44 51  1  0
 45 52  1  0
 14 39  1  0
M  END
>  <attachment_point>  (448) 
29

>  <score>  (448) 
<NA>

$$$$
2gmx
     RDKit          3D

 50 52  0  0  0  0  0  0  0  0999 V2000
    0.6680  149.6310   52.1780 C   0  0  0  0  0  0  0  0  0  0  0  0
    3.0090  140.6200   56.4870 N   0  0  0  0  0  0  0  0  0  0  0  0
    1.9620  149.2640   52.6280 C   0  0  0  0  0  0  0  0  0  0  0  0
    2.4660  149.8330   53.8590 C   0  0  0  0  0  0  0  0  0  0  0  0
    1.6570  150.7410   54.6000 C   0  0  0  0  0  0  0  0  0  0  0  0
    0.3580  151.1130   54.1650 C   0  0  0  0  0  0  0  0  0  0  0  0
   -0.1340  150.5380   52.9220 C   0  0  0  0  0  0  0  0  0  0  0  0
    3.8340  149.4930   54.3900 C   0  0  0  0  0  0  0  0  0  0  0  0
    3.7760  148.3010   55.3550 C   0  0  0  0  0  0  0  0  0  0  0  0
    3.6080  147.1180   54.7070 N   0  0  0  0  0  0  0  0  0  0  0  0
    3.5230  145.8440   55.1920 C   0  0  0  0  0  0  0  0  0  0  0  0
    3.8880  148.4710   56.5680 O   0  0  0  0  0  0  0  0  0  0  0  0
    3.0190  144.9720   54.2890 N   0  0  0  0  0  0  0  0  0  0  0  0
    2.8790  143.6460   54.6100 C   0  0  0  0  0  0  0  0  0  0  0  0
    3.2540  143.1490   55.8980 C   0  0  0  0  0  0  0  0  0  0  0  0
    3.7840  144.0620   56.8580 C   0  0  0  0  0  0  0  0  0  0  0  0
    3.9180  145.4220   56.4980 C   0  0  0  0  0  0  0  0  0  0  0  0
   -0.4210  152.0200   54.9250 O   0  0  0  0  0  0  0  0  0  0  0  0
   -1.4550  151.4120   55.7020 C   0  0  0  0  0  0  0  0  0  0  0  0
    2.7960  148.3740   51.9370 O   0  0  0  0  0  0  0  0  0  0  0  0
    2.1840  147.2640   51.2740 C   0  0  0  0  0  0  0  0  0  0  0  0
    4.1700  143.6740   58.1190 N   0  0  0  0  0  0  0  0  0  0  0  0
    3.1040  141.7440   56.2230 C   0  0  0  0  0  0  0  0  0  0  0  0
   -1.8550  150.9620   52.2300 Br  0  0  0  0  0  0  0  0  0  0  0  0
    0.0000    0.0000    0.0000 H   0  0  0  0  0  0  0  0  0  0  0  0
    0.0000    0.0000    0.0000 H   0  0  0  0  0  0  0  0  0  0  0  0
    0.0000    0.0000    0.0000 H   0  0  0  0  0  0  0  0  0  0  0  0
    0.0000    0.0000    0.0000 H   0  0  0  0  0  0  0  0  0  0  0  0
    0.0000    0.0000    0.0000 H   0  0  0  0  0  0  0  0  0  0  0  0
    0.0000    0.0000    0.0000 H   0  0  0  0  0  0  0  0  0  0  0  0
    0.0000    0.0000    0.0000 H   0  0  0  0  0  0  0  0  0  0  0  0
    0.0000    0.0000    0.0000 H   0  0  0  0  0  0  0  0  0  0  0  0
    0.0000    0.0000    0.0000 H   0  0  0  0  0  0  0  0  0  0  0  0
    0.0000    0.0000    0.0000 H   0  0  0  0  0  0  0  0  0  0  0  0
    0.0000    0.0000    0.0000 H   0  0  0  0  0  0  0  0  0  0  0  0
    0.0000    0.0000    0.0000 H   0  0  0  0  0  0  0  0  0  0  0  0
    0.0000    0.0000    0.0000 H   0  0  0  0  0  0  0  0  0  0  0  0
    0.0000    0.0000    0.0000 H   0  0  0  0  0  0  0  0  0  0  0  0
    1.4299   71.3456   27.1235 C   0  0  0  0  0  0  0  0  0  0  0  0
    0.3610   70.5955   27.4282 C   0  0  0  0  0  0  0  0  0  0  0  0
    0.2959   69.2693   26.9456 C   0  0  0  0  0  0  0  0  0  0  0  0
    1.3326   68.7944   26.1795 C   0  0  0  0  0  0  0  0  0  0  0  0
    1.2768   67.4324   25.6779 C   0  0  0  0  0  0  0  0  0  0  0  0
    1.2488   66.3465   25.2905 N   0  0  0  0  0  0  0  0  0  0  0  0
    2.4026   69.6108   25.9003 C   0  0  0  0  0  0  0  0  0  0  0  0
    2.4649   70.9363   26.3841 C   0  0  0  0  0  0  0  0  0  0  0  0
   -0.4405   70.9818   28.0278 H   0  0  0  0  0  0  0  0  0  0  0  0
   -0.5387   68.6493   27.1699 H   0  0  0  0  0  0  0  0  0  0  0  0
    3.2049   69.2332   25.3035 H   0  0  0  0  0  0  0  0  0  0  0  0
    3.2886   71.5696   26.1710 H   0  0  0  0  0  0  0  0  0  0  0  0
  1  3  2  0
  1  7  1  0
  2 23  3  0
  3  4  1  0
  3 20  1  0
  4  5  2  0
  4  8  1  0
  5  6  1  0
  6  7  2  0
  6 18  1  0
  7 24  1  0
  8  9  1  0
  9 10  1  0
  9 12  2  0
 10 11  1  0
 11 13  2  0
 11 17  1  0
 13 14  1  0
 14 15  2  0
 15 16  1  0
 15 23  1  0
 16 17  2  0
 16 22  1  0
 18 19  1  0
 20 21  1  0
  1 25  1  0
  5 26  1  0
  8 27  1  0
  8 28  1  0
 10 29  1  0
 17 30  1  0
 19 31  1  0
 19 32  1  0
 19 33  1  0
 21 34  1  0
 21 35  1  0
 21 36  1  0
 22 37  1  0
 22 38  1  0
 39 40  2  0
 40 41  1  0
 41 42  2  0
 42 43  1  0
 43 44  3  0
 42 45  1  0
 45 46  2  0
 46 39  1  0
 40 47  1  0
 41 48  1  0
 45 49  1  0
 46 50  1  0
 14 39  1  0
M  END
>  <attachment_point>  (449) 
29

>  <score>  (449) 
<NA>

$$$$
2gmx
     RDKit          3D

 55 58  0  0  0  0  0  0  0  0999 V2000
    0.6680  149.6310   52.1780 C   0  0  0  0  0  0  0  0  0  0  0  0
    3.0090  140.6200   56.4870 N   0  0  0  0  0  0  0  0  0  0  0  0
    1.9620  149.2640   52.6280 C   0  0  0  0  0  0  0  0  0  0  0  0
    2.4660  149.8330   53.8590 C   0  0  0  0  0  0  0  0  0  0  0  0
    1.6570  150.7410   54.6000 C   0  0  0  0  0  0  0  0  0  0  0  0
    0.3580  151.1130   54.1650 C   0  0  0  0  0  0  0  0  0  0  0  0
   -0.1340  150.5380   52.9220 C   0  0  0  0  0  0  0  0  0  0  0  0
    3.8340  149.4930   54.3900 C   0  0  0  0  0  0  0  0  0  0  0  0
    3.7760  148.3010   55.3550 C   0  0  0  0  0  0  0  0  0  0  0  0
    3.6080  147.1180   54.7070 N   0  0  0  0  0  0  0  0  0  0  0  0
    3.5230  145.8440   55.1920 C   0  0  0  0  0  0  0  0  0  0  0  0
    3.8880  148.4710   56.5680 O   0  0  0  0  0  0  0  0  0  0  0  0
    3.0190  144.9720   54.2890 N   0  0  0  0  0  0  0  0  0  0  0  0
    2.8790  143.6460   54.6100 C   0  0  0  0  0  0  0  0  0  0  0  0
    3.2540  143.1490   55.8980 C   0  0  0  0  0  0  0  0  0  0  0  0
    3.7840  144.0620   56.8580 C   0  0  0  0  0  0  0  0  0  0  0  0
    3.9180  145.4220   56.4980 C   0  0  0  0  0  0  0  0  0  0  0  0
   -0.4210  152.0200   54.9250 O   0  0  0  0  0  0  0  0  0  0  0  0
   -1.4550  151.4120   55.7020 C   0  0  0  0  0  0  0  0  0  0  0  0
    2.7960  148.3740   51.9370 O   0  0  0  0  0  0  0  0  0  0  0  0
    2.1840  147.2640   51.2740 C   0  0  0  0  0  0  0  0  0  0  0  0
    4.1700  143.6740   58.1190 N   0  0  0  0  0  0  0  0  0  0  0  0
    3.1040  141.7440   56.2230 C   0  0  0  0  0  0  0  0  0  0  0  0
   -1.8550  150.9620   52.2300 Br  0  0  0  0  0  0  0  0  0  0  0  0
    0.0000    0.0000    0.0000 H   0  0  0  0  0  0  0  0  0  0  0  0
    0.0000    0.0000    0.0000 H   0  0  0  0  0  0  0  0  0  0  0  0
    0.0000    0.0000    0.0000 H   0  0  0  0  0  0  0  0  0  0  0  0
    0.0000    0.0000    0.0000 H   0  0  0  0  0  0  0  0  0  0  0  0
    0.0000    0.0000    0.0000 H   0  0  0  0  0  0  0  0  0  0  0  0
    0.0000    0.0000    0.0000 H   0  0  0  0  0  0  0  0  0  0  0  0
    0.0000    0.0000    0.0000 H   0  0  0  0  0  0  0  0  0  0  0  0
    0.0000    0.0000    0.0000 H   0  0  0  0  0  0  0  0  0  0  0  0
    0.0000    0.0000    0.0000 H   0  0  0  0  0  0  0  0  0  0  0  0
    0.0000    0.0000    0.0000 H   0  0  0  0  0  0  0  0  0  0  0  0
    0.0000    0.0000    0.0000 H   0  0  0  0  0  0  0  0  0  0  0  0
    0.0000    0.0000    0.0000 H   0  0  0  0  0  0  0  0  0  0  0  0
    0.0000    0.0000    0.0000 H   0  0  0  0  0  0  0  0  0  0  0  0
    0.0000    0.0000    0.0000 H   0  0  0  0  0  0  0  0  0  0  0  0
    1.4312   71.4086   27.1475 C   0  0  0  0  0  0  0  0  0  0  0  0
    2.5987   70.7178   26.9022 C   0  0  0  0  0  0  0  0  0  0  0  0
    2.5497   69.4197   26.4084 C   0  0  0  0  0  0  0  0  0  0  0  0
    1.3213   68.8412   26.1706 C   0  0  0  0  0  0  0  0  0  0  0  0
    0.1285   69.5055   26.4054 C   0  0  0  0  0  0  0  0  0  0  0  0
   -1.1018   68.9103   26.1613 C   0  0  0  0  0  0  0  0  0  0  0  0
   -2.2832   69.5818   26.3989 C   0  0  0  0  0  0  0  0  0  0  0  0
   -2.1951   70.8722   26.8903 C   0  0  0  0  0  0  0  0  0  0  0  0
   -0.9668   71.4632   27.1330 C   0  0  0  0  0  0  0  0  0  0  0  0
    0.2116   70.7926   26.8956 C   0  0  0  0  0  0  0  0  0  0  0  0
    3.5456   71.1849   27.0936 H   0  0  0  0  0  0  0  0  0  0  0  0
    3.4737   68.8700   26.2132 H   0  0  0  0  0  0  0  0  0  0  0  0
    1.2863   67.8206   25.7825 H   0  0  0  0  0  0  0  0  0  0  0  0
   -1.1520   67.8927   25.7740 H   0  0  0  0  0  0  0  0  0  0  0  0
   -3.2512   69.1126   26.2064 H   0  0  0  0  0  0  0  0  0  0  0  0
   -3.0908   71.4117   27.0821 H   0  0  0  0  0  0  0  0  0  0  0  0
   -0.8792   72.4828   27.5215 H   0  0  0  0  0  0  0  0  0  0  0  0
  1  3  2  0
  1  7  1  0
  2 23  3  0
  3  4  1  0
  3 20  1  0
  4  5  2  0
  4  8  1  0
  5  6  1  0
  6  7  2  0
  6 18  1  0
  7 24  1  0
  8  9  1  0
  9 10  1  0
  9 12  2  0
 10 11  1  0
 11 13  2  0
 11 17  1  0
 13 14  1  0
 14 15  2  0
 15 16  1  0
 15 23  1  0
 16 17  2  0
 16 22  1  0
 18 19  1  0
 20 21  1  0
  1 25  1  0
  5 26  1  0
  8 27  1  0
  8 28  1  0
 10 29  1  0
 17 30  1  0
 19 31  1  0
 19 32  1  0
 19 33  1  0
 21 34  1  0
 21 35  1  0
 21 36  1  0
 22 37  1  0
 22 38  1  0
 39 40  2  0
 40 41  1  0
 41 42  2  0
 42 43  1  0
 43 44  2  0
 44 45  1  0
 45 46  2  0
 46 47  1  0
 47 48  2  0
 48 39  1  0
 48 43  1  0
 40 49  1  0
 41 50  1  0
 42 51  1  0
 44 52  1  0
 45 53  1  0
 46 54  1  0
 47 55  1  0
 14 39  1  0
M  END
>  <attachment_point>  (450) 
29

>  <score>  (450) 
<NA>

$$$$
2gmx
     RDKit          3D

 43 44  0  0  0  0  0  0  0  0999 V2000
    0.6680  149.6310   52.1780 C   0  0  0  0  0  0  0  0  0  0  0  0
    3.0090  140.6200   56.4870 N   0  0  0  0  0  0  0  0  0  0  0  0
    1.9620  149.2640   52.6280 C   0  0  0  0  0  0  0  0  0  0  0  0
    2.4660  149.8330   53.8590 C   0  0  0  0  0  0  0  0  0  0  0  0
    1.6570  150.7410   54.6000 C   0  0  0  0  0  0  0  0  0  0  0  0
    0.3580  151.1130   54.1650 C   0  0  0  0  0  0  0  0  0  0  0  0
   -0.1340  150.5380   52.9220 C   0  0  0  0  0  0  0  0  0  0  0  0
    3.8340  149.4930   54.3900 C   0  0  0  0  0  0  0  0  0  0  0  0
    3.7760  148.3010   55.3550 C   0  0  0  0  0  0  0  0  0  0  0  0
    3.6080  147.1180   54.7070 N   0  0  0  0  0  0  0  0  0  0  0  0
    3.5230  145.8440   55.1920 C   0  0  0  0  0  0  0  0  0  0  0  0
    3.8880  148.4710   56.5680 O   0  0  0  0  0  0  0  0  0  0  0  0
    3.0190  144.9720   54.2890 N   0  0  0  0  0  0  0  0  0  0  0  0
    2.8790  143.6460   54.6100 C   0  0  0  0  0  0  0  0  0  0  0  0
    3.2540  143.1490   55.8980 C   0  0  0  0  0  0  0  0  0  0  0  0
    3.7840  144.0620   56.8580 C   0  0  0  0  0  0  0  0  0  0  0  0
    3.9180  145.4220   56.4980 C   0  0  0  0  0  0  0  0  0  0  0  0
   -0.4210  152.0200   54.9250 O   0  0  0  0  0  0  0  0  0  0  0  0
   -1.4550  151.4120   55.7020 C   0  0  0  0  0  0  0  0  0  0  0  0
    2.7960  148.3740   51.9370 O   0  0  0  0  0  0  0  0  0  0  0  0
    2.1840  147.2640   51.2740 C   0  0  0  0  0  0  0  0  0  0  0  0
    4.1700  143.6740   58.1190 N   0  0  0  0  0  0  0  0  0  0  0  0
    3.1040  141.7440   56.2230 C   0  0  0  0  0  0  0  0  0  0  0  0
   -1.8550  150.9620   52.2300 Br  0  0  0  0  0  0  0  0  0  0  0  0
    0.0000    0.0000    0.0000 H   0  0  0  0  0  0  0  0  0  0  0  0
    0.0000    0.0000    0.0000 H   0  0  0  0  0  0  0  0  0  0  0  0
    0.0000    0.0000    0.0000 H   0  0  0  0  0  0  0  0  0  0  0  0
    0.0000    0.0000    0.0000 H   0  0  0  0  0  0  0  0  0  0  0  0
    0.0000    0.0000    0.0000 H   0  0  0  0  0  0  0  0  0  0  0  0
    0.0000    0.0000    0.0000 H   0  0  0  0  0  0  0  0  0  0  0  0
    0.0000    0.0000    0.0000 H   0  0  0  0  0  0  0  0  0  0  0  0
    0.0000    0.0000    0.0000 H   0  0  0  0  0  0  0  0  0  0  0  0
    0.0000    0.0000    0.0000 H   0  0  0  0  0  0  0  0  0  0  0  0
    0.0000    0.0000    0.0000 H   0  0  0  0  0  0  0  0  0  0  0  0
    0.0000    0.0000    0.0000 H   0  0  0  0  0  0  0  0  0  0  0  0
    0.0000    0.0000    0.0000 H   0  0  0  0  0  0  0  0  0  0  0  0
    0.0000    0.0000    0.0000 H   0  0  0  0  0  0  0  0  0  0  0  0
    0.0000    0.0000    0.0000 H   0  0  0  0  0  0  0  0  0  0  0  0
    1.4299   71.3448   27.1232 B   0  0  0  0  0  0  0  0  0  0  0  0
    2.7734   70.7794   26.9409 O   0  0  0  0  0  0  0  0  0  0  0  0
    0.5614   71.3336   25.9457 O   0  0  0  0  0  0  0  0  0  0  0  0
    3.0748   70.9660   26.0291 H   0  0  0  0  0  0  0  0  0  0  0  0
   -0.2256   70.7778   26.1917 H   0  0  0  0  0  0  0  0  0  0  0  0
  1  3  2  0
  1  7  1  0
  2 23  3  0
  3  4  1  0
  3 20  1  0
  4  5  2  0
  4  8  1  0
  5  6  1  0
  6  7  2  0
  6 18  1  0
  7 24  1  0
  8  9  1  0
  9 10  1  0
  9 12  2  0
 10 11  1  0
 11 13  2  0
 11 17  1  0
 13 14  1  0
 14 15  2  0
 15 16  1  0
 15 23  1  0
 16 17  2  0
 16 22  1  0
 18 19  1  0
 20 21  1  0
  1 25  1  0
  5 26  1  0
  8 27  1  0
  8 28  1  0
 10 29  1  0
 17 30  1  0
 19 31  1  0
 19 32  1  0
 19 33  1  0
 21 34  1  0
 21 35  1  0
 21 36  1  0
 22 37  1  0
 22 38  1  0
 39 40  1  0
 39 41  1  0
 40 42  1  0
 41 43  1  0
 14 39  1  0
M  END
>  <attachment_point>  (451) 
29

>  <score>  (451) 
<NA>

$$$$
2gmx
     RDKit          3D

 52 54  0  0  0  0  0  0  0  0999 V2000
    0.6680  149.6310   52.1780 C   0  0  0  0  0  0  0  0  0  0  0  0
    3.0090  140.6200   56.4870 N   0  0  0  0  0  0  0  0  0  0  0  0
    1.9620  149.2640   52.6280 C   0  0  0  0  0  0  0  0  0  0  0  0
    2.4660  149.8330   53.8590 C   0  0  0  0  0  0  0  0  0  0  0  0
    1.6570  150.7410   54.6000 C   0  0  0  0  0  0  0  0  0  0  0  0
    0.3580  151.1130   54.1650 C   0  0  0  0  0  0  0  0  0  0  0  0
   -0.1340  150.5380   52.9220 C   0  0  0  0  0  0  0  0  0  0  0  0
    3.8340  149.4930   54.3900 C   0  0  0  0  0  0  0  0  0  0  0  0
    3.7760  148.3010   55.3550 C   0  0  0  0  0  0  0  0  0  0  0  0
    3.6080  147.1180   54.7070 N   0  0  0  0  0  0  0  0  0  0  0  0
    3.5230  145.8440   55.1920 C   0  0  0  0  0  0  0  0  0  0  0  0
    3.8880  148.4710   56.5680 O   0  0  0  0  0  0  0  0  0  0  0  0
    3.0190  144.9720   54.2890 N   0  0  0  0  0  0  0  0  0  0  0  0
    2.8790  143.6460   54.6100 C   0  0  0  0  0  0  0  0  0  0  0  0
    3.2540  143.1490   55.8980 C   0  0  0  0  0  0  0  0  0  0  0  0
    3.7840  144.0620   56.8580 C   0  0  0  0  0  0  0  0  0  0  0  0
    3.9180  145.4220   56.4980 C   0  0  0  0  0  0  0  0  0  0  0  0
   -0.4210  152.0200   54.9250 O   0  0  0  0  0  0  0  0  0  0  0  0
   -1.4550  151.4120   55.7020 C   0  0  0  0  0  0  0  0  0  0  0  0
    2.7960  148.3740   51.9370 O   0  0  0  0  0  0  0  0  0  0  0  0
    2.1840  147.2640   51.2740 C   0  0  0  0  0  0  0  0  0  0  0  0
    4.1700  143.6740   58.1190 N   0  0  0  0  0  0  0  0  0  0  0  0
    3.1040  141.7440   56.2230 C   0  0  0  0  0  0  0  0  0  0  0  0
   -1.8550  150.9620   52.2300 Br  0  0  0  0  0  0  0  0  0  0  0  0
    0.0000    0.0000    0.0000 H   0  0  0  0  0  0  0  0  0  0  0  0
    0.0000    0.0000    0.0000 H   0  0  0  0  0  0  0  0  0  0  0  0
    0.0000    0.0000    0.0000 H   0  0  0  0  0  0  0  0  0  0  0  0
    0.0000    0.0000    0.0000 H   0  0  0  0  0  0  0  0  0  0  0  0
    0.0000    0.0000    0.0000 H   0  0  0  0  0  0  0  0  0  0  0  0
    0.0000    0.0000    0.0000 H   0  0  0  0  0  0  0  0  0  0  0  0
    0.0000    0.0000    0.0000 H   0  0  0  0  0  0  0  0  0  0  0  0
    0.0000    0.0000    0.0000 H   0  0  0  0  0  0  0  0  0  0  0  0
    0.0000    0.0000    0.0000 H   0  0  0  0  0  0  0  0  0  0  0  0
    0.0000    0.0000    0.0000 H   0  0  0  0  0  0  0  0  0  0  0  0
    0.0000    0.0000    0.0000 H   0  0  0  0  0  0  0  0  0  0  0  0
    0.0000    0.0000    0.0000 H   0  0  0  0  0  0  0  0  0  0  0  0
    0.0000    0.0000    0.0000 H   0  0  0  0  0  0  0  0  0  0  0  0
    0.0000    0.0000    0.0000 H   0  0  0  0  0  0  0  0  0  0  0  0
    1.4313   71.4145   27.1497 C   0  0  0  0  0  0  0  0  0  0  0  0
    0.3014   70.8283   26.6527 C   0  0  0  0  0  0  0  0  0  0  0  0
    0.3331   69.5347   26.1752 C   0  0  0  0  0  0  0  0  0  0  0  0
    1.5463   68.8778   26.2264 C   0  0  0  0  0  0  0  0  0  0  0  0
    2.6844   69.4768   26.7301 C   0  0  0  0  0  0  0  0  0  0  0  0
    2.6519   70.7725   27.2083 C   0  0  0  0  0  0  0  0  0  0  0  0
    3.8678   71.4286   27.7527 C   0  0  0  0  0  0  0  0  0  0  0  0
   -0.6239   71.3713   26.6295 H   0  0  0  0  0  0  0  0  0  0  0  0
   -0.5403   69.0341   25.7732 H   0  0  0  0  0  0  0  0  0  0  0  0
    1.5695   67.8464   25.8452 H   0  0  0  0  0  0  0  0  0  0  0  0
    3.6328   68.9258   26.7561 H   0  0  0  0  0  0  0  0  0  0  0  0
    4.5769   70.7014   28.1970 H   0  0  0  0  0  0  0  0  0  0  0  0
    4.4214   72.0048   26.9985 H   0  0  0  0  0  0  0  0  0  0  0  0
    3.6257   72.1480   28.5759 H   0  0  0  0  0  0  0  0  0  0  0  0
  1  3  2  0
  1  7  1  0
  2 23  3  0
  3  4  1  0
  3 20  1  0
  4  5  2  0
  4  8  1  0
  5  6  1  0
  6  7  2  0
  6 18  1  0
  7 24  1  0
  8  9  1  0
  9 10  1  0
  9 12  2  0
 10 11  1  0
 11 13  2  0
 11 17  1  0
 13 14  1  0
 14 15  2  0
 15 16  1  0
 15 23  1  0
 16 17  2  0
 16 22  1  0
 18 19  1  0
 20 21  1  0
  1 25  1  0
  5 26  1  0
  8 27  1  0
  8 28  1  0
 10 29  1  0
 17 30  1  0
 19 31  1  0
 19 32  1  0
 19 33  1  0
 21 34  1  0
 21 35  1  0
 21 36  1  0
 22 37  1  0
 22 38  1  0
 39 40  2  0
 40 41  1  0
 41 42  2  0
 42 43  1  0
 43 44  2  0
 44 45  1  0
 44 39  1  0
 40 46  1  0
 41 47  1  0
 42 48  1  0
 43 49  1  0
 45 50  1  0
 45 51  1  0
 45 52  1  0
 14 39  1  0
M  END
>  <attachment_point>  (452) 
29

>  <score>  (452) 
<NA>

$$$$
2gmx
     RDKit          3D

 51 54  0  0  0  0  0  0  0  0999 V2000
    0.6680  149.6310   52.1780 C   0  0  0  0  0  0  0  0  0  0  0  0
    3.0090  140.6200   56.4870 N   0  0  0  0  0  0  0  0  0  0  0  0
    1.9620  149.2640   52.6280 C   0  0  0  0  0  0  0  0  0  0  0  0
    2.4660  149.8330   53.8590 C   0  0  0  0  0  0  0  0  0  0  0  0
    1.6570  150.7410   54.6000 C   0  0  0  0  0  0  0  0  0  0  0  0
    0.3580  151.1130   54.1650 C   0  0  0  0  0  0  0  0  0  0  0  0
   -0.1340  150.5380   52.9220 C   0  0  0  0  0  0  0  0  0  0  0  0
    3.8340  149.4930   54.3900 C   0  0  0  0  0  0  0  0  0  0  0  0
    3.7760  148.3010   55.3550 C   0  0  0  0  0  0  0  0  0  0  0  0
    3.6080  147.1180   54.7070 N   0  0  0  0  0  0  0  0  0  0  0  0
    3.5230  145.8440   55.1920 C   0  0  0  0  0  0  0  0  0  0  0  0
    3.8880  148.4710   56.5680 O   0  0  0  0  0  0  0  0  0  0  0  0
    3.0190  144.9720   54.2890 N   0  0  0  0  0  0  0  0  0  0  0  0
    2.8790  143.6460   54.6100 C   0  0  0  0  0  0  0  0  0  0  0  0
    3.2540  143.1490   55.8980 C   0  0  0  0  0  0  0  0  0  0  0  0
    3.7840  144.0620   56.8580 C   0  0  0  0  0  0  0  0  0  0  0  0
    3.9180  145.4220   56.4980 C   0  0  0  0  0  0  0  0  0  0  0  0
   -0.4210  152.0200   54.9250 O   0  0  0  0  0  0  0  0  0  0  0  0
   -1.4550  151.4120   55.7020 C   0  0  0  0  0  0  0  0  0  0  0  0
    2.7960  148.3740   51.9370 O   0  0  0  0  0  0  0  0  0  0  0  0
    2.1840  147.2640   51.2740 C   0  0  0  0  0  0  0  0  0  0  0  0
    4.1700  143.6740   58.1190 N   0  0  0  0  0  0  0  0  0  0  0  0
    3.1040  141.7440   56.2230 C   0  0  0  0  0  0  0  0  0  0  0  0
   -1.8550  150.9620   52.2300 Br  0  0  0  0  0  0  0  0  0  0  0  0
    0.0000    0.0000    0.0000 H   0  0  0  0  0  0  0  0  0  0  0  0
    0.0000    0.0000    0.0000 H   0  0  0  0  0  0  0  0  0  0  0  0
    0.0000    0.0000    0.0000 H   0  0  0  0  0  0  0  0  0  0  0  0
    0.0000    0.0000    0.0000 H   0  0  0  0  0  0  0  0  0  0  0  0
    0.0000    0.0000    0.0000 H   0  0  0  0  0  0  0  0  0  0  0  0
    0.0000    0.0000    0.0000 H   0  0  0  0  0  0  0  0  0  0  0  0
    0.0000    0.0000    0.0000 H   0  0  0  0  0  0  0  0  0  0  0  0
    0.0000    0.0000    0.0000 H   0  0  0  0  0  0  0  0  0  0  0  0
    0.0000    0.0000    0.0000 H   0  0  0  0  0  0  0  0  0  0  0  0
    0.0000    0.0000    0.0000 H   0  0  0  0  0  0  0  0  0  0  0  0
    0.0000    0.0000    0.0000 H   0  0  0  0  0  0  0  0  0  0  0  0
    0.0000    0.0000    0.0000 H   0  0  0  0  0  0  0  0  0  0  0  0
    0.0000    0.0000    0.0000 H   0  0  0  0  0  0  0  0  0  0  0  0
    0.0000    0.0000    0.0000 H   0  0  0  0  0  0  0  0  0  0  0  0
    1.4312   71.4067   27.1467 C   0  0  0  0  0  0  0  0  0  0  0  0
    0.6593   70.4060   27.4669 N   0  0  0  0  0  0  0  0  0  0  0  0
    0.7840   69.2488   26.8894 C   0  0  0  0  0  0  0  0  0  0  0  0
    0.0156   68.0981   27.1466 C   0  0  0  0  0  0  0  0  0  0  0  0
    0.2461   66.9450   26.4719 C   0  0  0  0  0  0  0  0  0  0  0  0
    1.2097   66.8121   25.5210 C   0  0  0  0  0  0  0  0  0  0  0  0
    1.9802   67.9163   25.2433 C   0  0  0  0  0  0  0  0  0  0  0  0
    1.7581   69.1229   25.9315 C   0  0  0  0  0  0  0  0  0  0  0  0
    2.4304   70.7049   25.9357 S   0  0  0  0  0  0  0  0  0  0  0  0
   -0.7854   68.1151   27.8999 H   0  0  0  0  0  0  0  0  0  0  0  0
   -0.3814   66.0831   26.7131 H   0  0  0  0  0  0  0  0  0  0  0  0
    1.3584   65.8910   25.0151 H   0  0  0  0  0  0  0  0  0  0  0  0
    2.7701   67.9343   24.5145 H   0  0  0  0  0  0  0  0  0  0  0  0
  1  3  2  0
  1  7  1  0
  2 23  3  0
  3  4  1  0
  3 20  1  0
  4  5  2  0
  4  8  1  0
  5  6  1  0
  6  7  2  0
  6 18  1  0
  7 24  1  0
  8  9  1  0
  9 10  1  0
  9 12  2  0
 10 11  1  0
 11 13  2  0
 11 17  1  0
 13 14  1  0
 14 15  2  0
 15 16  1  0
 15 23  1  0
 16 17  2  0
 16 22  1  0
 18 19  1  0
 20 21  1  0
  1 25  1  0
  5 26  1  0
  8 27  1  0
  8 28  1  0
 10 29  1  0
 17 30  1  0
 19 31  1  0
 19 32  1  0
 19 33  1  0
 21 34  1  0
 21 35  1  0
 21 36  1  0
 22 37  1  0
 22 38  1  0
 39 40  2  0
 40 41  1  0
 41 42  2  0
 42 43  1  0
 43 44  2  0
 44 45  1  0
 45 46  2  0
 46 47  1  0
 47 39  1  0
 46 41  1  0
 42 48  1  0
 43 49  1  0
 44 50  1  0
 45 51  1  0
 14 39  1  0
M  END
>  <attachment_point>  (453) 
29

>  <score>  (453) 
<NA>

$$$$
2gmx
     RDKit          3D

 52 55  0  0  0  0  0  0  0  0999 V2000
    0.6680  149.6310   52.1780 C   0  0  0  0  0  0  0  0  0  0  0  0
    3.0090  140.6200   56.4870 N   0  0  0  0  0  0  0  0  0  0  0  0
    1.9620  149.2640   52.6280 C   0  0  0  0  0  0  0  0  0  0  0  0
    2.4660  149.8330   53.8590 C   0  0  0  0  0  0  0  0  0  0  0  0
    1.6570  150.7410   54.6000 C   0  0  0  0  0  0  0  0  0  0  0  0
    0.3580  151.1130   54.1650 C   0  0  0  0  0  0  0  0  0  0  0  0
   -0.1340  150.5380   52.9220 C   0  0  0  0  0  0  0  0  0  0  0  0
    3.8340  149.4930   54.3900 C   0  0  0  0  0  0  0  0  0  0  0  0
    3.7760  148.3010   55.3550 C   0  0  0  0  0  0  0  0  0  0  0  0
    3.6080  147.1180   54.7070 N   0  0  0  0  0  0  0  0  0  0  0  0
    3.5230  145.8440   55.1920 C   0  0  0  0  0  0  0  0  0  0  0  0
    3.8880  148.4710   56.5680 O   0  0  0  0  0  0  0  0  0  0  0  0
    3.0190  144.9720   54.2890 N   0  0  0  0  0  0  0  0  0  0  0  0
    2.8790  143.6460   54.6100 C   0  0  0  0  0  0  0  0  0  0  0  0
    3.2540  143.1490   55.8980 C   0  0  0  0  0  0  0  0  0  0  0  0
    3.7840  144.0620   56.8580 C   0  0  0  0  0  0  0  0  0  0  0  0
    3.9180  145.4220   56.4980 C   0  0  0  0  0  0  0  0  0  0  0  0
   -0.4210  152.0200   54.9250 O   0  0  0  0  0  0  0  0  0  0  0  0
   -1.4550  151.4120   55.7020 C   0  0  0  0  0  0  0  0  0  0  0  0
    2.7960  148.3740   51.9370 O   0  0  0  0  0  0  0  0  0  0  0  0
    2.1840  147.2640   51.2740 C   0  0  0  0  0  0  0  0  0  0  0  0
    4.1700  143.6740   58.1190 N   0  0  0  0  0  0  0  0  0  0  0  0
    3.1040  141.7440   56.2230 C   0  0  0  0  0  0  0  0  0  0  0  0
   -1.8550  150.9620   52.2300 Br  0  0  0  0  0  0  0  0  0  0  0  0
    0.0000    0.0000    0.0000 H   0  0  0  0  0  0  0  0  0  0  0  0
    0.0000    0.0000    0.0000 H   0  0  0  0  0  0  0  0  0  0  0  0
    0.0000    0.0000    0.0000 H   0  0  0  0  0  0  0  0  0  0  0  0
    0.0000    0.0000    0.0000 H   0  0  0  0  0  0  0  0  0  0  0  0
    0.0000    0.0000    0.0000 H   0  0  0  0  0  0  0  0  0  0  0  0
    0.0000    0.0000    0.0000 H   0  0  0  0  0  0  0  0  0  0  0  0
    0.0000    0.0000    0.0000 H   0  0  0  0  0  0  0  0  0  0  0  0
    0.0000    0.0000    0.0000 H   0  0  0  0  0  0  0  0  0  0  0  0
    0.0000    0.0000    0.0000 H   0  0  0  0  0  0  0  0  0  0  0  0
    0.0000    0.0000    0.0000 H   0  0  0  0  0  0  0  0  0  0  0  0
    0.0000    0.0000    0.0000 H   0  0  0  0  0  0  0  0  0  0  0  0
    0.0000    0.0000    0.0000 H   0  0  0  0  0  0  0  0  0  0  0  0
    0.0000    0.0000    0.0000 H   0  0  0  0  0  0  0  0  0  0  0  0
    0.0000    0.0000    0.0000 H   0  0  0  0  0  0  0  0  0  0  0  0
    1.4308   71.3906   27.1406 C   0  0  0  0  0  0  0  0  0  0  0  0
    0.9575   71.0110   25.9563 N   0  0  0  0  0  0  0  0  0  0  0  0
    1.1067   69.6702   25.8394 C   0  0  0  0  0  0  0  0  0  0  0  0
    0.7938   68.7585   24.8347 C   0  0  0  0  0  0  0  0  0  0  0  0
    1.0543   67.4119   24.9650 C   0  0  0  0  0  0  0  0  0  0  0  0
    1.6387   66.9914   26.1289 C   0  0  0  0  0  0  0  0  0  0  0  0
    1.9542   67.8687   27.1278 C   0  0  0  0  0  0  0  0  0  0  0  0
    1.6943   69.2283   27.0035 C   0  0  0  0  0  0  0  0  0  0  0  0
    1.8792   70.3076   27.7785 N   0  0  0  0  0  0  0  0  0  0  0  0
    0.3335   69.1546   23.9399 H   0  0  0  0  0  0  0  0  0  0  0  0
    0.7900   66.7290   24.1456 H   0  0  0  0  0  0  0  0  0  0  0  0
    1.8415   65.9366   26.2280 H   0  0  0  0  0  0  0  0  0  0  0  0
    2.4116   67.5204   28.0323 H   0  0  0  0  0  0  0  0  0  0  0  0
    2.3081   70.2592   28.7199 H   0  0  0  0  0  0  0  0  0  0  0  0
  1  3  2  0
  1  7  1  0
  2 23  3  0
  3  4  1  0
  3 20  1  0
  4  5  2  0
  4  8  1  0
  5  6  1  0
  6  7  2  0
  6 18  1  0
  7 24  1  0
  8  9  1  0
  9 10  1  0
  9 12  2  0
 10 11  1  0
 11 13  2  0
 11 17  1  0
 13 14  1  0
 14 15  2  0
 15 16  1  0
 15 23  1  0
 16 17  2  0
 16 22  1  0
 18 19  1  0
 20 21  1  0
  1 25  1  0
  5 26  1  0
  8 27  1  0
  8 28  1  0
 10 29  1  0
 17 30  1  0
 19 31  1  0
 19 32  1  0
 19 33  1  0
 21 34  1  0
 21 35  1  0
 21 36  1  0
 22 37  1  0
 22 38  1  0
 39 40  2  0
 40 41  1  0
 41 42  2  0
 42 43  1  0
 43 44  2  0
 44 45  1  0
 45 46  2  0
 46 47  1  0
 47 39  1  0
 46 41  1  0
 42 48  1  0
 43 49  1  0
 44 50  1  0
 45 51  1  0
 47 52  1  0
 14 39  1  0
M  END
>  <attachment_point>  (454) 
29

>  <score>  (454) 
<NA>

$$$$
2gmx
     RDKit          3D

 55 58  0  0  0  0  0  0  0  0999 V2000
    0.6680  149.6310   52.1780 C   0  0  0  0  0  0  0  0  0  0  0  0
    3.0090  140.6200   56.4870 N   0  0  0  0  0  0  0  0  0  0  0  0
    1.9620  149.2640   52.6280 C   0  0  0  0  0  0  0  0  0  0  0  0
    2.4660  149.8330   53.8590 C   0  0  0  0  0  0  0  0  0  0  0  0
    1.6570  150.7410   54.6000 C   0  0  0  0  0  0  0  0  0  0  0  0
    0.3580  151.1130   54.1650 C   0  0  0  0  0  0  0  0  0  0  0  0
   -0.1340  150.5380   52.9220 C   0  0  0  0  0  0  0  0  0  0  0  0
    3.8340  149.4930   54.3900 C   0  0  0  0  0  0  0  0  0  0  0  0
    3.7760  148.3010   55.3550 C   0  0  0  0  0  0  0  0  0  0  0  0
    3.6080  147.1180   54.7070 N   0  0  0  0  0  0  0  0  0  0  0  0
    3.5230  145.8440   55.1920 C   0  0  0  0  0  0  0  0  0  0  0  0
    3.8880  148.4710   56.5680 O   0  0  0  0  0  0  0  0  0  0  0  0
    3.0190  144.9720   54.2890 N   0  0  0  0  0  0  0  0  0  0  0  0
    2.8790  143.6460   54.6100 C   0  0  0  0  0  0  0  0  0  0  0  0
    3.2540  143.1490   55.8980 C   0  0  0  0  0  0  0  0  0  0  0  0
    3.7840  144.0620   56.8580 C   0  0  0  0  0  0  0  0  0  0  0  0
    3.9180  145.4220   56.4980 C   0  0  0  0  0  0  0  0  0  0  0  0
   -0.4210  152.0200   54.9250 O   0  0  0  0  0  0  0  0  0  0  0  0
   -1.4550  151.4120   55.7020 C   0  0  0  0  0  0  0  0  0  0  0  0
    2.7960  148.3740   51.9370 O   0  0  0  0  0  0  0  0  0  0  0  0
    2.1840  147.2640   51.2740 C   0  0  0  0  0  0  0  0  0  0  0  0
    4.1700  143.6740   58.1190 N   0  0  0  0  0  0  0  0  0  0  0  0
    3.1040  141.7440   56.2230 C   0  0  0  0  0  0  0  0  0  0  0  0
   -1.8550  150.9620   52.2300 Br  0  0  0  0  0  0  0  0  0  0  0  0
    0.0000    0.0000    0.0000 H   0  0  0  0  0  0  0  0  0  0  0  0
    0.0000    0.0000    0.0000 H   0  0  0  0  0  0  0  0  0  0  0  0
    0.0000    0.0000    0.0000 H   0  0  0  0  0  0  0  0  0  0  0  0
    0.0000    0.0000    0.0000 H   0  0  0  0  0  0  0  0  0  0  0  0
    0.0000    0.0000    0.0000 H   0  0  0  0  0  0  0  0  0  0  0  0
    0.0000    0.0000    0.0000 H   0  0  0  0  0  0  0  0  0  0  0  0
    0.0000    0.0000    0.0000 H   0  0  0  0  0  0  0  0  0  0  0  0
    0.0000    0.0000    0.0000 H   0  0  0  0  0  0  0  0  0  0  0  0
    0.0000    0.0000    0.0000 H   0  0  0  0  0  0  0  0  0  0  0  0
    0.0000    0.0000    0.0000 H   0  0  0  0  0  0  0  0  0  0  0  0
    0.0000    0.0000    0.0000 H   0  0  0  0  0  0  0  0  0  0  0  0
    0.0000    0.0000    0.0000 H   0  0  0  0  0  0  0  0  0  0  0  0
    0.0000    0.0000    0.0000 H   0  0  0  0  0  0  0  0  0  0  0  0
    0.0000    0.0000    0.0000 H   0  0  0  0  0  0  0  0  0  0  0  0
    1.4306   71.3808   27.1369 C   0  0  0  0  0  0  0  0  0  0  0  0
    2.5717   70.7197   26.8681 C   0  0  0  0  0  0  0  0  0  0  0  0
    2.4710   69.4126   26.3724 C   0  0  0  0  0  0  0  0  0  0  0  0
    1.2337   68.8424   26.1741 C   0  0  0  0  0  0  0  0  0  0  0  0
    0.0714   69.5282   26.4526 C   0  0  0  0  0  0  0  0  0  0  0  0
    0.2080   70.8263   26.9444 C   0  0  0  0  0  0  0  0  0  0  0  0
   -1.1810   68.9482   26.2509 O   0  0  0  0  0  0  0  0  0  0  0  0
   -1.2073   67.5152   26.3359 C   0  0  0  0  0  0  0  0  0  0  0  0
   -0.1476   67.0228   25.3598 C   0  0  0  0  0  0  0  0  0  0  0  0
    1.1310   67.5411   25.6805 O   0  0  0  0  0  0  0  0  0  0  0  0
    3.5297   71.1930   27.0338 H   0  0  0  0  0  0  0  0  0  0  0  0
    3.4051   68.9168   26.1696 H   0  0  0  0  0  0  0  0  0  0  0  0
   -0.7010   71.3625   27.1621 H   0  0  0  0  0  0  0  0  0  0  0  0
   -2.1684   67.0947   26.0492 H   0  0  0  0  0  0  0  0  0  0  0  0
   -0.8550   67.1890   27.3513 H   0  0  0  0  0  0  0  0  0  0  0  0
   -0.4608   67.3311   24.3526 H   0  0  0  0  0  0  0  0  0  0  0  0
   -0.0542   65.9021   25.4454 H   0  0  0  0  0  0  0  0  0  0  0  0
  1  3  2  0
  1  7  1  0
  2 23  3  0
  3  4  1  0
  3 20  1  0
  4  5  2  0
  4  8  1  0
  5  6  1  0
  6  7  2  0
  6 18  1  0
  7 24  1  0
  8  9  1  0
  9 10  1  0
  9 12  2  0
 10 11  1  0
 11 13  2  0
 11 17  1  0
 13 14  1  0
 14 15  2  0
 15 16  1  0
 15 23  1  0
 16 17  2  0
 16 22  1  0
 18 19  1  0
 20 21  1  0
  1 25  1  0
  5 26  1  0
  8 27  1  0
  8 28  1  0
 10 29  1  0
 17 30  1  0
 19 31  1  0
 19 32  1  0
 19 33  1  0
 21 34  1  0
 21 35  1  0
 21 36  1  0
 22 37  1  0
 22 38  1  0
 39 40  2  0
 40 41  1  0
 41 42  2  0
 42 43  1  0
 43 44  2  0
 43 45  1  0
 45 46  1  0
 46 47  1  0
 47 48  1  0
 44 39  1  0
 48 42  1  0
 40 49  1  0
 41 50  1  0
 44 51  1  0
 46 52  1  0
 46 53  1  0
 47 54  1  0
 47 55  1  0
 14 39  1  0
M  END
>  <attachment_point>  (455) 
29

>  <score>  (455) 
<NA>

$$$$
2gmx
     RDKit          3D

 52 55  0  0  0  0  0  0  0  0999 V2000
    0.6680  149.6310   52.1780 C   0  0  0  0  0  0  0  0  0  0  0  0
    3.0090  140.6200   56.4870 N   0  0  0  0  0  0  0  0  0  0  0  0
    1.9620  149.2640   52.6280 C   0  0  0  0  0  0  0  0  0  0  0  0
    2.4660  149.8330   53.8590 C   0  0  0  0  0  0  0  0  0  0  0  0
    1.6570  150.7410   54.6000 C   0  0  0  0  0  0  0  0  0  0  0  0
    0.3580  151.1130   54.1650 C   0  0  0  0  0  0  0  0  0  0  0  0
   -0.1340  150.5380   52.9220 C   0  0  0  0  0  0  0  0  0  0  0  0
    3.8340  149.4930   54.3900 C   0  0  0  0  0  0  0  0  0  0  0  0
    3.7760  148.3010   55.3550 C   0  0  0  0  0  0  0  0  0  0  0  0
    3.6080  147.1180   54.7070 N   0  0  0  0  0  0  0  0  0  0  0  0
    3.5230  145.8440   55.1920 C   0  0  0  0  0  0  0  0  0  0  0  0
    3.8880  148.4710   56.5680 O   0  0  0  0  0  0  0  0  0  0  0  0
    3.0190  144.9720   54.2890 N   0  0  0  0  0  0  0  0  0  0  0  0
    2.8790  143.6460   54.6100 C   0  0  0  0  0  0  0  0  0  0  0  0
    3.2540  143.1490   55.8980 C   0  0  0  0  0  0  0  0  0  0  0  0
    3.7840  144.0620   56.8580 C   0  0  0  0  0  0  0  0  0  0  0  0
    3.9180  145.4220   56.4980 C   0  0  0  0  0  0  0  0  0  0  0  0
   -0.4210  152.0200   54.9250 O   0  0  0  0  0  0  0  0  0  0  0  0
   -1.4550  151.4120   55.7020 C   0  0  0  0  0  0  0  0  0  0  0  0
    2.7960  148.3740   51.9370 O   0  0  0  0  0  0  0  0  0  0  0  0
    2.1840  147.2640   51.2740 C   0  0  0  0  0  0  0  0  0  0  0  0
    4.1700  143.6740   58.1190 N   0  0  0  0  0  0  0  0  0  0  0  0
    3.1040  141.7440   56.2230 C   0  0  0  0  0  0  0  0  0  0  0  0
   -1.8550  150.9620   52.2300 Br  0  0  0  0  0  0  0  0  0  0  0  0
    0.0000    0.0000    0.0000 H   0  0  0  0  0  0  0  0  0  0  0  0
    0.0000    0.0000    0.0000 H   0  0  0  0  0  0  0  0  0  0  0  0
    0.0000    0.0000    0.0000 H   0  0  0  0  0  0  0  0  0  0  0  0
    0.0000    0.0000    0.0000 H   0  0  0  0  0  0  0  0  0  0  0  0
    0.0000    0.0000    0.0000 H   0  0  0  0  0  0  0  0  0  0  0  0
    0.0000    0.0000    0.0000 H   0  0  0  0  0  0  0  0  0  0  0  0
    0.0000    0.0000    0.0000 H   0  0  0  0  0  0  0  0  0  0  0  0
    0.0000    0.0000    0.0000 H   0  0  0  0  0  0  0  0  0  0  0  0
    0.0000    0.0000    0.0000 H   0  0  0  0  0  0  0  0  0  0  0  0
    0.0000    0.0000    0.0000 H   0  0  0  0  0  0  0  0  0  0  0  0
    0.0000    0.0000    0.0000 H   0  0  0  0  0  0  0  0  0  0  0  0
    0.0000    0.0000    0.0000 H   0  0  0  0  0  0  0  0  0  0  0  0
    0.0000    0.0000    0.0000 H   0  0  0  0  0  0  0  0  0  0  0  0
    0.0000    0.0000    0.0000 H   0  0  0  0  0  0  0  0  0  0  0  0
    1.4297   71.3352   27.1196 C   0  0  0  0  0  0  0  0  0  0  0  0
    0.3875   70.5192   27.2895 C   0  0  0  0  0  0  0  0  0  0  0  0
    0.7629   69.3366   26.6532 C   0  0  0  0  0  0  0  0  0  0  0  0
    0.2042   68.1023   26.4338 C   0  0  0  0  0  0  0  0  0  0  0  0
    0.8869   67.1234   25.7330 C   0  0  0  0  0  0  0  0  0  0  0  0
    2.1500   67.3704   25.2379 C   0  0  0  0  0  0  0  0  0  0  0  0
    2.7303   68.6049   25.4472 C   0  0  0  0  0  0  0  0  0  0  0  0
    2.0454   69.5653   26.1420 C   0  0  0  0  0  0  0  0  0  0  0  0
    2.3811   70.8174   26.4725 O   0  0  0  0  0  0  0  0  0  0  0  0
   -0.5690   70.6278   27.7795 H   0  0  0  0  0  0  0  0  0  0  0  0
   -0.7989   67.9385   26.8396 H   0  0  0  0  0  0  0  0  0  0  0  0
    0.3884   66.1602   25.5910 H   0  0  0  0  0  0  0  0  0  0  0  0
    2.6426   66.5815   24.7000 H   0  0  0  0  0  0  0  0  0  0  0  0
    3.7195   68.7816   25.0530 H   0  0  0  0  0  0  0  0  0  0  0  0
  1  3  2  0
  1  7  1  0
  2 23  3  0
  3  4  1  0
  3 20  1  0
  4  5  2  0
  4  8  1  0
  5  6  1  0
  6  7  2  0
  6 18  1  0
  7 24  1  0
  8  9  1  0
  9 10  1  0
  9 12  2  0
 10 11  1  0
 11 13  2  0
 11 17  1  0
 13 14  1  0
 14 15  2  0
 15 16  1  0
 15 23  1  0
 16 17  2  0
 16 22  1  0
 18 19  1  0
 20 21  1  0
  1 25  1  0
  5 26  1  0
  8 27  1  0
  8 28  1  0
 10 29  1  0
 17 30  1  0
 19 31  1  0
 19 32  1  0
 19 33  1  0
 21 34  1  0
 21 35  1  0
 21 36  1  0
 22 37  1  0
 22 38  1  0
 39 40  2  0
 40 41  1  0
 41 42  2  0
 42 43  1  0
 43 44  2  0
 44 45  1  0
 45 46  2  0
 46 47  1  0
 47 39  1  0
 46 41  1  0
 40 48  1  0
 42 49  1  0
 43 50  1  0
 44 51  1  0
 45 52  1  0
 14 39  1  0
M  END
>  <attachment_point>  (456) 
29

>  <score>  (456) 
<NA>

$$$$
2gmx
     RDKit          3D

 57 59  0  0  0  0  0  0  0  0999 V2000
    0.6680  149.6310   52.1780 C   0  0  0  0  0  0  0  0  0  0  0  0
    3.0090  140.6200   56.4870 N   0  0  0  0  0  0  0  0  0  0  0  0
    1.9620  149.2640   52.6280 C   0  0  0  0  0  0  0  0  0  0  0  0
    2.4660  149.8330   53.8590 C   0  0  0  0  0  0  0  0  0  0  0  0
    1.6570  150.7410   54.6000 C   0  0  0  0  0  0  0  0  0  0  0  0
    0.3580  151.1130   54.1650 C   0  0  0  0  0  0  0  0  0  0  0  0
   -0.1340  150.5380   52.9220 C   0  0  0  0  0  0  0  0  0  0  0  0
    3.8340  149.4930   54.3900 C   0  0  0  0  0  0  0  0  0  0  0  0
    3.7760  148.3010   55.3550 C   0  0  0  0  0  0  0  0  0  0  0  0
    3.6080  147.1180   54.7070 N   0  0  0  0  0  0  0  0  0  0  0  0
    3.5230  145.8440   55.1920 C   0  0  0  0  0  0  0  0  0  0  0  0
    3.8880  148.4710   56.5680 O   0  0  0  0  0  0  0  0  0  0  0  0
    3.0190  144.9720   54.2890 N   0  0  0  0  0  0  0  0  0  0  0  0
    2.8790  143.6460   54.6100 C   0  0  0  0  0  0  0  0  0  0  0  0
    3.2540  143.1490   55.8980 C   0  0  0  0  0  0  0  0  0  0  0  0
    3.7840  144.0620   56.8580 C   0  0  0  0  0  0  0  0  0  0  0  0
    3.9180  145.4220   56.4980 C   0  0  0  0  0  0  0  0  0  0  0  0
   -0.4210  152.0200   54.9250 O   0  0  0  0  0  0  0  0  0  0  0  0
   -1.4550  151.4120   55.7020 C   0  0  0  0  0  0  0  0  0  0  0  0
    2.7960  148.3740   51.9370 O   0  0  0  0  0  0  0  0  0  0  0  0
    2.1840  147.2640   51.2740 C   0  0  0  0  0  0  0  0  0  0  0  0
    4.1700  143.6740   58.1190 N   0  0  0  0  0  0  0  0  0  0  0  0
    3.1040  141.7440   56.2230 C   0  0  0  0  0  0  0  0  0  0  0  0
   -1.8550  150.9620   52.2300 Br  0  0  0  0  0  0  0  0  0  0  0  0
    0.0000    0.0000    0.0000 H   0  0  0  0  0  0  0  0  0  0  0  0
    0.0000    0.0000    0.0000 H   0  0  0  0  0  0  0  0  0  0  0  0
    0.0000    0.0000    0.0000 H   0  0  0  0  0  0  0  0  0  0  0  0
    0.0000    0.0000    0.0000 H   0  0  0  0  0  0  0  0  0  0  0  0
    0.0000    0.0000    0.0000 H   0  0  0  0  0  0  0  0  0  0  0  0
    0.0000    0.0000    0.0000 H   0  0  0  0  0  0  0  0  0  0  0  0
    0.0000    0.0000    0.0000 H   0  0  0  0  0  0  0  0  0  0  0  0
    0.0000    0.0000    0.0000 H   0  0  0  0  0  0  0  0  0  0  0  0
    0.0000    0.0000    0.0000 H   0  0  0  0  0  0  0  0  0  0  0  0
    0.0000    0.0000    0.0000 H   0  0  0  0  0  0  0  0  0  0  0  0
    0.0000    0.0000    0.0000 H   0  0  0  0  0  0  0  0  0  0  0  0
    0.0000    0.0000    0.0000 H   0  0  0  0  0  0  0  0  0  0  0  0
    0.0000    0.0000    0.0000 H   0  0  0  0  0  0  0  0  0  0  0  0
    0.0000    0.0000    0.0000 H   0  0  0  0  0  0  0  0  0  0  0  0
    1.4309   71.3960   27.1427 C   0  0  0  0  0  0  0  0  0  0  0  0
    0.7887   71.1287   25.9701 C   0  0  0  0  0  0  0  0  0  0  0  0
    0.7436   69.8541   25.4524 C   0  0  0  0  0  0  0  0  0  0  0  0
    1.3598   68.8250   26.1319 C   0  0  0  0  0  0  0  0  0  0  0  0
    1.3254   67.5212   25.6223 N   0  0  0  0  0  0  0  0  0  0  0  0
    0.6351   67.2664   24.3732 C   0  0  0  0  0  0  0  0  0  0  0  0
    1.9831   66.4574   26.3595 C   0  0  0  0  0  0  0  0  0  0  0  0
    2.0197   69.1008   27.3370 C   0  0  0  0  0  0  0  0  0  0  0  0
    2.0408   70.3914   27.8199 C   0  0  0  0  0  0  0  0  0  0  0  0
    0.3091   71.9600   25.4518 H   0  0  0  0  0  0  0  0  0  0  0  0
    0.2187   69.6671   24.5050 H   0  0  0  0  0  0  0  0  0  0  0  0
    0.8414   66.2600   23.9887 H   0  0  0  0  0  0  0  0  0  0  0  0
   -0.4500   67.4753   24.5040 H   0  0  0  0  0  0  0  0  0  0  0  0
    1.0210   67.9853   23.6108 H   0  0  0  0  0  0  0  0  0  0  0  0
    1.6520   66.4773   27.4138 H   0  0  0  0  0  0  0  0  0  0  0  0
    1.7257   65.4673   25.9063 H   0  0  0  0  0  0  0  0  0  0  0  0
    3.0899   66.5383   26.2811 H   0  0  0  0  0  0  0  0  0  0  0  0
    2.5092   68.2812   27.8760 H   0  0  0  0  0  0  0  0  0  0  0  0
    2.5492   70.6332   28.7586 H   0  0  0  0  0  0  0  0  0  0  0  0
  1  3  2  0
  1  7  1  0
  2 23  3  0
  3  4  1  0
  3 20  1  0
  4  5  2  0
  4  8  1  0
  5  6  1  0
  6  7  2  0
  6 18  1  0
  7 24  1  0
  8  9  1  0
  9 10  1  0
  9 12  2  0
 10 11  1  0
 11 13  2  0
 11 17  1  0
 13 14  1  0
 14 15  2  0
 15 16  1  0
 15 23  1  0
 16 17  2  0
 16 22  1  0
 18 19  1  0
 20 21  1  0
  1 25  1  0
  5 26  1  0
  8 27  1  0
  8 28  1  0
 10 29  1  0
 17 30  1  0
 19 31  1  0
 19 32  1  0
 19 33  1  0
 21 34  1  0
 21 35  1  0
 21 36  1  0
 22 37  1  0
 22 38  1  0
 39 40  2  0
 40 41  1  0
 41 42  2  0
 42 43  1  0
 43 44  1  0
 43 45  1  0
 42 46  1  0
 46 47  2  0
 47 39  1  0
 40 48  1  0
 41 49  1  0
 44 50  1  0
 44 51  1  0
 44 52  1  0
 45 53  1  0
 45 54  1  0
 45 55  1  0
 46 56  1  0
 47 57  1  0
 14 39  1  0
M  END
>  <attachment_point>  (457) 
29

>  <score>  (457) 
<NA>

$$$$
2gmx
     RDKit          3D

 57 59  0  0  0  0  0  0  0  0999 V2000
    0.6680  149.6310   52.1780 C   0  0  0  0  0  0  0  0  0  0  0  0
    3.0090  140.6200   56.4870 N   0  0  0  0  0  0  0  0  0  0  0  0
    1.9620  149.2640   52.6280 C   0  0  0  0  0  0  0  0  0  0  0  0
    2.4660  149.8330   53.8590 C   0  0  0  0  0  0  0  0  0  0  0  0
    1.6570  150.7410   54.6000 C   0  0  0  0  0  0  0  0  0  0  0  0
    0.3580  151.1130   54.1650 C   0  0  0  0  0  0  0  0  0  0  0  0
   -0.1340  150.5380   52.9220 C   0  0  0  0  0  0  0  0  0  0  0  0
    3.8340  149.4930   54.3900 C   0  0  0  0  0  0  0  0  0  0  0  0
    3.7760  148.3010   55.3550 C   0  0  0  0  0  0  0  0  0  0  0  0
    3.6080  147.1180   54.7070 N   0  0  0  0  0  0  0  0  0  0  0  0
    3.5230  145.8440   55.1920 C   0  0  0  0  0  0  0  0  0  0  0  0
    3.8880  148.4710   56.5680 O   0  0  0  0  0  0  0  0  0  0  0  0
    3.0190  144.9720   54.2890 N   0  0  0  0  0  0  0  0  0  0  0  0
    2.8790  143.6460   54.6100 C   0  0  0  0  0  0  0  0  0  0  0  0
    3.2540  143.1490   55.8980 C   0  0  0  0  0  0  0  0  0  0  0  0
    3.7840  144.0620   56.8580 C   0  0  0  0  0  0  0  0  0  0  0  0
    3.9180  145.4220   56.4980 C   0  0  0  0  0  0  0  0  0  0  0  0
   -0.4210  152.0200   54.9250 O   0  0  0  0  0  0  0  0  0  0  0  0
   -1.4550  151.4120   55.7020 C   0  0  0  0  0  0  0  0  0  0  0  0
    2.7960  148.3740   51.9370 O   0  0  0  0  0  0  0  0  0  0  0  0
    2.1840  147.2640   51.2740 C   0  0  0  0  0  0  0  0  0  0  0  0
    4.1700  143.6740   58.1190 N   0  0  0  0  0  0  0  0  0  0  0  0
    3.1040  141.7440   56.2230 C   0  0  0  0  0  0  0  0  0  0  0  0
   -1.8550  150.9620   52.2300 Br  0  0  0  0  0  0  0  0  0  0  0  0
    0.0000    0.0000    0.0000 H   0  0  0  0  0  0  0  0  0  0  0  0
    0.0000    0.0000    0.0000 H   0  0  0  0  0  0  0  0  0  0  0  0
    0.0000    0.0000    0.0000 H   0  0  0  0  0  0  0  0  0  0  0  0
    0.0000    0.0000    0.0000 H   0  0  0  0  0  0  0  0  0  0  0  0
    0.0000    0.0000    0.0000 H   0  0  0  0  0  0  0  0  0  0  0  0
    0.0000    0.0000    0.0000 H   0  0  0  0  0  0  0  0  0  0  0  0
    0.0000    0.0000    0.0000 H   0  0  0  0  0  0  0  0  0  0  0  0
    0.0000    0.0000    0.0000 H   0  0  0  0  0  0  0  0  0  0  0  0
    0.0000    0.0000    0.0000 H   0  0  0  0  0  0  0  0  0  0  0  0
    0.0000    0.0000    0.0000 H   0  0  0  0  0  0  0  0  0  0  0  0
    0.0000    0.0000    0.0000 H   0  0  0  0  0  0  0  0  0  0  0  0
    0.0000    0.0000    0.0000 H   0  0  0  0  0  0  0  0  0  0  0  0
    0.0000    0.0000    0.0000 H   0  0  0  0  0  0  0  0  0  0  0  0
    0.0000    0.0000    0.0000 H   0  0  0  0  0  0  0  0  0  0  0  0
    1.4317   71.4349   27.1575 C   0  0  0  0  0  0  0  0  0  0  0  0
    2.2489   70.4959   27.7508 C   0  0  0  0  0  0  0  0  0  0  0  0
    2.2714   69.2028   27.3149 C   0  0  0  0  0  0  0  0  0  0  0  0
    1.4440   68.7995   26.2302 C   0  0  0  0  0  0  0  0  0  0  0  0
    1.4195   67.6228   25.7826 O   0  0  0  0  0  0  0  0  0  0  0  0
    1.3945   66.4207   25.3254 C   0  0  0  0  0  0  0  0  0  0  0  0
    0.6163   69.8011   25.6472 C   0  0  0  0  0  0  0  0  0  0  0  0
   -0.1729   69.3768   24.5972 O   0  0  0  0  0  0  0  0  0  0  0  0
   -1.0261   70.2870   23.9474 C   0  0  0  0  0  0  0  0  0  0  0  0
    0.6126   71.0933   26.1047 C   0  0  0  0  0  0  0  0  0  0  0  0
    2.8742   70.7955   28.5689 H   0  0  0  0  0  0  0  0  0  0  0  0
    2.8973   68.4197   27.7460 H   0  0  0  0  0  0  0  0  0  0  0  0
    2.0615   65.6357   25.7996 H   0  0  0  0  0  0  0  0  0  0  0  0
    0.3868   65.8730   25.3359 H   0  0  0  0  0  0  0  0  0  0  0  0
    1.6650   66.3112   24.2159 H   0  0  0  0  0  0  0  0  0  0  0  0
   -1.9735   70.4605   24.5140 H   0  0  0  0  0  0  0  0  0  0  0  0
   -1.3486   69.9152   22.9496 H   0  0  0  0  0  0  0  0  0  0  0  0
   -0.5744   71.2792   23.7656 H   0  0  0  0  0  0  0  0  0  0  0  0
   -0.0446   71.8326   25.6246 H   0  0  0  0  0  0  0  0  0  0  0  0
  1  3  2  0
  1  7  1  0
  2 23  3  0
  3  4  1  0
  3 20  1  0
  4  5  2  0
  4  8  1  0
  5  6  1  0
  6  7  2  0
  6 18  1  0
  7 24  1  0
  8  9  1  0
  9 10  1  0
  9 12  2  0
 10 11  1  0
 11 13  2  0
 11 17  1  0
 13 14  1  0
 14 15  2  0
 15 16  1  0
 15 23  1  0
 16 17  2  0
 16 22  1  0
 18 19  1  0
 20 21  1  0
  1 25  1  0
  5 26  1  0
  8 27  1  0
  8 28  1  0
 10 29  1  0
 17 30  1  0
 19 31  1  0
 19 32  1  0
 19 33  1  0
 21 34  1  0
 21 35  1  0
 21 36  1  0
 22 37  1  0
 22 38  1  0
 39 40  2  0
 40 41  1  0
 41 42  2  0
 42 43  1  0
 43 44  1  0
 42 45  1  0
 45 46  1  0
 46 47  1  0
 45 48  2  0
 48 39  1  0
 40 49  1  0
 41 50  1  0
 44 51  1  0
 44 52  1  0
 44 53  1  0
 47 54  1  0
 47 55  1  0
 47 56  1  0
 48 57  1  0
 14 39  1  0
M  END
>  <attachment_point>  (458) 
29

>  <score>  (458) 
<NA>

$$$$
2gmx
     RDKit          3D

 51 53  0  0  0  0  0  0  0  0999 V2000
    0.6680  149.6310   52.1780 C   0  0  0  0  0  0  0  0  0  0  0  0
    3.0090  140.6200   56.4870 N   0  0  0  0  0  0  0  0  0  0  0  0
    1.9620  149.2640   52.6280 C   0  0  0  0  0  0  0  0  0  0  0  0
    2.4660  149.8330   53.8590 C   0  0  0  0  0  0  0  0  0  0  0  0
    1.6570  150.7410   54.6000 C   0  0  0  0  0  0  0  0  0  0  0  0
    0.3580  151.1130   54.1650 C   0  0  0  0  0  0  0  0  0  0  0  0
   -0.1340  150.5380   52.9220 C   0  0  0  0  0  0  0  0  0  0  0  0
    3.8340  149.4930   54.3900 C   0  0  0  0  0  0  0  0  0  0  0  0
    3.7760  148.3010   55.3550 C   0  0  0  0  0  0  0  0  0  0  0  0
    3.6080  147.1180   54.7070 N   0  0  0  0  0  0  0  0  0  0  0  0
    3.5230  145.8440   55.1920 C   0  0  0  0  0  0  0  0  0  0  0  0
    3.8880  148.4710   56.5680 O   0  0  0  0  0  0  0  0  0  0  0  0
    3.0190  144.9720   54.2890 N   0  0  0  0  0  0  0  0  0  0  0  0
    2.8790  143.6460   54.6100 C   0  0  0  0  0  0  0  0  0  0  0  0
    3.2540  143.1490   55.8980 C   0  0  0  0  0  0  0  0  0  0  0  0
    3.7840  144.0620   56.8580 C   0  0  0  0  0  0  0  0  0  0  0  0
    3.9180  145.4220   56.4980 C   0  0  0  0  0  0  0  0  0  0  0  0
   -0.4210  152.0200   54.9250 O   0  0  0  0  0  0  0  0  0  0  0  0
   -1.4550  151.4120   55.7020 C   0  0  0  0  0  0  0  0  0  0  0  0
    2.7960  148.3740   51.9370 O   0  0  0  0  0  0  0  0  0  0  0  0
    2.1840  147.2640   51.2740 C   0  0  0  0  0  0  0  0  0  0  0  0
    4.1700  143.6740   58.1190 N   0  0  0  0  0  0  0  0  0  0  0  0
    3.1040  141.7440   56.2230 C   0  0  0  0  0  0  0  0  0  0  0  0
   -1.8550  150.9620   52.2300 Br  0  0  0  0  0  0  0  0  0  0  0  0
    0.0000    0.0000    0.0000 H   0  0  0  0  0  0  0  0  0  0  0  0
    0.0000    0.0000    0.0000 H   0  0  0  0  0  0  0  0  0  0  0  0
    0.0000    0.0000    0.0000 H   0  0  0  0  0  0  0  0  0  0  0  0
    0.0000    0.0000    0.0000 H   0  0  0  0  0  0  0  0  0  0  0  0
    0.0000    0.0000    0.0000 H   0  0  0  0  0  0  0  0  0  0  0  0
    0.0000    0.0000    0.0000 H   0  0  0  0  0  0  0  0  0  0  0  0
    0.0000    0.0000    0.0000 H   0  0  0  0  0  0  0  0  0  0  0  0
    0.0000    0.0000    0.0000 H   0  0  0  0  0  0  0  0  0  0  0  0
    0.0000    0.0000    0.0000 H   0  0  0  0  0  0  0  0  0  0  0  0
    0.0000    0.0000    0.0000 H   0  0  0  0  0  0  0  0  0  0  0  0
    0.0000    0.0000    0.0000 H   0  0  0  0  0  0  0  0  0  0  0  0
    0.0000    0.0000    0.0000 H   0  0  0  0  0  0  0  0  0  0  0  0
    0.0000    0.0000    0.0000 H   0  0  0  0  0  0  0  0  0  0  0  0
    0.0000    0.0000    0.0000 H   0  0  0  0  0  0  0  0  0  0  0  0
    1.4281   71.2536   27.0885 C   0  0  0  0  0  0  0  0  0  0  0  0
    1.3846   69.8875   26.5890 C   0  0  0  0  0  0  0  0  0  0  0  0
    1.3370   68.8579   26.2256 C   0  0  0  0  0  0  0  0  0  0  0  0
    1.2045   67.6900   27.1652 C   0  0  0  0  0  0  0  0  0  0  0  0
    1.0792   66.5544   26.5249 C   0  0  0  0  0  0  0  0  0  0  0  0
    1.0301   66.0999   25.2825 C   0  0  0  0  0  0  0  0  0  0  0  0
    1.1645   67.1806   24.3422 C   0  0  0  0  0  0  0  0  0  0  0  0
    1.3147   68.4757   24.7975 C   0  0  0  0  0  0  0  0  0  0  0  0
    1.2957   67.9595   28.1939 H   0  0  0  0  0  0  0  0  0  0  0  0
    0.9689   65.6275   27.3049 H   0  0  0  0  0  0  0  0  0  0  0  0
    0.9038   65.1740   24.8753 H   0  0  0  0  0  0  0  0  0  0  0  0
    1.0735   67.0461   23.2849 H   0  0  0  0  0  0  0  0  0  0  0  0
    1.5312   69.3054   24.1660 H   0  0  0  0  0  0  0  0  0  0  0  0
  1  3  2  0
  1  7  1  0
  2 23  3  0
  3  4  1  0
  3 20  1  0
  4  5  2  0
  4  8  1  0
  5  6  1  0
  6  7  2  0
  6 18  1  0
  7 24  1  0
  8  9  1  0
  9 10  1  0
  9 12  2  0
 10 11  1  0
 11 13  2  0
 11 17  1  0
 13 14  1  0
 14 15  2  0
 15 16  1  0
 15 23  1  0
 16 17  2  0
 16 22  1  0
 18 19  1  0
 20 21  1  0
  1 25  1  0
  5 26  1  0
  8 27  1  0
  8 28  1  0
 10 29  1  0
 17 30  1  0
 19 31  1  0
 19 32  1  0
 19 33  1  0
 21 34  1  0
 21 35  1  0
 21 36  1  0
 22 37  1  0
 22 38  1  0
 39 40  3  0
 40 41  1  0
 41 42  2  0
 42 43  1  0
 43 44  2  0
 44 45  1  0
 45 46  2  0
 46 41  1  0
 42 47  1  0
 43 48  1  0
 44 49  1  0
 45 50  1  0
 46 51  1  0
 14 39  1  0
M  END
>  <attachment_point>  (459) 
29

>  <score>  (459) 
<NA>

$$$$
2gmx
     RDKit          3D

 54 56  0  0  0  0  0  0  0  0999 V2000
    0.6680  149.6310   52.1780 C   0  0  0  0  0  0  0  0  0  0  0  0
    3.0090  140.6200   56.4870 N   0  0  0  0  0  0  0  0  0  0  0  0
    1.9620  149.2640   52.6280 C   0  0  0  0  0  0  0  0  0  0  0  0
    2.4660  149.8330   53.8590 C   0  0  0  0  0  0  0  0  0  0  0  0
    1.6570  150.7410   54.6000 C   0  0  0  0  0  0  0  0  0  0  0  0
    0.3580  151.1130   54.1650 C   0  0  0  0  0  0  0  0  0  0  0  0
   -0.1340  150.5380   52.9220 C   0  0  0  0  0  0  0  0  0  0  0  0
    3.8340  149.4930   54.3900 C   0  0  0  0  0  0  0  0  0  0  0  0
    3.7760  148.3010   55.3550 C   0  0  0  0  0  0  0  0  0  0  0  0
    3.6080  147.1180   54.7070 N   0  0  0  0  0  0  0  0  0  0  0  0
    3.5230  145.8440   55.1920 C   0  0  0  0  0  0  0  0  0  0  0  0
    3.8880  148.4710   56.5680 O   0  0  0  0  0  0  0  0  0  0  0  0
    3.0190  144.9720   54.2890 N   0  0  0  0  0  0  0  0  0  0  0  0
    2.8790  143.6460   54.6100 C   0  0  0  0  0  0  0  0  0  0  0  0
    3.2540  143.1490   55.8980 C   0  0  0  0  0  0  0  0  0  0  0  0
    3.7840  144.0620   56.8580 C   0  0  0  0  0  0  0  0  0  0  0  0
    3.9180  145.4220   56.4980 C   0  0  0  0  0  0  0  0  0  0  0  0
   -0.4210  152.0200   54.9250 O   0  0  0  0  0  0  0  0  0  0  0  0
   -1.4550  151.4120   55.7020 C   0  0  0  0  0  0  0  0  0  0  0  0
    2.7960  148.3740   51.9370 O   0  0  0  0  0  0  0  0  0  0  0  0
    2.1840  147.2640   51.2740 C   0  0  0  0  0  0  0  0  0  0  0  0
    4.1700  143.6740   58.1190 N   0  0  0  0  0  0  0  0  0  0  0  0
    3.1040  141.7440   56.2230 C   0  0  0  0  0  0  0  0  0  0  0  0
   -1.8550  150.9620   52.2300 Br  0  0  0  0  0  0  0  0  0  0  0  0
    0.0000    0.0000    0.0000 H   0  0  0  0  0  0  0  0  0  0  0  0
    0.0000    0.0000    0.0000 H   0  0  0  0  0  0  0  0  0  0  0  0
    0.0000    0.0000    0.0000 H   0  0  0  0  0  0  0  0  0  0  0  0
    0.0000    0.0000    0.0000 H   0  0  0  0  0  0  0  0  0  0  0  0
    0.0000    0.0000    0.0000 H   0  0  0  0  0  0  0  0  0  0  0  0
    0.0000    0.0000    0.0000 H   0  0  0  0  0  0  0  0  0  0  0  0
    0.0000    0.0000    0.0000 H   0  0  0  0  0  0  0  0  0  0  0  0
    0.0000    0.0000    0.0000 H   0  0  0  0  0  0  0  0  0  0  0  0
    0.0000    0.0000    0.0000 H   0  0  0  0  0  0  0  0  0  0  0  0
    0.0000    0.0000    0.0000 H   0  0  0  0  0  0  0  0  0  0  0  0
    0.0000    0.0000    0.0000 H   0  0  0  0  0  0  0  0  0  0  0  0
    0.0000    0.0000    0.0000 H   0  0  0  0  0  0  0  0  0  0  0  0
    0.0000    0.0000    0.0000 H   0  0  0  0  0  0  0  0  0  0  0  0
    0.0000    0.0000    0.0000 H   0  0  0  0  0  0  0  0  0  0  0  0
    1.4311   71.4042   27.1458 C   0  0  0  0  0  0  0  0  0  0  0  0
    1.8535   70.3664   27.9171 C   0  0  0  0  0  0  0  0  0  0  0  0
    1.8540   69.0477   27.4868 C   0  0  0  0  0  0  0  0  0  0  0  0
    1.3895   68.8224   26.1914 C   0  0  0  0  0  0  0  0  0  0  0  0
    1.3378   67.1978   25.5238 S   0  0  0  0  0  6  0  0  0  0  0  0
   -0.1937   66.4898   25.8851 N   0  0  0  0  0  0  0  0  0  0  0  0
    1.4804   67.3025   24.0507 O   0  0  0  0  0  0  0  0  0  0  0  0
    2.4723   66.3544   26.0811 O   0  0  0  0  0  0  0  0  0  0  0  0
    0.9595   69.8688   25.4030 C   0  0  0  0  0  0  0  0  0  0  0  0
    0.9762   71.1771   25.8749 C   0  0  0  0  0  0  0  0  0  0  0  0
    2.2147   70.5526   28.9279 H   0  0  0  0  0  0  0  0  0  0  0  0
    2.1808   68.2225   28.0761 H   0  0  0  0  0  0  0  0  0  0  0  0
   -0.3413   65.6599   25.2783 H   0  0  0  0  0  0  0  0  0  0  0  0
   -0.2604   66.2684   26.9117 H   0  0  0  0  0  0  0  0  0  0  0  0
    0.5947   69.6945   24.3863 H   0  0  0  0  0  0  0  0  0  0  0  0
    0.6273   71.9550   25.2119 H   0  0  0  0  0  0  0  0  0  0  0  0
  1  3  2  0
  1  7  1  0
  2 23  3  0
  3  4  1  0
  3 20  1  0
  4  5  2  0
  4  8  1  0
  5  6  1  0
  6  7  2  0
  6 18  1  0
  7 24  1  0
  8  9  1  0
  9 10  1  0
  9 12  2  0
 10 11  1  0
 11 13  2  0
 11 17  1  0
 13 14  1  0
 14 15  2  0
 15 16  1  0
 15 23  1  0
 16 17  2  0
 16 22  1  0
 18 19  1  0
 20 21  1  0
  1 25  1  0
  5 26  1  0
  8 27  1  0
  8 28  1  0
 10 29  1  0
 17 30  1  0
 19 31  1  0
 19 32  1  0
 19 33  1  0
 21 34  1  0
 21 35  1  0
 21 36  1  0
 22 37  1  0
 22 38  1  0
 39 40  2  0
 40 41  1  0
 41 42  2  0
 42 43  1  0
 43 44  1  0
 43 45  2  0
 43 46  2  0
 42 47  1  0
 47 48  2  0
 48 39  1  0
 40 49  1  0
 41 50  1  0
 44 51  1  0
 44 52  1  0
 47 53  1  0
 48 54  1  0
 14 39  1  0
M  END
>  <attachment_point>  (460) 
29

>  <score>  (460) 
<NA>

$$$$
2gmx
     RDKit          3D

 51 54  0  0  0  0  0  0  0  0999 V2000
    0.6680  149.6310   52.1780 C   0  0  0  0  0  0  0  0  0  0  0  0
    3.0090  140.6200   56.4870 N   0  0  0  0  0  0  0  0  0  0  0  0
    1.9620  149.2640   52.6280 C   0  0  0  0  0  0  0  0  0  0  0  0
    2.4660  149.8330   53.8590 C   0  0  0  0  0  0  0  0  0  0  0  0
    1.6570  150.7410   54.6000 C   0  0  0  0  0  0  0  0  0  0  0  0
    0.3580  151.1130   54.1650 C   0  0  0  0  0  0  0  0  0  0  0  0
   -0.1340  150.5380   52.9220 C   0  0  0  0  0  0  0  0  0  0  0  0
    3.8340  149.4930   54.3900 C   0  0  0  0  0  0  0  0  0  0  0  0
    3.7760  148.3010   55.3550 C   0  0  0  0  0  0  0  0  0  0  0  0
    3.6080  147.1180   54.7070 N   0  0  0  0  0  0  0  0  0  0  0  0
    3.5230  145.8440   55.1920 C   0  0  0  0  0  0  0  0  0  0  0  0
    3.8880  148.4710   56.5680 O   0  0  0  0  0  0  0  0  0  0  0  0
    3.0190  144.9720   54.2890 N   0  0  0  0  0  0  0  0  0  0  0  0
    2.8790  143.6460   54.6100 C   0  0  0  0  0  0  0  0  0  0  0  0
    3.2540  143.1490   55.8980 C   0  0  0  0  0  0  0  0  0  0  0  0
    3.7840  144.0620   56.8580 C   0  0  0  0  0  0  0  0  0  0  0  0
    3.9180  145.4220   56.4980 C   0  0  0  0  0  0  0  0  0  0  0  0
   -0.4210  152.0200   54.9250 O   0  0  0  0  0  0  0  0  0  0  0  0
   -1.4550  151.4120   55.7020 C   0  0  0  0  0  0  0  0  0  0  0  0
    2.7960  148.3740   51.9370 O   0  0  0  0  0  0  0  0  0  0  0  0
    2.1840  147.2640   51.2740 C   0  0  0  0  0  0  0  0  0  0  0  0
    4.1700  143.6740   58.1190 N   0  0  0  0  0  0  0  0  0  0  0  0
    3.1040  141.7440   56.2230 C   0  0  0  0  0  0  0  0  0  0  0  0
   -1.8550  150.9620   52.2300 Br  0  0  0  0  0  0  0  0  0  0  0  0
    0.0000    0.0000    0.0000 H   0  0  0  0  0  0  0  0  0  0  0  0
    0.0000    0.0000    0.0000 H   0  0  0  0  0  0  0  0  0  0  0  0
    0.0000    0.0000    0.0000 H   0  0  0  0  0  0  0  0  0  0  0  0
    0.0000    0.0000    0.0000 H   0  0  0  0  0  0  0  0  0  0  0  0
    0.0000    0.0000    0.0000 H   0  0  0  0  0  0  0  0  0  0  0  0
    0.0000    0.0000    0.0000 H   0  0  0  0  0  0  0  0  0  0  0  0
    0.0000    0.0000    0.0000 H   0  0  0  0  0  0  0  0  0  0  0  0
    0.0000    0.0000    0.0000 H   0  0  0  0  0  0  0  0  0  0  0  0
    0.0000    0.0000    0.0000 H   0  0  0  0  0  0  0  0  0  0  0  0
    0.0000    0.0000    0.0000 H   0  0  0  0  0  0  0  0  0  0  0  0
    0.0000    0.0000    0.0000 H   0  0  0  0  0  0  0  0  0  0  0  0
    0.0000    0.0000    0.0000 H   0  0  0  0  0  0  0  0  0  0  0  0
    0.0000    0.0000    0.0000 H   0  0  0  0  0  0  0  0  0  0  0  0
    0.0000    0.0000    0.0000 H   0  0  0  0  0  0  0  0  0  0  0  0
    1.4312   71.4069   27.1468 C   0  0  0  0  0  0  0  0  0  0  0  0
    1.5762   71.0146   25.8688 N   0  0  0  0  0  0  0  0  0  0  0  0
    1.4828   69.6762   25.8526 C   0  0  0  0  0  0  0  0  0  0  0  0
    1.5457   68.6987   24.8726 C   0  0  0  0  0  0  0  0  0  0  0  0
    1.4121   67.3524   25.1493 C   0  0  0  0  0  0  0  0  0  0  0  0
    1.2083   66.9938   26.4648 C   0  0  0  0  0  0  0  0  0  0  0  0
    1.1437   67.9652   27.4541 C   0  0  0  0  0  0  0  0  0  0  0  0
    1.2785   69.3069   27.1659 C   0  0  0  0  0  0  0  0  0  0  0  0
    1.2510   70.3907   27.9411 O   0  0  0  0  0  0  0  0  0  0  0  0
    1.7055   68.9986   23.8515 H   0  0  0  0  0  0  0  0  0  0  0  0
    1.4687   66.6209   24.3449 H   0  0  0  0  0  0  0  0  0  0  0  0
    1.1028   65.9391   26.6870 H   0  0  0  0  0  0  0  0  0  0  0  0
    0.9827   67.6568   28.4799 H   0  0  0  0  0  0  0  0  0  0  0  0
  1  3  2  0
  1  7  1  0
  2 23  3  0
  3  4  1  0
  3 20  1  0
  4  5  2  0
  4  8  1  0
  5  6  1  0
  6  7  2  0
  6 18  1  0
  7 24  1  0
  8  9  1  0
  9 10  1  0
  9 12  2  0
 10 11  1  0
 11 13  2  0
 11 17  1  0
 13 14  1  0
 14 15  2  0
 15 16  1  0
 15 23  1  0
 16 17  2  0
 16 22  1  0
 18 19  1  0
 20 21  1  0
  1 25  1  0
  5 26  1  0
  8 27  1  0
  8 28  1  0
 10 29  1  0
 17 30  1  0
 19 31  1  0
 19 32  1  0
 19 33  1  0
 21 34  1  0
 21 35  1  0
 21 36  1  0
 22 37  1  0
 22 38  1  0
 39 40  2  0
 40 41  1  0
 41 42  2  0
 42 43  1  0
 43 44  2  0
 44 45  1  0
 45 46  2  0
 46 47  1  0
 47 39  1  0
 46 41  1  0
 42 48  1  0
 43 49  1  0
 44 50  1  0
 45 51  1  0
 14 39  1  0
M  END
>  <attachment_point>  (461) 
29

>  <score>  (461) 
<NA>

$$$$
2gmx
     RDKit          3D

 56 58  0  0  0  0  0  0  0  0999 V2000
    0.6680  149.6310   52.1780 C   0  0  0  0  0  0  0  0  0  0  0  0
    3.0090  140.6200   56.4870 N   0  0  0  0  0  0  0  0  0  0  0  0
    1.9620  149.2640   52.6280 C   0  0  0  0  0  0  0  0  0  0  0  0
    2.4660  149.8330   53.8590 C   0  0  0  0  0  0  0  0  0  0  0  0
    1.6570  150.7410   54.6000 C   0  0  0  0  0  0  0  0  0  0  0  0
    0.3580  151.1130   54.1650 C   0  0  0  0  0  0  0  0  0  0  0  0
   -0.1340  150.5380   52.9220 C   0  0  0  0  0  0  0  0  0  0  0  0
    3.8340  149.4930   54.3900 C   0  0  0  0  0  0  0  0  0  0  0  0
    3.7760  148.3010   55.3550 C   0  0  0  0  0  0  0  0  0  0  0  0
    3.6080  147.1180   54.7070 N   0  0  0  0  0  0  0  0  0  0  0  0
    3.5230  145.8440   55.1920 C   0  0  0  0  0  0  0  0  0  0  0  0
    3.8880  148.4710   56.5680 O   0  0  0  0  0  0  0  0  0  0  0  0
    3.0190  144.9720   54.2890 N   0  0  0  0  0  0  0  0  0  0  0  0
    2.8790  143.6460   54.6100 C   0  0  0  0  0  0  0  0  0  0  0  0
    3.2540  143.1490   55.8980 C   0  0  0  0  0  0  0  0  0  0  0  0
    3.7840  144.0620   56.8580 C   0  0  0  0  0  0  0  0  0  0  0  0
    3.9180  145.4220   56.4980 C   0  0  0  0  0  0  0  0  0  0  0  0
   -0.4210  152.0200   54.9250 O   0  0  0  0  0  0  0  0  0  0  0  0
   -1.4550  151.4120   55.7020 C   0  0  0  0  0  0  0  0  0  0  0  0
    2.7960  148.3740   51.9370 O   0  0  0  0  0  0  0  0  0  0  0  0
    2.1840  147.2640   51.2740 C   0  0  0  0  0  0  0  0  0  0  0  0
    4.1700  143.6740   58.1190 N   0  0  0  0  0  0  0  0  0  0  0  0
    3.1040  141.7440   56.2230 C   0  0  0  0  0  0  0  0  0  0  0  0
   -1.8550  150.9620   52.2300 Br  0  0  0  0  0  0  0  0  0  0  0  0
    0.0000    0.0000    0.0000 H   0  0  0  0  0  0  0  0  0  0  0  0
    0.0000    0.0000    0.0000 H   0  0  0  0  0  0  0  0  0  0  0  0
    0.0000    0.0000    0.0000 H   0  0  0  0  0  0  0  0  0  0  0  0
    0.0000    0.0000    0.0000 H   0  0  0  0  0  0  0  0  0  0  0  0
    0.0000    0.0000    0.0000 H   0  0  0  0  0  0  0  0  0  0  0  0
    0.0000    0.0000    0.0000 H   0  0  0  0  0  0  0  0  0  0  0  0
    0.0000    0.0000    0.0000 H   0  0  0  0  0  0  0  0  0  0  0  0
    0.0000    0.0000    0.0000 H   0  0  0  0  0  0  0  0  0  0  0  0
    0.0000    0.0000    0.0000 H   0  0  0  0  0  0  0  0  0  0  0  0
    0.0000    0.0000    0.0000 H   0  0  0  0  0  0  0  0  0  0  0  0
    0.0000    0.0000    0.0000 H   0  0  0  0  0  0  0  0  0  0  0  0
    0.0000    0.0000    0.0000 H   0  0  0  0  0  0  0  0  0  0  0  0
    0.0000    0.0000    0.0000 H   0  0  0  0  0  0  0  0  0  0  0  0
    0.0000    0.0000    0.0000 H   0  0  0  0  0  0  0  0  0  0  0  0
    1.4315   71.4233   27.1530 C   0  0  0  0  0  0  0  0  0  0  0  0
    2.6180   70.7355   27.0102 C   0  0  0  0  0  0  0  0  0  0  0  0
    2.6575   69.4281   26.5197 C   0  0  0  0  0  0  0  0  0  0  0  0
    1.4612   68.8475   26.1820 C   0  0  0  0  0  0  0  0  0  0  0  0
    1.4329   67.5815   25.7009 O   0  0  0  0  0  0  0  0  0  0  0  0
    2.4691   66.6883   25.4681 C   0  0  0  0  0  0  0  0  0  0  0  0
    3.1855   66.4168   26.7715 C   0  0  0  0  0  0  0  0  0  0  0  0
    0.2847   69.5448   26.3295 C   0  0  0  0  0  0  0  0  0  0  0  0
    0.2323   70.8375   26.8131 C   0  0  0  0  0  0  0  0  0  0  0  0
    3.5758   71.1734   27.2703 H   0  0  0  0  0  0  0  0  0  0  0  0
    3.6225   68.9268   26.4239 H   0  0  0  0  0  0  0  0  0  0  0  0
    2.0187   65.7282   25.1398 H   0  0  0  0  0  0  0  0  0  0  0  0
    3.1749   67.0185   24.6741 H   0  0  0  0  0  0  0  0  0  0  0  0
    2.7381   67.0353   27.5939 H   0  0  0  0  0  0  0  0  0  0  0  0
    4.2726   66.6385   26.6993 H   0  0  0  0  0  0  0  0  0  0  0  0
    3.0327   65.3698   27.0756 H   0  0  0  0  0  0  0  0  0  0  0  0
   -0.6736   69.0816   26.0598 H   0  0  0  0  0  0  0  0  0  0  0  0
   -0.7201   71.3704   26.9206 H   0  0  0  0  0  0  0  0  0  0  0  0
  1  3  2  0
  1  7  1  0
  2 23  3  0
  3  4  1  0
  3 20  1  0
  4  5  2  0
  4  8  1  0
  5  6  1  0
  6  7  2  0
  6 18  1  0
  7 24  1  0
  8  9  1  0
  9 10  1  0
  9 12  2  0
 10 11  1  0
 11 13  2  0
 11 17  1  0
 13 14  1  0
 14 15  2  0
 15 16  1  0
 15 23  1  0
 16 17  2  0
 16 22  1  0
 18 19  1  0
 20 21  1  0
  1 25  1  0
  5 26  1  0
  8 27  1  0
  8 28  1  0
 10 29  1  0
 17 30  1  0
 19 31  1  0
 19 32  1  0
 19 33  1  0
 21 34  1  0
 21 35  1  0
 21 36  1  0
 22 37  1  0
 22 38  1  0
 39 40  2  0
 40 41  1  0
 41 42  2  0
 42 43  1  0
 43 44  1  0
 44 45  1  0
 42 46  1  0
 46 47  2  0
 47 39  1  0
 40 48  1  0
 41 49  1  0
 44 50  1  0
 44 51  1  0
 45 52  1  0
 45 53  1  0
 45 54  1  0
 46 55  1  0
 47 56  1  0
 14 39  1  0
M  END
>  <attachment_point>  (462) 
29

>  <score>  (462) 
<NA>

$$$$
2gmx
     RDKit          3D

 53 55  0  0  0  0  0  0  0  0999 V2000
    0.6680  149.6310   52.1780 C   0  0  0  0  0  0  0  0  0  0  0  0
    3.0090  140.6200   56.4870 N   0  0  0  0  0  0  0  0  0  0  0  0
    1.9620  149.2640   52.6280 C   0  0  0  0  0  0  0  0  0  0  0  0
    2.4660  149.8330   53.8590 C   0  0  0  0  0  0  0  0  0  0  0  0
    1.6570  150.7410   54.6000 C   0  0  0  0  0  0  0  0  0  0  0  0
    0.3580  151.1130   54.1650 C   0  0  0  0  0  0  0  0  0  0  0  0
   -0.1340  150.5380   52.9220 C   0  0  0  0  0  0  0  0  0  0  0  0
    3.8340  149.4930   54.3900 C   0  0  0  0  0  0  0  0  0  0  0  0
    3.7760  148.3010   55.3550 C   0  0  0  0  0  0  0  0  0  0  0  0
    3.6080  147.1180   54.7070 N   0  0  0  0  0  0  0  0  0  0  0  0
    3.5230  145.8440   55.1920 C   0  0  0  0  0  0  0  0  0  0  0  0
    3.8880  148.4710   56.5680 O   0  0  0  0  0  0  0  0  0  0  0  0
    3.0190  144.9720   54.2890 N   0  0  0  0  0  0  0  0  0  0  0  0
    2.8790  143.6460   54.6100 C   0  0  0  0  0  0  0  0  0  0  0  0
    3.2540  143.1490   55.8980 C   0  0  0  0  0  0  0  0  0  0  0  0
    3.7840  144.0620   56.8580 C   0  0  0  0  0  0  0  0  0  0  0  0
    3.9180  145.4220   56.4980 C   0  0  0  0  0  0  0  0  0  0  0  0
   -0.4210  152.0200   54.9250 O   0  0  0  0  0  0  0  0  0  0  0  0
   -1.4550  151.4120   55.7020 C   0  0  0  0  0  0  0  0  0  0  0  0
    2.7960  148.3740   51.9370 O   0  0  0  0  0  0  0  0  0  0  0  0
    2.1840  147.2640   51.2740 C   0  0  0  0  0  0  0  0  0  0  0  0
    4.1700  143.6740   58.1190 N   0  0  0  0  0  0  0  0  0  0  0  0
    3.1040  141.7440   56.2230 C   0  0  0  0  0  0  0  0  0  0  0  0
   -1.8550  150.9620   52.2300 Br  0  0  0  0  0  0  0  0  0  0  0  0
    0.0000    0.0000    0.0000 H   0  0  0  0  0  0  0  0  0  0  0  0
    0.0000    0.0000    0.0000 H   0  0  0  0  0  0  0  0  0  0  0  0
    0.0000    0.0000    0.0000 H   0  0  0  0  0  0  0  0  0  0  0  0
    0.0000    0.0000    0.0000 H   0  0  0  0  0  0  0  0  0  0  0  0
    0.0000    0.0000    0.0000 H   0  0  0  0  0  0  0  0  0  0  0  0
    0.0000    0.0000    0.0000 H   0  0  0  0  0  0  0  0  0  0  0  0
    0.0000    0.0000    0.0000 H   0  0  0  0  0  0  0  0  0  0  0  0
    0.0000    0.0000    0.0000 H   0  0  0  0  0  0  0  0  0  0  0  0
    0.0000    0.0000    0.0000 H   0  0  0  0  0  0  0  0  0  0  0  0
    0.0000    0.0000    0.0000 H   0  0  0  0  0  0  0  0  0  0  0  0
    0.0000    0.0000    0.0000 H   0  0  0  0  0  0  0  0  0  0  0  0
    0.0000    0.0000    0.0000 H   0  0  0  0  0  0  0  0  0  0  0  0
    0.0000    0.0000    0.0000 H   0  0  0  0  0  0  0  0  0  0  0  0
    0.0000    0.0000    0.0000 H   0  0  0  0  0  0  0  0  0  0  0  0
    1.4315   71.4255   27.1539 C   0  0  0  0  0  0  0  0  0  0  0  0
    0.7798   71.2254   25.9600 C   0  0  0  0  0  0  0  0  0  0  0  0
    0.7482   69.9451   25.4633 C   0  0  0  0  0  0  0  0  0  0  0  0
    1.3416   68.9024   26.1270 C   0  0  0  0  0  0  0  0  0  0  0  0
    1.2735   67.6327   25.5708 O   0  0  0  0  0  0  0  0  0  0  0  0
    0.1964   66.7540   25.8806 C   0  0  0  0  0  0  0  0  0  0  0  0
   -1.0153   67.3137   25.5086 F   0  0  0  0  0  0  0  0  0  0  0  0
    0.4263   65.6008   25.1344 F   0  0  0  0  0  0  0  0  0  0  0  0
    0.2370   66.4207   27.2103 F   0  0  0  0  0  0  0  0  0  0  0  0
    1.9825   69.1417   27.3156 C   0  0  0  0  0  0  0  0  0  0  0  0
    2.0416   70.4062   27.8545 C   0  0  0  0  0  0  0  0  0  0  0  0
    0.3045   72.0676   25.4310 H   0  0  0  0  0  0  0  0  0  0  0  0
    0.2387   69.7816   24.5276 H   0  0  0  0  0  0  0  0  0  0  0  0
    2.4677   68.3286   27.8719 H   0  0  0  0  0  0  0  0  0  0  0  0
    2.5532   70.6100   28.8077 H   0  0  0  0  0  0  0  0  0  0  0  0
  1  3  2  0
  1  7  1  0
  2 23  3  0
  3  4  1  0
  3 20  1  0
  4  5  2  0
  4  8  1  0
  5  6  1  0
  6  7  2  0
  6 18  1  0
  7 24  1  0
  8  9  1  0
  9 10  1  0
  9 12  2  0
 10 11  1  0
 11 13  2  0
 11 17  1  0
 13 14  1  0
 14 15  2  0
 15 16  1  0
 15 23  1  0
 16 17  2  0
 16 22  1  0
 18 19  1  0
 20 21  1  0
  1 25  1  0
  5 26  1  0
  8 27  1  0
  8 28  1  0
 10 29  1  0
 17 30  1  0
 19 31  1  0
 19 32  1  0
 19 33  1  0
 21 34  1  0
 21 35  1  0
 21 36  1  0
 22 37  1  0
 22 38  1  0
 39 40  2  0
 40 41  1  0
 41 42  2  0
 42 43  1  0
 43 44  1  0
 44 45  1  0
 44 46  1  0
 44 47  1  0
 42 48  1  0
 48 49  2  0
 49 39  1  0
 40 50  1  0
 41 51  1  0
 48 52  1  0
 49 53  1  0
 14 39  1  0
M  END
>  <attachment_point>  (463) 
29

>  <score>  (463) 
<NA>

$$$$
2gmx
     RDKit          3D

 60 62  0  0  0  0  0  0  0  0999 V2000
    0.6680  149.6310   52.1780 C   0  0  0  0  0  0  0  0  0  0  0  0
    3.0090  140.6200   56.4870 N   0  0  0  0  0  0  0  0  0  0  0  0
    1.9620  149.2640   52.6280 C   0  0  0  0  0  0  0  0  0  0  0  0
    2.4660  149.8330   53.8590 C   0  0  0  0  0  0  0  0  0  0  0  0
    1.6570  150.7410   54.6000 C   0  0  0  0  0  0  0  0  0  0  0  0
    0.3580  151.1130   54.1650 C   0  0  0  0  0  0  0  0  0  0  0  0
   -0.1340  150.5380   52.9220 C   0  0  0  0  0  0  0  0  0  0  0  0
    3.8340  149.4930   54.3900 C   0  0  0  0  0  0  0  0  0  0  0  0
    3.7760  148.3010   55.3550 C   0  0  0  0  0  0  0  0  0  0  0  0
    3.6080  147.1180   54.7070 N   0  0  0  0  0  0  0  0  0  0  0  0
    3.5230  145.8440   55.1920 C   0  0  0  0  0  0  0  0  0  0  0  0
    3.8880  148.4710   56.5680 O   0  0  0  0  0  0  0  0  0  0  0  0
    3.0190  144.9720   54.2890 N   0  0  0  0  0  0  0  0  0  0  0  0
    2.8790  143.6460   54.6100 C   0  0  0  0  0  0  0  0  0  0  0  0
    3.2540  143.1490   55.8980 C   0  0  0  0  0  0  0  0  0  0  0  0
    3.7840  144.0620   56.8580 C   0  0  0  0  0  0  0  0  0  0  0  0
    3.9180  145.4220   56.4980 C   0  0  0  0  0  0  0  0  0  0  0  0
   -0.4210  152.0200   54.9250 O   0  0  0  0  0  0  0  0  0  0  0  0
   -1.4550  151.4120   55.7020 C   0  0  0  0  0  0  0  0  0  0  0  0
    2.7960  148.3740   51.9370 O   0  0  0  0  0  0  0  0  0  0  0  0
    2.1840  147.2640   51.2740 C   0  0  0  0  0  0  0  0  0  0  0  0
    4.1700  143.6740   58.1190 N   0  0  0  0  0  0  0  0  0  0  0  0
    3.1040  141.7440   56.2230 C   0  0  0  0  0  0  0  0  0  0  0  0
   -1.8550  150.9620   52.2300 Br  0  0  0  0  0  0  0  0  0  0  0  0
    0.0000    0.0000    0.0000 H   0  0  0  0  0  0  0  0  0  0  0  0
    0.0000    0.0000    0.0000 H   0  0  0  0  0  0  0  0  0  0  0  0
    0.0000    0.0000    0.0000 H   0  0  0  0  0  0  0  0  0  0  0  0
    0.0000    0.0000    0.0000 H   0  0  0  0  0  0  0  0  0  0  0  0
    0.0000    0.0000    0.0000 H   0  0  0  0  0  0  0  0  0  0  0  0
    0.0000    0.0000    0.0000 H   0  0  0  0  0  0  0  0  0  0  0  0
    0.0000    0.0000    0.0000 H   0  0  0  0  0  0  0  0  0  0  0  0
    0.0000    0.0000    0.0000 H   0  0  0  0  0  0  0  0  0  0  0  0
    0.0000    0.0000    0.0000 H   0  0  0  0  0  0  0  0  0  0  0  0
    0.0000    0.0000    0.0000 H   0  0  0  0  0  0  0  0  0  0  0  0
    0.0000    0.0000    0.0000 H   0  0  0  0  0  0  0  0  0  0  0  0
    0.0000    0.0000    0.0000 H   0  0  0  0  0  0  0  0  0  0  0  0
    0.0000    0.0000    0.0000 H   0  0  0  0  0  0  0  0  0  0  0  0
    0.0000    0.0000    0.0000 H   0  0  0  0  0  0  0  0  0  0  0  0
    1.4316   71.4276   27.1547 C   0  0  0  0  0  0  0  0  0  0  0  0
    0.5749   71.2727   25.9168 C   0  0  0  0  0  0  0  0  0  0  0  0
   -0.7655   71.6579   26.1924 N   0  0  0  0  0  0  0  0  0  0  0  0
   -1.5729   71.7257   24.9705 C   0  0  0  0  0  0  0  0  0  0  0  0
   -2.7923   72.5574   25.3447 C   0  0  0  0  0  0  0  0  0  0  0  0
   -3.5796   71.6893   26.3376 C   0  0  0  0  0  0  0  0  0  0  0  0
   -2.7634   71.4518   27.5722 C   0  0  0  0  0  0  0  0  0  0  0  0
   -1.4389   70.8225   27.1627 C   0  0  0  0  0  0  0  0  0  0  0  0
    1.1518   70.7358   27.9566 H   0  0  0  0  0  0  0  0  0  0  0  0
    2.5321   71.2929   26.8468 H   0  0  0  0  0  0  0  0  0  0  0  0
    0.5462   70.1719   25.6385 H   0  0  0  0  0  0  0  0  0  0  0  0
    1.0042   71.7532   25.0159 H   0  0  0  0  0  0  0  0  0  0  0  0
   -1.8501   70.7303   24.6135 H   0  0  0  0  0  0  0  0  0  0  0  0
   -1.0057   72.2508   24.2148 H   0  0  0  0  0  0  0  0  0  0  0  0
   -2.4117   73.4284   25.8830 H   0  0  0  0  0  0  0  0  0  0  0  0
   -3.4325   72.8015   24.4928 H   0  0  0  0  0  0  0  0  0  0  0  0
   -3.7821   70.7391   25.8432 H   0  0  0  0  0  0  0  0  0  0  0  0
   -4.5095   72.2427   26.6059 H   0  0  0  0  0  0  0  0  0  0  0  0
   -3.3108   70.7559   28.2245 H   0  0  0  0  0  0  0  0  0  0  0  0
   -2.5161   72.3910   28.0970 H   0  0  0  0  0  0  0  0  0  0  0  0
   -1.6122   69.7908   26.7861 H   0  0  0  0  0  0  0  0  0  0  0  0
   -0.8039   70.7423   28.0510 H   0  0  0  0  0  0  0  0  0  0  0  0
  1  3  2  0
  1  7  1  0
  2 23  3  0
  3  4  1  0
  3 20  1  0
  4  5  2  0
  4  8  1  0
  5  6  1  0
  6  7  2  0
  6 18  1  0
  7 24  1  0
  8  9  1  0
  9 10  1  0
  9 12  2  0
 10 11  1  0
 11 13  2  0
 11 17  1  0
 13 14  1  0
 14 15  2  0
 15 16  1  0
 15 23  1  0
 16 17  2  0
 16 22  1  0
 18 19  1  0
 20 21  1  0
  1 25  1  0
  5 26  1  0
  8 27  1  0
  8 28  1  0
 10 29  1  0
 17 30  1  0
 19 31  1  0
 19 32  1  0
 19 33  1  0
 21 34  1  0
 21 35  1  0
 21 36  1  0
 22 37  1  0
 22 38  1  0
 39 40  1  0
 40 41  1  0
 41 42  1  0
 42 43  1  0
 43 44  1  0
 44 45  1  0
 45 46  1  0
 46 41  1  0
 39 47  1  0
 39 48  1  0
 40 49  1  0
 40 50  1  0
 42 51  1  0
 42 52  1  0
 43 53  1  0
 43 54  1  0
 44 55  1  0
 44 56  1  0
 45 57  1  0
 45 58  1  0
 46 59  1  0
 46 60  1  0
 14 39  1  0
M  END
>  <attachment_point>  (464) 
29

>  <score>  (464) 
<NA>

$$$$
2gmx
     RDKit          3D

 55 57  0  0  0  0  0  0  0  0999 V2000
    0.6680  149.6310   52.1780 C   0  0  0  0  0  0  0  0  0  0  0  0
    3.0090  140.6200   56.4870 N   0  0  0  0  0  0  0  0  0  0  0  0
    1.9620  149.2640   52.6280 C   0  0  0  0  0  0  0  0  0  0  0  0
    2.4660  149.8330   53.8590 C   0  0  0  0  0  0  0  0  0  0  0  0
    1.6570  150.7410   54.6000 C   0  0  0  0  0  0  0  0  0  0  0  0
    0.3580  151.1130   54.1650 C   0  0  0  0  0  0  0  0  0  0  0  0
   -0.1340  150.5380   52.9220 C   0  0  0  0  0  0  0  0  0  0  0  0
    3.8340  149.4930   54.3900 C   0  0  0  0  0  0  0  0  0  0  0  0
    3.7760  148.3010   55.3550 C   0  0  0  0  0  0  0  0  0  0  0  0
    3.6080  147.1180   54.7070 N   0  0  0  0  0  0  0  0  0  0  0  0
    3.5230  145.8440   55.1920 C   0  0  0  0  0  0  0  0  0  0  0  0
    3.8880  148.4710   56.5680 O   0  0  0  0  0  0  0  0  0  0  0  0
    3.0190  144.9720   54.2890 N   0  0  0  0  0  0  0  0  0  0  0  0
    2.8790  143.6460   54.6100 C   0  0  0  0  0  0  0  0  0  0  0  0
    3.2540  143.1490   55.8980 C   0  0  0  0  0  0  0  0  0  0  0  0
    3.7840  144.0620   56.8580 C   0  0  0  0  0  0  0  0  0  0  0  0
    3.9180  145.4220   56.4980 C   0  0  0  0  0  0  0  0  0  0  0  0
   -0.4210  152.0200   54.9250 O   0  0  0  0  0  0  0  0  0  0  0  0
   -1.4550  151.4120   55.7020 C   0  0  0  0  0  0  0  0  0  0  0  0
    2.7960  148.3740   51.9370 O   0  0  0  0  0  0  0  0  0  0  0  0
    2.1840  147.2640   51.2740 C   0  0  0  0  0  0  0  0  0  0  0  0
    4.1700  143.6740   58.1190 N   0  0  0  0  0  0  0  0  0  0  0  0
    3.1040  141.7440   56.2230 C   0  0  0  0  0  0  0  0  0  0  0  0
   -1.8550  150.9620   52.2300 Br  0  0  0  0  0  0  0  0  0  0  0  0
    0.0000    0.0000    0.0000 H   0  0  0  0  0  0  0  0  0  0  0  0
    0.0000    0.0000    0.0000 H   0  0  0  0  0  0  0  0  0  0  0  0
    0.0000    0.0000    0.0000 H   0  0  0  0  0  0  0  0  0  0  0  0
    0.0000    0.0000    0.0000 H   0  0  0  0  0  0  0  0  0  0  0  0
    0.0000    0.0000    0.0000 H   0  0  0  0  0  0  0  0  0  0  0  0
    0.0000    0.0000    0.0000 H   0  0  0  0  0  0  0  0  0  0  0  0
    0.0000    0.0000    0.0000 H   0  0  0  0  0  0  0  0  0  0  0  0
    0.0000    0.0000    0.0000 H   0  0  0  0  0  0  0  0  0  0  0  0
    0.0000    0.0000    0.0000 H   0  0  0  0  0  0  0  0  0  0  0  0
    0.0000    0.0000    0.0000 H   0  0  0  0  0  0  0  0  0  0  0  0
    0.0000    0.0000    0.0000 H   0  0  0  0  0  0  0  0  0  0  0  0
    0.0000    0.0000    0.0000 H   0  0  0  0  0  0  0  0  0  0  0  0
    0.0000    0.0000    0.0000 H   0  0  0  0  0  0  0  0  0  0  0  0
    0.0000    0.0000    0.0000 H   0  0  0  0  0  0  0  0  0  0  0  0
    1.4297   71.3349   27.1194 C   0  0  0  0  0  0  0  0  0  0  0  0
    1.3816   70.3482   28.0228 C   0  0  0  0  0  0  0  0  0  0  0  0
    1.3530   69.0025   27.5861 C   0  0  0  0  0  0  0  0  0  0  0  0
    1.3774   68.7969   26.2279 C   0  0  0  0  0  0  0  0  0  0  0  0
    1.3451   67.1613   25.5853 S   0  0  0  0  0  6  0  0  0  0  0  0
   -0.3471   66.6668   25.3351 C   0  0  0  0  0  0  0  0  0  0  0  0
    2.0278   67.1389   24.2524 O   0  0  0  0  0  0  0  0  0  0  0  0
    1.9514   66.1799   26.5511 O   0  0  0  0  0  0  0  0  0  0  0  0
    1.4269   69.8510   25.3477 C   0  0  0  0  0  0  0  0  0  0  0  0
    1.4551   71.1900   25.7939 C   0  0  0  0  0  0  0  0  0  0  0  0
    1.3624   70.5104   29.0915 H   0  0  0  0  0  0  0  0  0  0  0  0
    1.3141   68.2118   28.3184 H   0  0  0  0  0  0  0  0  0  0  0  0
   -0.8757   67.3343   24.6191 H   0  0  0  0  0  0  0  0  0  0  0  0
   -0.3618   65.6043   25.0026 H   0  0  0  0  0  0  0  0  0  0  0  0
   -0.8905   66.7121   26.3017 H   0  0  0  0  0  0  0  0  0  0  0  0
    1.4471   69.7093   24.2589 H   0  0  0  0  0  0  0  0  0  0  0  0
    1.4947   72.0106   25.0661 H   0  0  0  0  0  0  0  0  0  0  0  0
  1  3  2  0
  1  7  1  0
  2 23  3  0
  3  4  1  0
  3 20  1  0
  4  5  2  0
  4  8  1  0
  5  6  1  0
  6  7  2  0
  6 18  1  0
  7 24  1  0
  8  9  1  0
  9 10  1  0
  9 12  2  0
 10 11  1  0
 11 13  2  0
 11 17  1  0
 13 14  1  0
 14 15  2  0
 15 16  1  0
 15 23  1  0
 16 17  2  0
 16 22  1  0
 18 19  1  0
 20 21  1  0
  1 25  1  0
  5 26  1  0
  8 27  1  0
  8 28  1  0
 10 29  1  0
 17 30  1  0
 19 31  1  0
 19 32  1  0
 19 33  1  0
 21 34  1  0
 21 35  1  0
 21 36  1  0
 22 37  1  0
 22 38  1  0
 39 40  2  0
 40 41  1  0
 41 42  2  0
 42 43  1  0
 43 44  1  0
 43 45  2  0
 43 46  2  0
 42 47  1  0
 47 48  2  0
 48 39  1  0
 40 49  1  0
 41 50  1  0
 44 51  1  0
 44 52  1  0
 44 53  1  0
 47 54  1  0
 48 55  1  0
 14 39  1  0
M  END
>  <attachment_point>  (465) 
29

>  <score>  (465) 
<NA>

$$$$
2gmx
     RDKit          3D

 59 62  0  0  0  0  0  0  0  0999 V2000
    0.6680  149.6310   52.1780 C   0  0  0  0  0  0  0  0  0  0  0  0
    3.0090  140.6200   56.4870 N   0  0  0  0  0  0  0  0  0  0  0  0
    1.9620  149.2640   52.6280 C   0  0  0  0  0  0  0  0  0  0  0  0
    2.4660  149.8330   53.8590 C   0  0  0  0  0  0  0  0  0  0  0  0
    1.6570  150.7410   54.6000 C   0  0  0  0  0  0  0  0  0  0  0  0
    0.3580  151.1130   54.1650 C   0  0  0  0  0  0  0  0  0  0  0  0
   -0.1340  150.5380   52.9220 C   0  0  0  0  0  0  0  0  0  0  0  0
    3.8340  149.4930   54.3900 C   0  0  0  0  0  0  0  0  0  0  0  0
    3.7760  148.3010   55.3550 C   0  0  0  0  0  0  0  0  0  0  0  0
    3.6080  147.1180   54.7070 N   0  0  0  0  0  0  0  0  0  0  0  0
    3.5230  145.8440   55.1920 C   0  0  0  0  0  0  0  0  0  0  0  0
    3.8880  148.4710   56.5680 O   0  0  0  0  0  0  0  0  0  0  0  0
    3.0190  144.9720   54.2890 N   0  0  0  0  0  0  0  0  0  0  0  0
    2.8790  143.6460   54.6100 C   0  0  0  0  0  0  0  0  0  0  0  0
    3.2540  143.1490   55.8980 C   0  0  0  0  0  0  0  0  0  0  0  0
    3.7840  144.0620   56.8580 C   0  0  0  0  0  0  0  0  0  0  0  0
    3.9180  145.4220   56.4980 C   0  0  0  0  0  0  0  0  0  0  0  0
   -0.4210  152.0200   54.9250 O   0  0  0  0  0  0  0  0  0  0  0  0
   -1.4550  151.4120   55.7020 C   0  0  0  0  0  0  0  0  0  0  0  0
    2.7960  148.3740   51.9370 O   0  0  0  0  0  0  0  0  0  0  0  0
    2.1840  147.2640   51.2740 C   0  0  0  0  0  0  0  0  0  0  0  0
    4.1700  143.6740   58.1190 N   0  0  0  0  0  0  0  0  0  0  0  0
    3.1040  141.7440   56.2230 C   0  0  0  0  0  0  0  0  0  0  0  0
   -1.8550  150.9620   52.2300 Br  0  0  0  0  0  0  0  0  0  0  0  0
    0.0000    0.0000    0.0000 H   0  0  0  0  0  0  0  0  0  0  0  0
    0.0000    0.0000    0.0000 H   0  0  0  0  0  0  0  0  0  0  0  0
    0.0000    0.0000    0.0000 H   0  0  0  0  0  0  0  0  0  0  0  0
    0.0000    0.0000    0.0000 H   0  0  0  0  0  0  0  0  0  0  0  0
    0.0000    0.0000    0.0000 H   0  0  0  0  0  0  0  0  0  0  0  0
    0.0000    0.0000    0.0000 H   0  0  0  0  0  0  0  0  0  0  0  0
    0.0000    0.0000    0.0000 H   0  0  0  0  0  0  0  0  0  0  0  0
    0.0000    0.0000    0.0000 H   0  0  0  0  0  0  0  0  0  0  0  0
    0.0000    0.0000    0.0000 H   0  0  0  0  0  0  0  0  0  0  0  0
    0.0000    0.0000    0.0000 H   0  0  0  0  0  0  0  0  0  0  0  0
    0.0000    0.0000    0.0000 H   0  0  0  0  0  0  0  0  0  0  0  0
    0.0000    0.0000    0.0000 H   0  0  0  0  0  0  0  0  0  0  0  0
    0.0000    0.0000    0.0000 H   0  0  0  0  0  0  0  0  0  0  0  0
    0.0000    0.0000    0.0000 H   0  0  0  0  0  0  0  0  0  0  0  0
    1.4311   71.4062   27.1466 C   0  0  0  0  0  0  0  0  0  0  0  0
    1.1440   70.3355   27.9689 C   0  0  0  0  0  0  0  0  0  0  0  0
    1.1157   69.0427   27.4884 C   0  0  0  0  0  0  0  0  0  0  0  0
    1.3849   68.8503   26.1510 C   0  0  0  0  0  0  0  0  0  0  0  0
    1.3692   67.5064   25.5867 C   0  0  0  0  0  0  0  0  0  0  0  0
    1.0124   67.2284   24.2840 C   0  0  0  0  0  0  0  0  0  0  0  0
    1.0024   65.9539   23.7649 C   0  0  0  0  0  0  0  0  0  0  0  0
    1.3657   64.9142   24.5881 C   0  0  0  0  0  0  0  0  0  0  0  0
    1.7322   65.1399   25.9036 C   0  0  0  0  0  0  0  0  0  0  0  0
    1.7256   66.4320   26.3737 C   0  0  0  0  0  0  0  0  0  0  0  0
    1.6699   69.9306   25.3428 C   0  0  0  0  0  0  0  0  0  0  0  0
    1.7020   71.2207   25.8048 C   0  0  0  0  0  0  0  0  0  0  0  0
    0.9363   70.5349   29.0248 H   0  0  0  0  0  0  0  0  0  0  0  0
    0.8851   68.2034   28.1584 H   0  0  0  0  0  0  0  0  0  0  0  0
    0.7246   68.0480   23.6306 H   0  0  0  0  0  0  0  0  0  0  0  0
    0.7162   65.7514   22.7278 H   0  0  0  0  0  0  0  0  0  0  0  0
    1.3601   63.8941   24.1810 H   0  0  0  0  0  0  0  0  0  0  0  0
    2.0169   64.2848   26.5339 H   0  0  0  0  0  0  0  0  0  0  0  0
    2.0096   66.6216   27.3983 H   0  0  0  0  0  0  0  0  0  0  0  0
    1.8837   69.7776   24.2794 H   0  0  0  0  0  0  0  0  0  0  0  0
    1.9199   72.0934   25.2090 H   0  0  0  0  0  0  0  0  0  0  0  0
  1  3  2  0
  1  7  1  0
  2 23  3  0
  3  4  1  0
  3 20  1  0
  4  5  2  0
  4  8  1  0
  5  6  1  0
  6  7  2  0
  6 18  1  0
  7 24  1  0
  8  9  1  0
  9 10  1  0
  9 12  2  0
 10 11  1  0
 11 13  2  0
 11 17  1  0
 13 14  1  0
 14 15  2  0
 15 16  1  0
 15 23  1  0
 16 17  2  0
 16 22  1  0
 18 19  1  0
 20 21  1  0
  1 25  1  0
  5 26  1  0
  8 27  1  0
  8 28  1  0
 10 29  1  0
 17 30  1  0
 19 31  1  0
 19 32  1  0
 19 33  1  0
 21 34  1  0
 21 35  1  0
 21 36  1  0
 22 37  1  0
 22 38  1  0
 39 40  2  0
 40 41  1  0
 41 42  2  0
 42 43  1  0
 43 44  2  0
 44 45  1  0
 45 46  2  0
 46 47  1  0
 47 48  2  0
 42 49  1  0
 49 50  2  0
 50 39  1  0
 48 43  1  0
 40 51  1  0
 41 52  1  0
 44 53  1  0
 45 54  1  0
 46 55  1  0
 47 56  1  0
 48 57  1  0
 49 58  1  0
 50 59  1  0
 14 39  1  0
M  END
>  <attachment_point>  (466) 
29

>  <score>  (466) 
<NA>

$$$$
2gmx
     RDKit          3D

 55 57  0  0  0  0  0  0  0  0999 V2000
    0.6680  149.6310   52.1780 C   0  0  0  0  0  0  0  0  0  0  0  0
    3.0090  140.6200   56.4870 N   0  0  0  0  0  0  0  0  0  0  0  0
    1.9620  149.2640   52.6280 C   0  0  0  0  0  0  0  0  0  0  0  0
    2.4660  149.8330   53.8590 C   0  0  0  0  0  0  0  0  0  0  0  0
    1.6570  150.7410   54.6000 C   0  0  0  0  0  0  0  0  0  0  0  0
    0.3580  151.1130   54.1650 C   0  0  0  0  0  0  0  0  0  0  0  0
   -0.1340  150.5380   52.9220 C   0  0  0  0  0  0  0  0  0  0  0  0
    3.8340  149.4930   54.3900 C   0  0  0  0  0  0  0  0  0  0  0  0
    3.7760  148.3010   55.3550 C   0  0  0  0  0  0  0  0  0  0  0  0
    3.6080  147.1180   54.7070 N   0  0  0  0  0  0  0  0  0  0  0  0
    3.5230  145.8440   55.1920 C   0  0  0  0  0  0  0  0  0  0  0  0
    3.8880  148.4710   56.5680 O   0  0  0  0  0  0  0  0  0  0  0  0
    3.0190  144.9720   54.2890 N   0  0  0  0  0  0  0  0  0  0  0  0
    2.8790  143.6460   54.6100 C   0  0  0  0  0  0  0  0  0  0  0  0
    3.2540  143.1490   55.8980 C   0  0  0  0  0  0  0  0  0  0  0  0
    3.7840  144.0620   56.8580 C   0  0  0  0  0  0  0  0  0  0  0  0
    3.9180  145.4220   56.4980 C   0  0  0  0  0  0  0  0  0  0  0  0
   -0.4210  152.0200   54.9250 O   0  0  0  0  0  0  0  0  0  0  0  0
   -1.4550  151.4120   55.7020 C   0  0  0  0  0  0  0  0  0  0  0  0
    2.7960  148.3740   51.9370 O   0  0  0  0  0  0  0  0  0  0  0  0
    2.1840  147.2640   51.2740 C   0  0  0  0  0  0  0  0  0  0  0  0
    4.1700  143.6740   58.1190 N   0  0  0  0  0  0  0  0  0  0  0  0
    3.1040  141.7440   56.2230 C   0  0  0  0  0  0  0  0  0  0  0  0
   -1.8550  150.9620   52.2300 Br  0  0  0  0  0  0  0  0  0  0  0  0
    0.0000    0.0000    0.0000 H   0  0  0  0  0  0  0  0  0  0  0  0
    0.0000    0.0000    0.0000 H   0  0  0  0  0  0  0  0  0  0  0  0
    0.0000    0.0000    0.0000 H   0  0  0  0  0  0  0  0  0  0  0  0
    0.0000    0.0000    0.0000 H   0  0  0  0  0  0  0  0  0  0  0  0
    0.0000    0.0000    0.0000 H   0  0  0  0  0  0  0  0  0  0  0  0
    0.0000    0.0000    0.0000 H   0  0  0  0  0  0  0  0  0  0  0  0
    0.0000    0.0000    0.0000 H   0  0  0  0  0  0  0  0  0  0  0  0
    0.0000    0.0000    0.0000 H   0  0  0  0  0  0  0  0  0  0  0  0
    0.0000    0.0000    0.0000 H   0  0  0  0  0  0  0  0  0  0  0  0
    0.0000    0.0000    0.0000 H   0  0  0  0  0  0  0  0  0  0  0  0
    0.0000    0.0000    0.0000 H   0  0  0  0  0  0  0  0  0  0  0  0
    0.0000    0.0000    0.0000 H   0  0  0  0  0  0  0  0  0  0  0  0
    0.0000    0.0000    0.0000 H   0  0  0  0  0  0  0  0  0  0  0  0
    0.0000    0.0000    0.0000 H   0  0  0  0  0  0  0  0  0  0  0  0
    1.4302   71.3596   27.1288 C   0  0  0  0  0  0  0  0  0  0  0  0
    0.2453   70.8261   26.7899 C   0  0  0  0  0  0  0  0  0  0  0  0
    0.2188   69.5137   26.2909 C   0  0  0  0  0  0  0  0  0  0  0  0
    1.3957   68.8096   26.1613 C   0  0  0  0  0  0  0  0  0  0  0  0
    1.3052   67.4354   25.6318 C   0  0  0  0  0  0  0  0  0  0  0  0
    1.1182   66.3806   26.6508 C   0  0  0  0  0  0  0  0  0  0  0  0
    2.5731   69.4115   26.5254 C   0  0  0  0  0  0  0  0  0  0  0  0
    2.6097   70.7088   27.0198 C   0  0  0  0  0  0  0  0  0  0  0  0
   -0.6698   71.3848   26.8948 H   0  0  0  0  0  0  0  0  0  0  0  0
   -0.7606   69.1410   26.0365 H   0  0  0  0  0  0  0  0  0  0  0  0
    0.4673   67.4052   24.9073 H   0  0  0  0  0  0  0  0  0  0  0  0
    2.2362   67.2292   25.0477 H   0  0  0  0  0  0  0  0  0  0  0  0
    0.2814   66.6513   27.3353 H   0  0  0  0  0  0  0  0  0  0  0  0
    2.0056   66.1188   27.2383 H   0  0  0  0  0  0  0  0  0  0  0  0
    0.7900   65.4494   26.1369 H   0  0  0  0  0  0  0  0  0  0  0  0
    3.4775   68.8549   26.4200 H   0  0  0  0  0  0  0  0  0  0  0  0
    3.5279   71.1761   27.3028 H   0  0  0  0  0  0  0  0  0  0  0  0
  1  3  2  0
  1  7  1  0
  2 23  3  0
  3  4  1  0
  3 20  1  0
  4  5  2  0
  4  8  1  0
  5  6  1  0
  6  7  2  0
  6 18  1  0
  7 24  1  0
  8  9  1  0
  9 10  1  0
  9 12  2  0
 10 11  1  0
 11 13  2  0
 11 17  1  0
 13 14  1  0
 14 15  2  0
 15 16  1  0
 15 23  1  0
 16 17  2  0
 16 22  1  0
 18 19  1  0
 20 21  1  0
  1 25  1  0
  5 26  1  0
  8 27  1  0
  8 28  1  0
 10 29  1  0
 17 30  1  0
 19 31  1  0
 19 32  1  0
 19 33  1  0
 21 34  1  0
 21 35  1  0
 21 36  1  0
 22 37  1  0
 22 38  1  0
 39 40  2  0
 40 41  1  0
 41 42  2  0
 42 43  1  0
 43 44  1  0
 42 45  1  0
 45 46  2  0
 46 39  1  0
 40 47  1  0
 41 48  1  0
 43 49  1  0
 43 50  1  0
 44 51  1  0
 44 52  1  0
 44 53  1  0
 45 54  1  0
 46 55  1  0
 14 39  1  0
M  END
>  <attachment_point>  (467) 
29

>  <score>  (467) 
<NA>

$$$$
2gmx
     RDKit          3D

 61 63  0  0  0  0  0  0  0  0999 V2000
    0.6680  149.6310   52.1780 C   0  0  0  0  0  0  0  0  0  0  0  0
    3.0090  140.6200   56.4870 N   0  0  0  0  0  0  0  0  0  0  0  0
    1.9620  149.2640   52.6280 C   0  0  0  0  0  0  0  0  0  0  0  0
    2.4660  149.8330   53.8590 C   0  0  0  0  0  0  0  0  0  0  0  0
    1.6570  150.7410   54.6000 C   0  0  0  0  0  0  0  0  0  0  0  0
    0.3580  151.1130   54.1650 C   0  0  0  0  0  0  0  0  0  0  0  0
   -0.1340  150.5380   52.9220 C   0  0  0  0  0  0  0  0  0  0  0  0
    3.8340  149.4930   54.3900 C   0  0  0  0  0  0  0  0  0  0  0  0
    3.7760  148.3010   55.3550 C   0  0  0  0  0  0  0  0  0  0  0  0
    3.6080  147.1180   54.7070 N   0  0  0  0  0  0  0  0  0  0  0  0
    3.5230  145.8440   55.1920 C   0  0  0  0  0  0  0  0  0  0  0  0
    3.8880  148.4710   56.5680 O   0  0  0  0  0  0  0  0  0  0  0  0
    3.0190  144.9720   54.2890 N   0  0  0  0  0  0  0  0  0  0  0  0
    2.8790  143.6460   54.6100 C   0  0  0  0  0  0  0  0  0  0  0  0
    3.2540  143.1490   55.8980 C   0  0  0  0  0  0  0  0  0  0  0  0
    3.7840  144.0620   56.8580 C   0  0  0  0  0  0  0  0  0  0  0  0
    3.9180  145.4220   56.4980 C   0  0  0  0  0  0  0  0  0  0  0  0
   -0.4210  152.0200   54.9250 O   0  0  0  0  0  0  0  0  0  0  0  0
   -1.4550  151.4120   55.7020 C   0  0  0  0  0  0  0  0  0  0  0  0
    2.7960  148.3740   51.9370 O   0  0  0  0  0  0  0  0  0  0  0  0
    2.1840  147.2640   51.2740 C   0  0  0  0  0  0  0  0  0  0  0  0
    4.1700  143.6740   58.1190 N   0  0  0  0  0  0  0  0  0  0  0  0
    3.1040  141.7440   56.2230 C   0  0  0  0  0  0  0  0  0  0  0  0
   -1.8550  150.9620   52.2300 Br  0  0  0  0  0  0  0  0  0  0  0  0
    0.0000    0.0000    0.0000 H   0  0  0  0  0  0  0  0  0  0  0  0
    0.0000    0.0000    0.0000 H   0  0  0  0  0  0  0  0  0  0  0  0
    0.0000    0.0000    0.0000 H   0  0  0  0  0  0  0  0  0  0  0  0
    0.0000    0.0000    0.0000 H   0  0  0  0  0  0  0  0  0  0  0  0
    0.0000    0.0000    0.0000 H   0  0  0  0  0  0  0  0  0  0  0  0
    0.0000    0.0000    0.0000 H   0  0  0  0  0  0  0  0  0  0  0  0
    0.0000    0.0000    0.0000 H   0  0  0  0  0  0  0  0  0  0  0  0
    0.0000    0.0000    0.0000 H   0  0  0  0  0  0  0  0  0  0  0  0
    0.0000    0.0000    0.0000 H   0  0  0  0  0  0  0  0  0  0  0  0
    0.0000    0.0000    0.0000 H   0  0  0  0  0  0  0  0  0  0  0  0
    0.0000    0.0000    0.0000 H   0  0  0  0  0  0  0  0  0  0  0  0
    0.0000    0.0000    0.0000 H   0  0  0  0  0  0  0  0  0  0  0  0
    0.0000    0.0000    0.0000 H   0  0  0  0  0  0  0  0  0  0  0  0
    0.0000    0.0000    0.0000 H   0  0  0  0  0  0  0  0  0  0  0  0
    1.4313   71.4161   27.1503 C   0  0  0  0  0  0  0  0  0  0  0  0
    0.4049   70.5474   27.4363 C   0  0  0  0  0  0  0  0  0  0  0  0
    0.4615   69.2834   26.9057 C   0  0  0  0  0  0  0  0  0  0  0  0
    1.5367   68.9061   26.1012 C   0  0  0  0  0  0  0  0  0  0  0  0
    1.4963   67.5167   25.5809 C   0  0  0  0  0  0  0  0  0  0  0  0
    2.6879   67.1955   24.7272 C   0  0  0  0  0  0  0  0  0  0  0  0
    0.2580   67.4188   24.7002 C   0  0  0  0  0  0  0  0  0  0  0  0
    1.4039   66.5743   26.7374 C   0  0  0  0  0  0  0  0  0  0  0  0
    2.5424   69.7973   25.8368 C   0  0  0  0  0  0  0  0  0  0  0  0
    2.5099   71.0763   26.3583 C   0  0  0  0  0  0  0  0  0  0  0  0
   -0.4059   70.8781   28.0613 H   0  0  0  0  0  0  0  0  0  0  0  0
   -0.3520   68.5754   27.1249 H   0  0  0  0  0  0  0  0  0  0  0  0
    2.8559   67.9081   23.9201 H   0  0  0  0  0  0  0  0  0  0  0  0
    2.4610   66.2083   24.2279 H   0  0  0  0  0  0  0  0  0  0  0  0
    3.6103   66.9943   25.3391 H   0  0  0  0  0  0  0  0  0  0  0  0
   -0.5007   68.1165   25.0895 H   0  0  0  0  0  0  0  0  0  0  0  0
    0.5557   67.6223   23.6649 H   0  0  0  0  0  0  0  0  0  0  0  0
   -0.1158   66.3864   24.8044 H   0  0  0  0  0  0  0  0  0  0  0  0
    0.5985   65.8234   26.4878 H   0  0  0  0  0  0  0  0  0  0  0  0
    1.1241   67.0706   27.6893 H   0  0  0  0  0  0  0  0  0  0  0  0
    2.3373   65.9659   26.8463 H   0  0  0  0  0  0  0  0  0  0  0  0
    3.3577   69.4557   25.2048 H   0  0  0  0  0  0  0  0  0  0  0  0
    3.3063   71.7757   26.1464 H   0  0  0  0  0  0  0  0  0  0  0  0
  1  3  2  0
  1  7  1  0
  2 23  3  0
  3  4  1  0
  3 20  1  0
  4  5  2  0
  4  8  1  0
  5  6  1  0
  6  7  2  0
  6 18  1  0
  7 24  1  0
  8  9  1  0
  9 10  1  0
  9 12  2  0
 10 11  1  0
 11 13  2  0
 11 17  1  0
 13 14  1  0
 14 15  2  0
 15 16  1  0
 15 23  1  0
 16 17  2  0
 16 22  1  0
 18 19  1  0
 20 21  1  0
  1 25  1  0
  5 26  1  0
  8 27  1  0
  8 28  1  0
 10 29  1  0
 17 30  1  0
 19 31  1  0
 19 32  1  0
 19 33  1  0
 21 34  1  0
 21 35  1  0
 21 36  1  0
 22 37  1  0
 22 38  1  0
 39 40  2  0
 40 41  1  0
 41 42  2  0
 42 43  1  0
 43 44  1  0
 43 45  1  0
 43 46  1  0
 42 47  1  0
 47 48  2  0
 48 39  1  0
 40 49  1  0
 41 50  1  0
 44 51  1  0
 44 52  1  0
 44 53  1  0
 45 54  1  0
 45 55  1  0
 45 56  1  0
 46 57  1  0
 46 58  1  0
 46 59  1  0
 47 60  1  0
 48 61  1  0
 14 39  1  0
M  END
>  <attachment_point>  (468) 
29

>  <score>  (468) 
<NA>

$$$$
2gmx
     RDKit          3D

 59 61  0  0  0  0  0  0  0  0999 V2000
    0.6680  149.6310   52.1780 C   0  0  0  0  0  0  0  0  0  0  0  0
    3.0090  140.6200   56.4870 N   0  0  0  0  0  0  0  0  0  0  0  0
    1.9620  149.2640   52.6280 C   0  0  0  0  0  0  0  0  0  0  0  0
    2.4660  149.8330   53.8590 C   0  0  0  0  0  0  0  0  0  0  0  0
    1.6570  150.7410   54.6000 C   0  0  0  0  0  0  0  0  0  0  0  0
    0.3580  151.1130   54.1650 C   0  0  0  0  0  0  0  0  0  0  0  0
   -0.1340  150.5380   52.9220 C   0  0  0  0  0  0  0  0  0  0  0  0
    3.8340  149.4930   54.3900 C   0  0  0  0  0  0  0  0  0  0  0  0
    3.7760  148.3010   55.3550 C   0  0  0  0  0  0  0  0  0  0  0  0
    3.6080  147.1180   54.7070 N   0  0  0  0  0  0  0  0  0  0  0  0
    3.5230  145.8440   55.1920 C   0  0  0  0  0  0  0  0  0  0  0  0
    3.8880  148.4710   56.5680 O   0  0  0  0  0  0  0  0  0  0  0  0
    3.0190  144.9720   54.2890 N   0  0  0  0  0  0  0  0  0  0  0  0
    2.8790  143.6460   54.6100 C   0  0  0  0  0  0  0  0  0  0  0  0
    3.2540  143.1490   55.8980 C   0  0  0  0  0  0  0  0  0  0  0  0
    3.7840  144.0620   56.8580 C   0  0  0  0  0  0  0  0  0  0  0  0
    3.9180  145.4220   56.4980 C   0  0  0  0  0  0  0  0  0  0  0  0
   -0.4210  152.0200   54.9250 O   0  0  0  0  0  0  0  0  0  0  0  0
   -1.4550  151.4120   55.7020 C   0  0  0  0  0  0  0  0  0  0  0  0
    2.7960  148.3740   51.9370 O   0  0  0  0  0  0  0  0  0  0  0  0
    2.1840  147.2640   51.2740 C   0  0  0  0  0  0  0  0  0  0  0  0
    4.1700  143.6740   58.1190 N   0  0  0  0  0  0  0  0  0  0  0  0
    3.1040  141.7440   56.2230 C   0  0  0  0  0  0  0  0  0  0  0  0
   -1.8550  150.9620   52.2300 Br  0  0  0  0  0  0  0  0  0  0  0  0
    0.0000    0.0000    0.0000 H   0  0  0  0  0  0  0  0  0  0  0  0
    0.0000    0.0000    0.0000 H   0  0  0  0  0  0  0  0  0  0  0  0
    0.0000    0.0000    0.0000 H   0  0  0  0  0  0  0  0  0  0  0  0
    0.0000    0.0000    0.0000 H   0  0  0  0  0  0  0  0  0  0  0  0
    0.0000    0.0000    0.0000 H   0  0  0  0  0  0  0  0  0  0  0  0
    0.0000    0.0000    0.0000 H   0  0  0  0  0  0  0  0  0  0  0  0
    0.0000    0.0000    0.0000 H   0  0  0  0  0  0  0  0  0  0  0  0
    0.0000    0.0000    0.0000 H   0  0  0  0  0  0  0  0  0  0  0  0
    0.0000    0.0000    0.0000 H   0  0  0  0  0  0  0  0  0  0  0  0
    0.0000    0.0000    0.0000 H   0  0  0  0  0  0  0  0  0  0  0  0
    0.0000    0.0000    0.0000 H   0  0  0  0  0  0  0  0  0  0  0  0
    0.0000    0.0000    0.0000 H   0  0  0  0  0  0  0  0  0  0  0  0
    0.0000    0.0000    0.0000 H   0  0  0  0  0  0  0  0  0  0  0  0
    0.0000    0.0000    0.0000 H   0  0  0  0  0  0  0  0  0  0  0  0
    1.4306   71.3765   27.1353 N   0  0  0  0  0  0  0  0  0  0  0  0
    1.8659   70.3763   28.0143 C   0  0  0  0  0  0  0  0  0  0  0  0
    2.2426   70.7492   29.1771 O   0  0  0  0  0  0  0  0  0  0  0  0
    1.8895   68.9424   27.6139 C   0  0  0  0  0  0  0  0  0  0  0  0
    0.5287   68.4297   27.2403 C   0  0  0  0  0  0  0  0  0  0  0  0
    0.6419   66.9667   26.9233 C   0  0  0  0  0  0  0  0  0  0  0  0
    2.0495   66.4588   26.9060 C   0  0  0  0  0  0  0  0  0  0  0  0
    2.9661   67.3153   26.0795 C   0  0  0  0  0  0  0  0  0  0  0  0
    2.9073   68.7430   26.5234 C   0  0  0  0  0  0  0  0  0  0  0  0
    1.1053   71.2583   26.1977 H   0  0  0  0  0  0  0  0  0  0  0  0
    2.2321   68.3616   28.4950 H   0  0  0  0  0  0  0  0  0  0  0  0
    0.0228   69.0211   26.4650 H   0  0  0  0  0  0  0  0  0  0  0  0
   -0.1086   68.5146   28.1602 H   0  0  0  0  0  0  0  0  0  0  0  0
    0.0736   66.3248   27.6502 H   0  0  0  0  0  0  0  0  0  0  0  0
    0.1487   66.7587   25.9301 H   0  0  0  0  0  0  0  0  0  0  0  0
    2.4527   66.3829   27.9322 H   0  0  0  0  0  0  0  0  0  0  0  0
    2.0420   65.4463   26.4511 H   0  0  0  0  0  0  0  0  0  0  0  0
    3.9907   66.8690   26.1595 H   0  0  0  0  0  0  0  0  0  0  0  0
    2.6766   67.1924   25.0038 H   0  0  0  0  0  0  0  0  0  0  0  0
    2.7314   69.4041   25.6505 H   0  0  0  0  0  0  0  0  0  0  0  0
    3.9043   69.0118   26.9349 H   0  0  0  0  0  0  0  0  0  0  0  0
  1  3  2  0
  1  7  1  0
  2 23  3  0
  3  4  1  0
  3 20  1  0
  4  5  2  0
  4  8  1  0
  5  6  1  0
  6  7  2  0
  6 18  1  0
  7 24  1  0
  8  9  1  0
  9 10  1  0
  9 12  2  0
 10 11  1  0
 11 13  2  0
 11 17  1  0
 13 14  1  0
 14 15  2  0
 15 16  1  0
 15 23  1  0
 16 17  2  0
 16 22  1  0
 18 19  1  0
 20 21  1  0
  1 25  1  0
  5 26  1  0
  8 27  1  0
  8 28  1  0
 10 29  1  0
 17 30  1  0
 19 31  1  0
 19 32  1  0
 19 33  1  0
 21 34  1  0
 21 35  1  0
 21 36  1  0
 22 37  1  0
 22 38  1  0
 39 40  1  0
 40 41  2  0
 40 42  1  0
 42 43  1  0
 43 44  1  0
 44 45  1  0
 45 46  1  0
 46 47  1  0
 47 42  1  0
 39 48  1  0
 42 49  1  0
 43 50  1  0
 43 51  1  0
 44 52  1  0
 44 53  1  0
 45 54  1  0
 45 55  1  0
 46 56  1  0
 46 57  1  0
 47 58  1  0
 47 59  1  0
 14 39  1  0
M  END
>  <attachment_point>  (469) 
29

>  <score>  (469) 
<NA>

$$$$
2gmx
     RDKit          3D

 50 52  0  0  0  0  0  0  0  0999 V2000
    0.6680  149.6310   52.1780 C   0  0  0  0  0  0  0  0  0  0  0  0
    3.0090  140.6200   56.4870 N   0  0  0  0  0  0  0  0  0  0  0  0
    1.9620  149.2640   52.6280 C   0  0  0  0  0  0  0  0  0  0  0  0
    2.4660  149.8330   53.8590 C   0  0  0  0  0  0  0  0  0  0  0  0
    1.6570  150.7410   54.6000 C   0  0  0  0  0  0  0  0  0  0  0  0
    0.3580  151.1130   54.1650 C   0  0  0  0  0  0  0  0  0  0  0  0
   -0.1340  150.5380   52.9220 C   0  0  0  0  0  0  0  0  0  0  0  0
    3.8340  149.4930   54.3900 C   0  0  0  0  0  0  0  0  0  0  0  0
    3.7760  148.3010   55.3550 C   0  0  0  0  0  0  0  0  0  0  0  0
    3.6080  147.1180   54.7070 N   0  0  0  0  0  0  0  0  0  0  0  0
    3.5230  145.8440   55.1920 C   0  0  0  0  0  0  0  0  0  0  0  0
    3.8880  148.4710   56.5680 O   0  0  0  0  0  0  0  0  0  0  0  0
    3.0190  144.9720   54.2890 N   0  0  0  0  0  0  0  0  0  0  0  0
    2.8790  143.6460   54.6100 C   0  0  0  0  0  0  0  0  0  0  0  0
    3.2540  143.1490   55.8980 C   0  0  0  0  0  0  0  0  0  0  0  0
    3.7840  144.0620   56.8580 C   0  0  0  0  0  0  0  0  0  0  0  0
    3.9180  145.4220   56.4980 C   0  0  0  0  0  0  0  0  0  0  0  0
   -0.4210  152.0200   54.9250 O   0  0  0  0  0  0  0  0  0  0  0  0
   -1.4550  151.4120   55.7020 C   0  0  0  0  0  0  0  0  0  0  0  0
    2.7960  148.3740   51.9370 O   0  0  0  0  0  0  0  0  0  0  0  0
    2.1840  147.2640   51.2740 C   0  0  0  0  0  0  0  0  0  0  0  0
    4.1700  143.6740   58.1190 N   0  0  0  0  0  0  0  0  0  0  0  0
    3.1040  141.7440   56.2230 C   0  0  0  0  0  0  0  0  0  0  0  0
   -1.8550  150.9620   52.2300 Br  0  0  0  0  0  0  0  0  0  0  0  0
    0.0000    0.0000    0.0000 H   0  0  0  0  0  0  0  0  0  0  0  0
    0.0000    0.0000    0.0000 H   0  0  0  0  0  0  0  0  0  0  0  0
    0.0000    0.0000    0.0000 H   0  0  0  0  0  0  0  0  0  0  0  0
    0.0000    0.0000    0.0000 H   0  0  0  0  0  0  0  0  0  0  0  0
    0.0000    0.0000    0.0000 H   0  0  0  0  0  0  0  0  0  0  0  0
    0.0000    0.0000    0.0000 H   0  0  0  0  0  0  0  0  0  0  0  0
    0.0000    0.0000    0.0000 H   0  0  0  0  0  0  0  0  0  0  0  0
    0.0000    0.0000    0.0000 H   0  0  0  0  0  0  0  0  0  0  0  0
    0.0000    0.0000    0.0000 H   0  0  0  0  0  0  0  0  0  0  0  0
    0.0000    0.0000    0.0000 H   0  0  0  0  0  0  0  0  0  0  0  0
    0.0000    0.0000    0.0000 H   0  0  0  0  0  0  0  0  0  0  0  0
    0.0000    0.0000    0.0000 H   0  0  0  0  0  0  0  0  0  0  0  0
    0.0000    0.0000    0.0000 H   0  0  0  0  0  0  0  0  0  0  0  0
    0.0000    0.0000    0.0000 H   0  0  0  0  0  0  0  0  0  0  0  0
    1.4288   71.2879   27.1016 C   0  0  0  0  0  0  0  0  0  0  0  0
    1.4269   70.2187   26.6994 C   0  0  0  0  0  0  0  0  0  0  0  0
    1.4476   68.8890   26.2090 C   0  0  0  0  0  0  0  0  0  0  0  0
    0.2735   68.1880   26.0354 C   0  0  0  0  0  0  0  0  0  0  0  0
    0.2802   66.8982   25.5612 C   0  0  0  0  0  0  0  0  0  0  0  0
    1.4813   66.3087   25.2589 C   0  0  0  0  0  0  0  0  0  0  0  0
    2.6357   67.0067   25.4328 C   0  0  0  0  0  0  0  0  0  0  0  0
    2.6029   68.2583   25.8948 N   0  0  0  0  0  0  0  0  0  0  0  0
   -0.6533   68.7063   26.2916 H   0  0  0  0  0  0  0  0  0  0  0  0
   -0.6530   66.3468   25.4253 H   0  0  0  0  0  0  0  0  0  0  0  0
    1.4359   65.2912   24.8884 H   0  0  0  0  0  0  0  0  0  0  0  0
    3.5665   66.5143   25.1855 H   0  0  0  0  0  0  0  0  0  0  0  0
  1  3  2  0
  1  7  1  0
  2 23  3  0
  3  4  1  0
  3 20  1  0
  4  5  2  0
  4  8  1  0
  5  6  1  0
  6  7  2  0
  6 18  1  0
  7 24  1  0
  8  9  1  0
  9 10  1  0
  9 12  2  0
 10 11  1  0
 11 13  2  0
 11 17  1  0
 13 14  1  0
 14 15  2  0
 15 16  1  0
 15 23  1  0
 16 17  2  0
 16 22  1  0
 18 19  1  0
 20 21  1  0
  1 25  1  0
  5 26  1  0
  8 27  1  0
  8 28  1  0
 10 29  1  0
 17 30  1  0
 19 31  1  0
 19 32  1  0
 19 33  1  0
 21 34  1  0
 21 35  1  0
 21 36  1  0
 22 37  1  0
 22 38  1  0
 39 40  3  0
 40 41  1  0
 41 42  2  0
 42 43  1  0
 43 44  2  0
 44 45  1  0
 45 46  2  0
 46 41  1  0
 42 47  1  0
 43 48  1  0
 44 49  1  0
 45 50  1  0
 14 39  1  0
M  END
>  <attachment_point>  (470) 
29

>  <score>  (470) 
<NA>

$$$$
2gmx
     RDKit          3D

 58 60  0  0  0  0  0  0  0  0999 V2000
    0.6680  149.6310   52.1780 C   0  0  0  0  0  0  0  0  0  0  0  0
    3.0090  140.6200   56.4870 N   0  0  0  0  0  0  0  0  0  0  0  0
    1.9620  149.2640   52.6280 C   0  0  0  0  0  0  0  0  0  0  0  0
    2.4660  149.8330   53.8590 C   0  0  0  0  0  0  0  0  0  0  0  0
    1.6570  150.7410   54.6000 C   0  0  0  0  0  0  0  0  0  0  0  0
    0.3580  151.1130   54.1650 C   0  0  0  0  0  0  0  0  0  0  0  0
   -0.1340  150.5380   52.9220 C   0  0  0  0  0  0  0  0  0  0  0  0
    3.8340  149.4930   54.3900 C   0  0  0  0  0  0  0  0  0  0  0  0
    3.7760  148.3010   55.3550 C   0  0  0  0  0  0  0  0  0  0  0  0
    3.6080  147.1180   54.7070 N   0  0  0  0  0  0  0  0  0  0  0  0
    3.5230  145.8440   55.1920 C   0  0  0  0  0  0  0  0  0  0  0  0
    3.8880  148.4710   56.5680 O   0  0  0  0  0  0  0  0  0  0  0  0
    3.0190  144.9720   54.2890 N   0  0  0  0  0  0  0  0  0  0  0  0
    2.8790  143.6460   54.6100 C   0  0  0  0  0  0  0  0  0  0  0  0
    3.2540  143.1490   55.8980 C   0  0  0  0  0  0  0  0  0  0  0  0
    3.7840  144.0620   56.8580 C   0  0  0  0  0  0  0  0  0  0  0  0
    3.9180  145.4220   56.4980 C   0  0  0  0  0  0  0  0  0  0  0  0
   -0.4210  152.0200   54.9250 O   0  0  0  0  0  0  0  0  0  0  0  0
   -1.4550  151.4120   55.7020 C   0  0  0  0  0  0  0  0  0  0  0  0
    2.7960  148.3740   51.9370 O   0  0  0  0  0  0  0  0  0  0  0  0
    2.1840  147.2640   51.2740 C   0  0  0  0  0  0  0  0  0  0  0  0
    4.1700  143.6740   58.1190 N   0  0  0  0  0  0  0  0  0  0  0  0
    3.1040  141.7440   56.2230 C   0  0  0  0  0  0  0  0  0  0  0  0
   -1.8550  150.9620   52.2300 Br  0  0  0  0  0  0  0  0  0  0  0  0
    0.0000    0.0000    0.0000 H   0  0  0  0  0  0  0  0  0  0  0  0
    0.0000    0.0000    0.0000 H   0  0  0  0  0  0  0  0  0  0  0  0
    0.0000    0.0000    0.0000 H   0  0  0  0  0  0  0  0  0  0  0  0
    0.0000    0.0000    0.0000 H   0  0  0  0  0  0  0  0  0  0  0  0
    0.0000    0.0000    0.0000 H   0  0  0  0  0  0  0  0  0  0  0  0
    0.0000    0.0000    0.0000 H   0  0  0  0  0  0  0  0  0  0  0  0
    0.0000    0.0000    0.0000 H   0  0  0  0  0  0  0  0  0  0  0  0
    0.0000    0.0000    0.0000 H   0  0  0  0  0  0  0  0  0  0  0  0
    0.0000    0.0000    0.0000 H   0  0  0  0  0  0  0  0  0  0  0  0
    0.0000    0.0000    0.0000 H   0  0  0  0  0  0  0  0  0  0  0  0
    0.0000    0.0000    0.0000 H   0  0  0  0  0  0  0  0  0  0  0  0
    0.0000    0.0000    0.0000 H   0  0  0  0  0  0  0  0  0  0  0  0
    0.0000    0.0000    0.0000 H   0  0  0  0  0  0  0  0  0  0  0  0
    0.0000    0.0000    0.0000 H   0  0  0  0  0  0  0  0  0  0  0  0
    1.4331   71.5040   27.1837 N   0  0  0  0  0  0  0  0  0  0  0  0
    0.6463   70.5291   27.9525 C   0  0  0  0  0  0  0  0  0  0  0  0
   -0.7555   71.0582   27.9545 C   0  0  0  0  0  0  0  0  0  0  0  0
   -1.5915   70.6823   26.9531 C   0  0  0  0  0  0  0  0  0  0  0  0
   -2.9004   71.1512   26.9183 C   0  0  0  0  0  0  0  0  0  0  0  0
   -3.3579   72.0014   27.9011 C   0  0  0  0  0  0  0  0  0  0  0  0
   -4.6556   72.4906   27.9019 O   0  0  0  0  0  0  0  0  0  0  0  0
   -5.5743   72.1366   26.8872 C   0  0  0  0  0  0  0  0  0  0  0  0
   -2.4994   72.3769   28.9140 C   0  0  0  0  0  0  0  0  0  0  0  0
   -1.1898   71.9023   28.9411 C   0  0  0  0  0  0  0  0  0  0  0  0
    2.2169   71.0059   26.7081 H   0  0  0  0  0  0  0  0  0  0  0  0
    0.7410   69.5752   27.4309 H   0  0  0  0  0  0  0  0  0  0  0  0
    1.0167   70.4729   29.0021 H   0  0  0  0  0  0  0  0  0  0  0  0
   -1.2942   70.0189   26.1536 H   0  0  0  0  0  0  0  0  0  0  0  0
   -3.5769   70.8484   26.1101 H   0  0  0  0  0  0  0  0  0  0  0  0
   -5.8469   71.0553   27.0016 H   0  0  0  0  0  0  0  0  0  0  0  0
   -6.4575   72.8031   26.9537 H   0  0  0  0  0  0  0  0  0  0  0  0
   -5.0617   72.2329   25.9106 H   0  0  0  0  0  0  0  0  0  0  0  0
   -2.8231   73.0487   29.7113 H   0  0  0  0  0  0  0  0  0  0  0  0
   -0.5473   72.2120   29.7406 H   0  0  0  0  0  0  0  0  0  0  0  0
  1  3  2  0
  1  7  1  0
  2 23  3  0
  3  4  1  0
  3 20  1  0
  4  5  2  0
  4  8  1  0
  5  6  1  0
  6  7  2  0
  6 18  1  0
  7 24  1  0
  8  9  1  0
  9 10  1  0
  9 12  2  0
 10 11  1  0
 11 13  2  0
 11 17  1  0
 13 14  1  0
 14 15  2  0
 15 16  1  0
 15 23  1  0
 16 17  2  0
 16 22  1  0
 18 19  1  0
 20 21  1  0
  1 25  1  0
  5 26  1  0
  8 27  1  0
  8 28  1  0
 10 29  1  0
 17 30  1  0
 19 31  1  0
 19 32  1  0
 19 33  1  0
 21 34  1  0
 21 35  1  0
 21 36  1  0
 22 37  1  0
 22 38  1  0
 39 40  1  0
 40 41  1  0
 41 42  2  0
 42 43  1  0
 43 44  2  0
 44 45  1  0
 45 46  1  0
 44 47  1  0
 47 48  2  0
 48 41  1  0
 39 49  1  0
 40 50  1  0
 40 51  1  0
 42 52  1  0
 43 53  1  0
 46 54  1  0
 46 55  1  0
 46 56  1  0
 47 57  1  0
 48 58  1  0
 14 39  1  0
M  END
>  <attachment_point>  (471) 
29

>  <score>  (471) 
<NA>

$$$$
2gmx
     RDKit          3D

 63 67  0  0  0  0  0  0  0  0999 V2000
    0.6680  149.6310   52.1780 C   0  0  0  0  0  0  0  0  0  0  0  0
    3.0090  140.6200   56.4870 N   0  0  0  0  0  0  0  0  0  0  0  0
    1.9620  149.2640   52.6280 C   0  0  0  0  0  0  0  0  0  0  0  0
    2.4660  149.8330   53.8590 C   0  0  0  0  0  0  0  0  0  0  0  0
    1.6570  150.7410   54.6000 C   0  0  0  0  0  0  0  0  0  0  0  0
    0.3580  151.1130   54.1650 C   0  0  0  0  0  0  0  0  0  0  0  0
   -0.1340  150.5380   52.9220 C   0  0  0  0  0  0  0  0  0  0  0  0
    3.8340  149.4930   54.3900 C   0  0  0  0  0  0  0  0  0  0  0  0
    3.7760  148.3010   55.3550 C   0  0  0  0  0  0  0  0  0  0  0  0
    3.6080  147.1180   54.7070 N   0  0  0  0  0  0  0  0  0  0  0  0
    3.5230  145.8440   55.1920 C   0  0  0  0  0  0  0  0  0  0  0  0
    3.8880  148.4710   56.5680 O   0  0  0  0  0  0  0  0  0  0  0  0
    3.0190  144.9720   54.2890 N   0  0  0  0  0  0  0  0  0  0  0  0
    2.8790  143.6460   54.6100 C   0  0  0  0  0  0  0  0  0  0  0  0
    3.2540  143.1490   55.8980 C   0  0  0  0  0  0  0  0  0  0  0  0
    3.7840  144.0620   56.8580 C   0  0  0  0  0  0  0  0  0  0  0  0
    3.9180  145.4220   56.4980 C   0  0  0  0  0  0  0  0  0  0  0  0
   -0.4210  152.0200   54.9250 O   0  0  0  0  0  0  0  0  0  0  0  0
   -1.4550  151.4120   55.7020 C   0  0  0  0  0  0  0  0  0  0  0  0
    2.7960  148.3740   51.9370 O   0  0  0  0  0  0  0  0  0  0  0  0
    2.1840  147.2640   51.2740 C   0  0  0  0  0  0  0  0  0  0  0  0
    4.1700  143.6740   58.1190 N   0  0  0  0  0  0  0  0  0  0  0  0
    3.1040  141.7440   56.2230 C   0  0  0  0  0  0  0  0  0  0  0  0
   -1.8550  150.9620   52.2300 Br  0  0  0  0  0  0  0  0  0  0  0  0
    0.0000    0.0000    0.0000 H   0  0  0  0  0  0  0  0  0  0  0  0
    0.0000    0.0000    0.0000 H   0  0  0  0  0  0  0  0  0  0  0  0
    0.0000    0.0000    0.0000 H   0  0  0  0  0  0  0  0  0  0  0  0
    0.0000    0.0000    0.0000 H   0  0  0  0  0  0  0  0  0  0  0  0
    0.0000    0.0000    0.0000 H   0  0  0  0  0  0  0  0  0  0  0  0
    0.0000    0.0000    0.0000 H   0  0  0  0  0  0  0  0  0  0  0  0
    0.0000    0.0000    0.0000 H   0  0  0  0  0  0  0  0  0  0  0  0
    0.0000    0.0000    0.0000 H   0  0  0  0  0  0  0  0  0  0  0  0
    0.0000    0.0000    0.0000 H   0  0  0  0  0  0  0  0  0  0  0  0
    0.0000    0.0000    0.0000 H   0  0  0  0  0  0  0  0  0  0  0  0
    0.0000    0.0000    0.0000 H   0  0  0  0  0  0  0  0  0  0  0  0
    0.0000    0.0000    0.0000 H   0  0  0  0  0  0  0  0  0  0  0  0
    0.0000    0.0000    0.0000 H   0  0  0  0  0  0  0  0  0  0  0  0
    0.0000    0.0000    0.0000 H   0  0  0  0  0  0  0  0  0  0  0  0
    1.4316   71.4287   27.1551 C   0  0  2  0  0  0  0  0  0  0  0  0
    0.1575   71.1456   26.3956 C   0  0  0  0  0  0  0  0  0  0  0  0
    0.2173   69.7792   25.7792 C   0  0  1  0  0  0  0  0  0  0  0  0
    1.4387   69.7026   24.8968 C   0  0  0  0  0  0  0  0  0  0  0  0
    2.6879   69.8525   25.7189 C   0  0  2  0  0  0  0  0  0  0  0  0
    2.7726   68.8959   26.8675 C   0  0  0  0  0  0  0  0  0  0  0  0
    1.5193   69.0249   27.7242 C   0  0  2  0  0  0  0  0  0  0  0  0
    0.3481   68.7152   26.8367 C   0  0  0  0  0  0  0  0  0  0  0  0
    1.4927   70.4138   28.2914 C   0  0  0  0  0  0  0  0  0  0  0  0
    2.6656   71.2611   26.3062 C   0  0  0  0  0  0  0  0  0  0  0  0
   -0.6591   71.1084   27.1719 H   0  0  0  0  0  0  0  0  0  0  0  0
   -0.1053   71.9164   25.6659 H   0  0  0  0  0  0  0  0  0  0  0  0
   -0.6879   69.6221   25.1660 H   0  0  0  0  0  0  0  0  0  0  0  0
    1.4443   68.8350   24.2235 H   0  0  0  0  0  0  0  0  0  0  0  0
    1.3888   70.6061   24.2244 H   0  0  0  0  0  0  0  0  0  0  0  0
    3.5767   69.7264   25.0754 H   0  0  0  0  0  0  0  0  0  0  0  0
    3.6153   69.2233   27.5156 H   0  0  0  0  0  0  0  0  0  0  0  0
    2.9490   67.8581   26.5357 H   0  0  0  0  0  0  0  0  0  0  0  0
    1.5190   68.3162   28.5644 H   0  0  0  0  0  0  0  0  0  0  0  0
   -0.5806   68.5101   27.3825 H   0  0  0  0  0  0  0  0  0  0  0  0
    0.6217   67.7661   26.2866 H   0  0  0  0  0  0  0  0  0  0  0  0
    0.6500   70.5901   28.9770 H   0  0  0  0  0  0  0  0  0  0  0  0
    2.4772   70.5814   28.7885 H   0  0  0  0  0  0  0  0  0  0  0  0
    2.7147   72.0258   25.5152 H   0  0  0  0  0  0  0  0  0  0  0  0
    3.5377   71.3023   27.0082 H   0  0  0  0  0  0  0  0  0  0  0  0
  1  3  2  0
  1  7  1  0
  2 23  3  0
  3  4  1  0
  3 20  1  0
  4  5  2  0
  4  8  1  0
  5  6  1  0
  6  7  2  0
  6 18  1  0
  7 24  1  0
  8  9  1  0
  9 10  1  0
  9 12  2  0
 10 11  1  0
 11 13  2  0
 11 17  1  0
 13 14  1  0
 14 15  2  0
 15 16  1  0
 15 23  1  0
 16 17  2  0
 16 22  1  0
 18 19  1  0
 20 21  1  0
  1 25  1  0
  5 26  1  0
  8 27  1  0
  8 28  1  0
 10 29  1  0
 17 30  1  0
 19 31  1  0
 19 32  1  0
 19 33  1  0
 21 34  1  0
 21 35  1  0
 21 36  1  0
 22 37  1  0
 22 38  1  0
 39 40  1  0
 40 41  1  0
 41 42  1  0
 42 43  1  0
 43 44  1  0
 44 45  1  0
 45 46  1  0
 45 47  1  0
 43 48  1  0
 47 39  1  0
 48 39  1  0
 46 41  1  0
 40 49  1  0
 40 50  1  0
 41 51  1  6
 42 52  1  0
 42 53  1  0
 43 54  1  6
 44 55  1  0
 44 56  1  0
 45 57  1  1
 46 58  1  0
 46 59  1  0
 47 60  1  0
 47 61  1  0
 48 62  1  0
 48 63  1  0
 39 14  1  6
M  END
>  <attachment_point>  (472) 
29

>  <score>  (472) 
<NA>

$$$$
2gmx
     RDKit          3D

 52 54  0  0  0  0  0  0  0  0999 V2000
    0.6680  149.6310   52.1780 C   0  0  0  0  0  0  0  0  0  0  0  0
    3.0090  140.6200   56.4870 N   0  0  0  0  0  0  0  0  0  0  0  0
    1.9620  149.2640   52.6280 C   0  0  0  0  0  0  0  0  0  0  0  0
    2.4660  149.8330   53.8590 C   0  0  0  0  0  0  0  0  0  0  0  0
    1.6570  150.7410   54.6000 C   0  0  0  0  0  0  0  0  0  0  0  0
    0.3580  151.1130   54.1650 C   0  0  0  0  0  0  0  0  0  0  0  0
   -0.1340  150.5380   52.9220 C   0  0  0  0  0  0  0  0  0  0  0  0
    3.8340  149.4930   54.3900 C   0  0  0  0  0  0  0  0  0  0  0  0
    3.7760  148.3010   55.3550 C   0  0  0  0  0  0  0  0  0  0  0  0
    3.6080  147.1180   54.7070 N   0  0  0  0  0  0  0  0  0  0  0  0
    3.5230  145.8440   55.1920 C   0  0  0  0  0  0  0  0  0  0  0  0
    3.8880  148.4710   56.5680 O   0  0  0  0  0  0  0  0  0  0  0  0
    3.0190  144.9720   54.2890 N   0  0  0  0  0  0  0  0  0  0  0  0
    2.8790  143.6460   54.6100 C   0  0  0  0  0  0  0  0  0  0  0  0
    3.2540  143.1490   55.8980 C   0  0  0  0  0  0  0  0  0  0  0  0
    3.7840  144.0620   56.8580 C   0  0  0  0  0  0  0  0  0  0  0  0
    3.9180  145.4220   56.4980 C   0  0  0  0  0  0  0  0  0  0  0  0
   -0.4210  152.0200   54.9250 O   0  0  0  0  0  0  0  0  0  0  0  0
   -1.4550  151.4120   55.7020 C   0  0  0  0  0  0  0  0  0  0  0  0
    2.7960  148.3740   51.9370 O   0  0  0  0  0  0  0  0  0  0  0  0
    2.1840  147.2640   51.2740 C   0  0  0  0  0  0  0  0  0  0  0  0
    4.1700  143.6740   58.1190 N   0  0  0  0  0  0  0  0  0  0  0  0
    3.1040  141.7440   56.2230 C   0  0  0  0  0  0  0  0  0  0  0  0
   -1.8550  150.9620   52.2300 Br  0  0  0  0  0  0  0  0  0  0  0  0
    0.0000    0.0000    0.0000 H   0  0  0  0  0  0  0  0  0  0  0  0
    0.0000    0.0000    0.0000 H   0  0  0  0  0  0  0  0  0  0  0  0
    0.0000    0.0000    0.0000 H   0  0  0  0  0  0  0  0  0  0  0  0
    0.0000    0.0000    0.0000 H   0  0  0  0  0  0  0  0  0  0  0  0
    0.0000    0.0000    0.0000 H   0  0  0  0  0  0  0  0  0  0  0  0
    0.0000    0.0000    0.0000 H   0  0  0  0  0  0  0  0  0  0  0  0
    0.0000    0.0000    0.0000 H   0  0  0  0  0  0  0  0  0  0  0  0
    0.0000    0.0000    0.0000 H   0  0  0  0  0  0  0  0  0  0  0  0
    0.0000    0.0000    0.0000 H   0  0  0  0  0  0  0  0  0  0  0  0
    0.0000    0.0000    0.0000 H   0  0  0  0  0  0  0  0  0  0  0  0
    0.0000    0.0000    0.0000 H   0  0  0  0  0  0  0  0  0  0  0  0
    0.0000    0.0000    0.0000 H   0  0  0  0  0  0  0  0  0  0  0  0
    0.0000    0.0000    0.0000 H   0  0  0  0  0  0  0  0  0  0  0  0
    0.0000    0.0000    0.0000 H   0  0  0  0  0  0  0  0  0  0  0  0
    1.4317   71.4345   27.1573 C   0  0  0  0  0  0  0  0  0  0  0  0
    0.4750   70.5661   27.6556 C   0  0  0  0  0  0  0  0  0  0  0  0
    0.4654   69.2765   27.1510 C   0  0  0  0  0  0  0  0  0  0  0  0
    1.3568   68.8443   26.1932 C   0  0  0  0  0  0  0  0  0  0  0  0
    2.2849   69.7563   25.7376 C   0  0  0  0  0  0  0  0  0  0  0  0
    2.3457   71.0517   26.1992 C   0  0  0  0  0  0  0  0  0  0  0  0
    3.3696   72.0206   25.6818 C   0  0  0  0  0  0  0  0  0  0  0  0
    2.7503   73.1102   25.1004 F   0  0  0  0  0  0  0  0  0  0  0  0
    4.2880   71.4160   24.8873 F   0  0  0  0  0  0  0  0  0  0  0  0
    4.0248   72.5147   26.8133 F   0  0  0  0  0  0  0  0  0  0  0  0
   -0.2453   70.8738   28.4131 H   0  0  0  0  0  0  0  0  0  0  0  0
   -0.2685   68.5805   27.5214 H   0  0  0  0  0  0  0  0  0  0  0  0
    1.3084   67.8268   25.8311 H   0  0  0  0  0  0  0  0  0  0  0  0
    3.0002   69.4386   24.9805 H   0  0  0  0  0  0  0  0  0  0  0  0
  1  3  2  0
  1  7  1  0
  2 23  3  0
  3  4  1  0
  3 20  1  0
  4  5  2  0
  4  8  1  0
  5  6  1  0
  6  7  2  0
  6 18  1  0
  7 24  1  0
  8  9  1  0
  9 10  1  0
  9 12  2  0
 10 11  1  0
 11 13  2  0
 11 17  1  0
 13 14  1  0
 14 15  2  0
 15 16  1  0
 15 23  1  0
 16 17  2  0
 16 22  1  0
 18 19  1  0
 20 21  1  0
  1 25  1  0
  5 26  1  0
  8 27  1  0
  8 28  1  0
 10 29  1  0
 17 30  1  0
 19 31  1  0
 19 32  1  0
 19 33  1  0
 21 34  1  0
 21 35  1  0
 21 36  1  0
 22 37  1  0
 22 38  1  0
 39 40  2  0
 40 41  1  0
 41 42  2  0
 42 43  1  0
 43 44  2  0
 44 45  1  0
 45 46  1  0
 45 47  1  0
 45 48  1  0
 44 39  1  0
 40 49  1  0
 41 50  1  0
 42 51  1  0
 43 52  1  0
 14 39  1  0
M  END
>  <attachment_point>  (473) 
29

>  <score>  (473) 
<NA>

$$$$
2gmx
     RDKit          3D

 51 53  0  0  0  0  0  0  0  0999 V2000
    0.6680  149.6310   52.1780 C   0  0  0  0  0  0  0  0  0  0  0  0
    3.0090  140.6200   56.4870 N   0  0  0  0  0  0  0  0  0  0  0  0
    1.9620  149.2640   52.6280 C   0  0  0  0  0  0  0  0  0  0  0  0
    2.4660  149.8330   53.8590 C   0  0  0  0  0  0  0  0  0  0  0  0
    1.6570  150.7410   54.6000 C   0  0  0  0  0  0  0  0  0  0  0  0
    0.3580  151.1130   54.1650 C   0  0  0  0  0  0  0  0  0  0  0  0
   -0.1340  150.5380   52.9220 C   0  0  0  0  0  0  0  0  0  0  0  0
    3.8340  149.4930   54.3900 C   0  0  0  0  0  0  0  0  0  0  0  0
    3.7760  148.3010   55.3550 C   0  0  0  0  0  0  0  0  0  0  0  0
    3.6080  147.1180   54.7070 N   0  0  0  0  0  0  0  0  0  0  0  0
    3.5230  145.8440   55.1920 C   0  0  0  0  0  0  0  0  0  0  0  0
    3.8880  148.4710   56.5680 O   0  0  0  0  0  0  0  0  0  0  0  0
    3.0190  144.9720   54.2890 N   0  0  0  0  0  0  0  0  0  0  0  0
    2.8790  143.6460   54.6100 C   0  0  0  0  0  0  0  0  0  0  0  0
    3.2540  143.1490   55.8980 C   0  0  0  0  0  0  0  0  0  0  0  0
    3.7840  144.0620   56.8580 C   0  0  0  0  0  0  0  0  0  0  0  0
    3.9180  145.4220   56.4980 C   0  0  0  0  0  0  0  0  0  0  0  0
   -0.4210  152.0200   54.9250 O   0  0  0  0  0  0  0  0  0  0  0  0
   -1.4550  151.4120   55.7020 C   0  0  0  0  0  0  0  0  0  0  0  0
    2.7960  148.3740   51.9370 O   0  0  0  0  0  0  0  0  0  0  0  0
    2.1840  147.2640   51.2740 C   0  0  0  0  0  0  0  0  0  0  0  0
    4.1700  143.6740   58.1190 N   0  0  0  0  0  0  0  0  0  0  0  0
    3.1040  141.7440   56.2230 C   0  0  0  0  0  0  0  0  0  0  0  0
   -1.8550  150.9620   52.2300 Br  0  0  0  0  0  0  0  0  0  0  0  0
    0.0000    0.0000    0.0000 H   0  0  0  0  0  0  0  0  0  0  0  0
    0.0000    0.0000    0.0000 H   0  0  0  0  0  0  0  0  0  0  0  0
    0.0000    0.0000    0.0000 H   0  0  0  0  0  0  0  0  0  0  0  0
    0.0000    0.0000    0.0000 H   0  0  0  0  0  0  0  0  0  0  0  0
    0.0000    0.0000    0.0000 H   0  0  0  0  0  0  0  0  0  0  0  0
    0.0000    0.0000    0.0000 H   0  0  0  0  0  0  0  0  0  0  0  0
    0.0000    0.0000    0.0000 H   0  0  0  0  0  0  0  0  0  0  0  0
    0.0000    0.0000    0.0000 H   0  0  0  0  0  0  0  0  0  0  0  0
    0.0000    0.0000    0.0000 H   0  0  0  0  0  0  0  0  0  0  0  0
    0.0000    0.0000    0.0000 H   0  0  0  0  0  0  0  0  0  0  0  0
    0.0000    0.0000    0.0000 H   0  0  0  0  0  0  0  0  0  0  0  0
    0.0000    0.0000    0.0000 H   0  0  0  0  0  0  0  0  0  0  0  0
    0.0000    0.0000    0.0000 H   0  0  0  0  0  0  0  0  0  0  0  0
    0.0000    0.0000    0.0000 H   0  0  0  0  0  0  0  0  0  0  0  0
    1.4308   71.3907   27.1407 C   0  0  0  0  0  0  0  0  0  0  0  0
    2.5781   70.8585   26.6873 N   0  0  0  0  0  0  0  0  0  0  0  0
    2.6539   69.6111   26.1912 C   0  0  0  0  0  0  0  0  0  0  0  0
    1.4749   68.8843   26.1673 C   0  0  0  0  0  0  0  0  0  0  0  0
    0.2819   69.4100   26.6282 C   0  0  0  0  0  0  0  0  0  0  0  0
    0.2452   70.6983   27.1316 C   0  0  0  0  0  0  0  0  0  0  0  0
   -1.0062   71.3164   27.6405 C   0  0  0  0  0  0  0  0  0  0  0  0
   -2.0181   70.3833   27.5012 F   0  0  0  0  0  0  0  0  0  0  0  0
   -0.8788   71.7590   28.9445 F   0  0  0  0  0  0  0  0  0  0  0  0
   -1.2861   72.4412   26.8684 F   0  0  0  0  0  0  0  0  0  0  0  0
    3.5777   69.1821   25.8259 H   0  0  0  0  0  0  0  0  0  0  0  0
    1.5158   67.8665   25.7672 H   0  0  0  0  0  0  0  0  0  0  0  0
   -0.6342   68.8248   26.6018 H   0  0  0  0  0  0  0  0  0  0  0  0
  1  3  2  0
  1  7  1  0
  2 23  3  0
  3  4  1  0
  3 20  1  0
  4  5  2  0
  4  8  1  0
  5  6  1  0
  6  7  2  0
  6 18  1  0
  7 24  1  0
  8  9  1  0
  9 10  1  0
  9 12  2  0
 10 11  1  0
 11 13  2  0
 11 17  1  0
 13 14  1  0
 14 15  2  0
 15 16  1  0
 15 23  1  0
 16 17  2  0
 16 22  1  0
 18 19  1  0
 20 21  1  0
  1 25  1  0
  5 26  1  0
  8 27  1  0
  8 28  1  0
 10 29  1  0
 17 30  1  0
 19 31  1  0
 19 32  1  0
 19 33  1  0
 21 34  1  0
 21 35  1  0
 21 36  1  0
 22 37  1  0
 22 38  1  0
 39 40  2  0
 40 41  1  0
 41 42  2  0
 42 43  1  0
 43 44  2  0
 44 45  1  0
 45 46  1  0
 45 47  1  0
 45 48  1  0
 44 39  1  0
 41 49  1  0
 42 50  1  0
 43 51  1  0
 14 39  1  0
M  END
>  <attachment_point>  (474) 
29

>  <score>  (474) 
<NA>

$$$$
2gmx
     RDKit          3D

 57 59  0  0  0  0  0  0  0  0999 V2000
    0.6680  149.6310   52.1780 C   0  0  0  0  0  0  0  0  0  0  0  0
    3.0090  140.6200   56.4870 N   0  0  0  0  0  0  0  0  0  0  0  0
    1.9620  149.2640   52.6280 C   0  0  0  0  0  0  0  0  0  0  0  0
    2.4660  149.8330   53.8590 C   0  0  0  0  0  0  0  0  0  0  0  0
    1.6570  150.7410   54.6000 C   0  0  0  0  0  0  0  0  0  0  0  0
    0.3580  151.1130   54.1650 C   0  0  0  0  0  0  0  0  0  0  0  0
   -0.1340  150.5380   52.9220 C   0  0  0  0  0  0  0  0  0  0  0  0
    3.8340  149.4930   54.3900 C   0  0  0  0  0  0  0  0  0  0  0  0
    3.7760  148.3010   55.3550 C   0  0  0  0  0  0  0  0  0  0  0  0
    3.6080  147.1180   54.7070 N   0  0  0  0  0  0  0  0  0  0  0  0
    3.5230  145.8440   55.1920 C   0  0  0  0  0  0  0  0  0  0  0  0
    3.8880  148.4710   56.5680 O   0  0  0  0  0  0  0  0  0  0  0  0
    3.0190  144.9720   54.2890 N   0  0  0  0  0  0  0  0  0  0  0  0
    2.8790  143.6460   54.6100 C   0  0  0  0  0  0  0  0  0  0  0  0
    3.2540  143.1490   55.8980 C   0  0  0  0  0  0  0  0  0  0  0  0
    3.7840  144.0620   56.8580 C   0  0  0  0  0  0  0  0  0  0  0  0
    3.9180  145.4220   56.4980 C   0  0  0  0  0  0  0  0  0  0  0  0
   -0.4210  152.0200   54.9250 O   0  0  0  0  0  0  0  0  0  0  0  0
   -1.4550  151.4120   55.7020 C   0  0  0  0  0  0  0  0  0  0  0  0
    2.7960  148.3740   51.9370 O   0  0  0  0  0  0  0  0  0  0  0  0
    2.1840  147.2640   51.2740 C   0  0  0  0  0  0  0  0  0  0  0  0
    4.1700  143.6740   58.1190 N   0  0  0  0  0  0  0  0  0  0  0  0
    3.1040  141.7440   56.2230 C   0  0  0  0  0  0  0  0  0  0  0  0
   -1.8550  150.9620   52.2300 Br  0  0  0  0  0  0  0  0  0  0  0  0
    0.0000    0.0000    0.0000 H   0  0  0  0  0  0  0  0  0  0  0  0
    0.0000    0.0000    0.0000 H   0  0  0  0  0  0  0  0  0  0  0  0
    0.0000    0.0000    0.0000 H   0  0  0  0  0  0  0  0  0  0  0  0
    0.0000    0.0000    0.0000 H   0  0  0  0  0  0  0  0  0  0  0  0
    0.0000    0.0000    0.0000 H   0  0  0  0  0  0  0  0  0  0  0  0
    0.0000    0.0000    0.0000 H   0  0  0  0  0  0  0  0  0  0  0  0
    0.0000    0.0000    0.0000 H   0  0  0  0  0  0  0  0  0  0  0  0
    0.0000    0.0000    0.0000 H   0  0  0  0  0  0  0  0  0  0  0  0
    0.0000    0.0000    0.0000 H   0  0  0  0  0  0  0  0  0  0  0  0
    0.0000    0.0000    0.0000 H   0  0  0  0  0  0  0  0  0  0  0  0
    0.0000    0.0000    0.0000 H   0  0  0  0  0  0  0  0  0  0  0  0
    0.0000    0.0000    0.0000 H   0  0  0  0  0  0  0  0  0  0  0  0
    0.0000    0.0000    0.0000 H   0  0  0  0  0  0  0  0  0  0  0  0
    0.0000    0.0000    0.0000 H   0  0  0  0  0  0  0  0  0  0  0  0
    1.4303   71.3656   27.1311 N   0  0  0  0  0  0  0  0  0  0  0  0
    1.2124   70.5890   28.6719 S   0  0  0  0  0  6  0  0  0  0  0  0
    1.0953   69.1271   28.4113 O   0  0  0  0  0  0  0  0  0  0  0  0
   -0.0494   71.1516   29.2892 O   0  0  0  0  0  0  0  0  0  0  0  0
    2.6119   70.9807   29.6480 C   0  0  0  0  0  0  0  0  0  0  0  0
    3.7464   70.1937   29.6555 C   0  0  0  0  0  0  0  0  0  0  0  0
    4.8447   70.5108   30.4285 C   0  0  0  0  0  0  0  0  0  0  0  0
    4.8663   71.6306   31.2337 C   0  0  0  0  0  0  0  0  0  0  0  0
    6.0580   71.9738   32.0716 C   0  0  0  0  0  0  0  0  0  0  0  0
    3.7367   72.4208   31.2307 C   0  0  0  0  0  0  0  0  0  0  0  0
    2.6407   72.1003   30.4566 C   0  0  0  0  0  0  0  0  0  0  0  0
    0.4808   71.4825   26.6857 H   0  0  0  0  0  0  0  0  0  0  0  0
    3.7369   69.3016   29.0180 H   0  0  0  0  0  0  0  0  0  0  0  0
    5.7316   69.8689   30.4155 H   0  0  0  0  0  0  0  0  0  0  0  0
    5.9101   71.6611   33.1332 H   0  0  0  0  0  0  0  0  0  0  0  0
    6.2678   73.0606   32.0589 H   0  0  0  0  0  0  0  0  0  0  0  0
    6.9280   71.4769   31.6158 H   0  0  0  0  0  0  0  0  0  0  0  0
    3.7460   73.3036   31.8618 H   0  0  0  0  0  0  0  0  0  0  0  0
    1.7424   72.7233   30.4504 H   0  0  0  0  0  0  0  0  0  0  0  0
  1  3  2  0
  1  7  1  0
  2 23  3  0
  3  4  1  0
  3 20  1  0
  4  5  2  0
  4  8  1  0
  5  6  1  0
  6  7  2  0
  6 18  1  0
  7 24  1  0
  8  9  1  0
  9 10  1  0
  9 12  2  0
 10 11  1  0
 11 13  2  0
 11 17  1  0
 13 14  1  0
 14 15  2  0
 15 16  1  0
 15 23  1  0
 16 17  2  0
 16 22  1  0
 18 19  1  0
 20 21  1  0
  1 25  1  0
  5 26  1  0
  8 27  1  0
  8 28  1  0
 10 29  1  0
 17 30  1  0
 19 31  1  0
 19 32  1  0
 19 33  1  0
 21 34  1  0
 21 35  1  0
 21 36  1  0
 22 37  1  0
 22 38  1  0
 39 40  1  0
 40 41  2  0
 40 42  2  0
 40 43  1  0
 43 44  2  0
 44 45  1  0
 45 46  2  0
 46 47  1  0
 46 48  1  0
 48 49  2  0
 49 43  1  0
 39 50  1  0
 44 51  1  0
 45 52  1  0
 47 53  1  0
 47 54  1  0
 47 55  1  0
 48 56  1  0
 49 57  1  0
 14 39  1  0
M  END
>  <attachment_point>  (475) 
29

>  <score>  (475) 
<NA>

$$$$
2gmx
     RDKit          3D

 56 57  0  0  0  0  0  0  0  0999 V2000
    0.6680  149.6310   52.1780 C   0  0  0  0  0  0  0  0  0  0  0  0
    3.0090  140.6200   56.4870 N   0  0  0  0  0  0  0  0  0  0  0  0
    1.9620  149.2640   52.6280 C   0  0  0  0  0  0  0  0  0  0  0  0
    2.4660  149.8330   53.8590 C   0  0  0  0  0  0  0  0  0  0  0  0
    1.6570  150.7410   54.6000 C   0  0  0  0  0  0  0  0  0  0  0  0
    0.3580  151.1130   54.1650 C   0  0  0  0  0  0  0  0  0  0  0  0
   -0.1340  150.5380   52.9220 C   0  0  0  0  0  0  0  0  0  0  0  0
    3.8340  149.4930   54.3900 C   0  0  0  0  0  0  0  0  0  0  0  0
    3.7760  148.3010   55.3550 C   0  0  0  0  0  0  0  0  0  0  0  0
    3.6080  147.1180   54.7070 N   0  0  0  0  0  0  0  0  0  0  0  0
    3.5230  145.8440   55.1920 C   0  0  0  0  0  0  0  0  0  0  0  0
    3.8880  148.4710   56.5680 O   0  0  0  0  0  0  0  0  0  0  0  0
    3.0190  144.9720   54.2890 N   0  0  0  0  0  0  0  0  0  0  0  0
    2.8790  143.6460   54.6100 C   0  0  0  0  0  0  0  0  0  0  0  0
    3.2540  143.1490   55.8980 C   0  0  0  0  0  0  0  0  0  0  0  0
    3.7840  144.0620   56.8580 C   0  0  0  0  0  0  0  0  0  0  0  0
    3.9180  145.4220   56.4980 C   0  0  0  0  0  0  0  0  0  0  0  0
   -0.4210  152.0200   54.9250 O   0  0  0  0  0  0  0  0  0  0  0  0
   -1.4550  151.4120   55.7020 C   0  0  0  0  0  0  0  0  0  0  0  0
    2.7960  148.3740   51.9370 O   0  0  0  0  0  0  0  0  0  0  0  0
    2.1840  147.2640   51.2740 C   0  0  0  0  0  0  0  0  0  0  0  0
    4.1700  143.6740   58.1190 N   0  0  0  0  0  0  0  0  0  0  0  0
    3.1040  141.7440   56.2230 C   0  0  0  0  0  0  0  0  0  0  0  0
   -1.8550  150.9620   52.2300 Br  0  0  0  0  0  0  0  0  0  0  0  0
    0.0000    0.0000    0.0000 H   0  0  0  0  0  0  0  0  0  0  0  0
    0.0000    0.0000    0.0000 H   0  0  0  0  0  0  0  0  0  0  0  0
    0.0000    0.0000    0.0000 H   0  0  0  0  0  0  0  0  0  0  0  0
    0.0000    0.0000    0.0000 H   0  0  0  0  0  0  0  0  0  0  0  0
    0.0000    0.0000    0.0000 H   0  0  0  0  0  0  0  0  0  0  0  0
    0.0000    0.0000    0.0000 H   0  0  0  0  0  0  0  0  0  0  0  0
    0.0000    0.0000    0.0000 H   0  0  0  0  0  0  0  0  0  0  0  0
    0.0000    0.0000    0.0000 H   0  0  0  0  0  0  0  0  0  0  0  0
    0.0000    0.0000    0.0000 H   0  0  0  0  0  0  0  0  0  0  0  0
    0.0000    0.0000    0.0000 H   0  0  0  0  0  0  0  0  0  0  0  0
    0.0000    0.0000    0.0000 H   0  0  0  0  0  0  0  0  0  0  0  0
    0.0000    0.0000    0.0000 H   0  0  0  0  0  0  0  0  0  0  0  0
    0.0000    0.0000    0.0000 H   0  0  0  0  0  0  0  0  0  0  0  0
    0.0000    0.0000    0.0000 H   0  0  0  0  0  0  0  0  0  0  0  0
    1.4292   71.3069   27.1088 N   0  0  0  0  0  0  0  0  0  0  0  0
    1.6675   70.4196   28.1147 C   0  0  0  0  0  0  0  0  0  0  0  0
    1.8741   70.7706   29.2948 O   0  0  0  0  0  0  0  0  0  0  0  0
    1.7045   69.0598   27.9347 O   0  0  0  0  0  0  0  0  0  0  0  0
    1.9155   68.0414   28.7634 C   0  0  0  0  0  0  0  0  0  0  0  0
    1.0708   67.7586   29.9325 C   0  0  0  0  0  0  0  0  0  0  0  0
    1.8999   66.7707   27.8806 C   0  0  0  0  0  0  0  0  0  0  0  0
    3.3788   68.1140   29.2428 C   0  0  0  0  0  0  0  0  0  0  0  0
    1.2531   71.2903   26.1818 H   0  0  0  0  0  0  0  0  0  0  0  0
    1.6690   67.4241   30.8092 H   0  0  0  0  0  0  0  0  0  0  0  0
    0.4329   68.5736   30.2974 H   0  0  0  0  0  0  0  0  0  0  0  0
    0.3624   66.9001   29.7468 H   0  0  0  0  0  0  0  0  0  0  0  0
    2.3104   66.9746   26.8870 H   0  0  0  0  0  0  0  0  0  0  0  0
    0.7992   66.5653   27.7347 H   0  0  0  0  0  0  0  0  0  0  0  0
    2.3484   65.9214   28.4058 H   0  0  0  0  0  0  0  0  0  0  0  0
    3.9663   68.8039   28.6439 H   0  0  0  0  0  0  0  0  0  0  0  0
    3.3784   68.5087   30.2990 H   0  0  0  0  0  0  0  0  0  0  0  0
    3.8175   67.0975   29.3200 H   0  0  0  0  0  0  0  0  0  0  0  0
  1  3  2  0
  1  7  1  0
  2 23  3  0
  3  4  1  0
  3 20  1  0
  4  5  2  0
  4  8  1  0
  5  6  1  0
  6  7  2  0
  6 18  1  0
  7 24  1  0
  8  9  1  0
  9 10  1  0
  9 12  2  0
 10 11  1  0
 11 13  2  0
 11 17  1  0
 13 14  1  0
 14 15  2  0
 15 16  1  0
 15 23  1  0
 16 17  2  0
 16 22  1  0
 18 19  1  0
 20 21  1  0
  1 25  1  0
  5 26  1  0
  8 27  1  0
  8 28  1  0
 10 29  1  0
 17 30  1  0
 19 31  1  0
 19 32  1  0
 19 33  1  0
 21 34  1  0
 21 35  1  0
 21 36  1  0
 22 37  1  0
 22 38  1  0
 39 40  1  0
 40 41  2  0
 40 42  1  0
 42 43  1  0
 43 44  1  0
 43 45  1  0
 43 46  1  0
 39 47  1  0
 44 48  1  0
 44 49  1  0
 44 50  1  0
 45 51  1  0
 45 52  1  0
 45 53  1  0
 46 54  1  0
 46 55  1  0
 46 56  1  0
 14 39  1  0
M  END
>  <attachment_point>  (476) 
29

>  <score>  (476) 
<NA>

$$$$
2gmx
     RDKit          3D

 53 56  0  0  0  0  0  0  0  0999 V2000
    0.6680  149.6310   52.1780 C   0  0  0  0  0  0  0  0  0  0  0  0
    3.0090  140.6200   56.4870 N   0  0  0  0  0  0  0  0  0  0  0  0
    1.9620  149.2640   52.6280 C   0  0  0  0  0  0  0  0  0  0  0  0
    2.4660  149.8330   53.8590 C   0  0  0  0  0  0  0  0  0  0  0  0
    1.6570  150.7410   54.6000 C   0  0  0  0  0  0  0  0  0  0  0  0
    0.3580  151.1130   54.1650 C   0  0  0  0  0  0  0  0  0  0  0  0
   -0.1340  150.5380   52.9220 C   0  0  0  0  0  0  0  0  0  0  0  0
    3.8340  149.4930   54.3900 C   0  0  0  0  0  0  0  0  0  0  0  0
    3.7760  148.3010   55.3550 C   0  0  0  0  0  0  0  0  0  0  0  0
    3.6080  147.1180   54.7070 N   0  0  0  0  0  0  0  0  0  0  0  0
    3.5230  145.8440   55.1920 C   0  0  0  0  0  0  0  0  0  0  0  0
    3.8880  148.4710   56.5680 O   0  0  0  0  0  0  0  0  0  0  0  0
    3.0190  144.9720   54.2890 N   0  0  0  0  0  0  0  0  0  0  0  0
    2.8790  143.6460   54.6100 C   0  0  0  0  0  0  0  0  0  0  0  0
    3.2540  143.1490   55.8980 C   0  0  0  0  0  0  0  0  0  0  0  0
    3.7840  144.0620   56.8580 C   0  0  0  0  0  0  0  0  0  0  0  0
    3.9180  145.4220   56.4980 C   0  0  0  0  0  0  0  0  0  0  0  0
   -0.4210  152.0200   54.9250 O   0  0  0  0  0  0  0  0  0  0  0  0
   -1.4550  151.4120   55.7020 C   0  0  0  0  0  0  0  0  0  0  0  0
    2.7960  148.3740   51.9370 O   0  0  0  0  0  0  0  0  0  0  0  0
    2.1840  147.2640   51.2740 C   0  0  0  0  0  0  0  0  0  0  0  0
    4.1700  143.6740   58.1190 N   0  0  0  0  0  0  0  0  0  0  0  0
    3.1040  141.7440   56.2230 C   0  0  0  0  0  0  0  0  0  0  0  0
   -1.8550  150.9620   52.2300 Br  0  0  0  0  0  0  0  0  0  0  0  0
    0.0000    0.0000    0.0000 H   0  0  0  0  0  0  0  0  0  0  0  0
    0.0000    0.0000    0.0000 H   0  0  0  0  0  0  0  0  0  0  0  0
    0.0000    0.0000    0.0000 H   0  0  0  0  0  0  0  0  0  0  0  0
    0.0000    0.0000    0.0000 H   0  0  0  0  0  0  0  0  0  0  0  0
    0.0000    0.0000    0.0000 H   0  0  0  0  0  0  0  0  0  0  0  0
    0.0000    0.0000    0.0000 H   0  0  0  0  0  0  0  0  0  0  0  0
    0.0000    0.0000    0.0000 H   0  0  0  0  0  0  0  0  0  0  0  0
    0.0000    0.0000    0.0000 H   0  0  0  0  0  0  0  0  0  0  0  0
    0.0000    0.0000    0.0000 H   0  0  0  0  0  0  0  0  0  0  0  0
    0.0000    0.0000    0.0000 H   0  0  0  0  0  0  0  0  0  0  0  0
    0.0000    0.0000    0.0000 H   0  0  0  0  0  0  0  0  0  0  0  0
    0.0000    0.0000    0.0000 H   0  0  0  0  0  0  0  0  0  0  0  0
    0.0000    0.0000    0.0000 H   0  0  0  0  0  0  0  0  0  0  0  0
    0.0000    0.0000    0.0000 H   0  0  0  0  0  0  0  0  0  0  0  0
    1.4310   71.4011   27.1446 C   0  0  0  0  0  0  0  0  0  0  0  0
    2.5227   70.6816   26.7358 C   0  0  0  0  0  0  0  0  0  0  0  0
    2.0830   69.4476   26.3173 C   0  0  0  0  0  0  0  0  0  0  0  0
    2.7087   68.3159   25.8078 C   0  0  0  0  0  0  0  0  0  0  0  0
    1.9971   67.1875   25.4631 C   0  0  0  0  0  0  0  0  0  0  0  0
    0.6298   67.1840   25.6290 C   0  0  0  0  0  0  0  0  0  0  0  0
   -0.0030   68.2979   26.1326 C   0  0  0  0  0  0  0  0  0  0  0  0
    0.7085   69.4458   26.4848 C   0  0  0  0  0  0  0  0  0  0  0  0
    0.3446   70.6427   26.9873 N   0  0  0  0  0  0  0  0  0  0  0  0
    3.5374   71.0252   26.7432 H   0  0  0  0  0  0  0  0  0  0  0  0
    3.7733   68.3301   25.6830 H   0  0  0  0  0  0  0  0  0  0  0  0
    2.4494   66.2912   25.0648 H   0  0  0  0  0  0  0  0  0  0  0  0
    0.0477   66.2900   25.3581 H   0  0  0  0  0  0  0  0  0  0  0  0
   -1.0614   68.3126   26.2677 H   0  0  0  0  0  0  0  0  0  0  0  0
   -0.6277   70.9350   27.2181 H   0  0  0  0  0  0  0  0  0  0  0  0
  1  3  2  0
  1  7  1  0
  2 23  3  0
  3  4  1  0
  3 20  1  0
  4  5  2  0
  4  8  1  0
  5  6  1  0
  6  7  2  0
  6 18  1  0
  7 24  1  0
  8  9  1  0
  9 10  1  0
  9 12  2  0
 10 11  1  0
 11 13  2  0
 11 17  1  0
 13 14  1  0
 14 15  2  0
 15 16  1  0
 15 23  1  0
 16 17  2  0
 16 22  1  0
 18 19  1  0
 20 21  1  0
  1 25  1  0
  5 26  1  0
  8 27  1  0
  8 28  1  0
 10 29  1  0
 17 30  1  0
 19 31  1  0
 19 32  1  0
 19 33  1  0
 21 34  1  0
 21 35  1  0
 21 36  1  0
 22 37  1  0
 22 38  1  0
 39 40  2  0
 40 41  1  0
 41 42  2  0
 42 43  1  0
 43 44  2  0
 44 45  1  0
 45 46  2  0
 46 47  1  0
 47 39  1  0
 46 41  1  0
 40 48  1  0
 42 49  1  0
 43 50  1  0
 44 51  1  0
 45 52  1  0
 47 53  1  0
 14 39  1  0
M  END
>  <attachment_point>  (477) 
29

>  <score>  (477) 
<NA>

$$$$
2gmx
     RDKit          3D

 52 53  0  0  0  0  0  0  0  0999 V2000
    0.6680  149.6310   52.1780 C   0  0  0  0  0  0  0  0  0  0  0  0
    3.0090  140.6200   56.4870 N   0  0  0  0  0  0  0  0  0  0  0  0
    1.9620  149.2640   52.6280 C   0  0  0  0  0  0  0  0  0  0  0  0
    2.4660  149.8330   53.8590 C   0  0  0  0  0  0  0  0  0  0  0  0
    1.6570  150.7410   54.6000 C   0  0  0  0  0  0  0  0  0  0  0  0
    0.3580  151.1130   54.1650 C   0  0  0  0  0  0  0  0  0  0  0  0
   -0.1340  150.5380   52.9220 C   0  0  0  0  0  0  0  0  0  0  0  0
    3.8340  149.4930   54.3900 C   0  0  0  0  0  0  0  0  0  0  0  0
    3.7760  148.3010   55.3550 C   0  0  0  0  0  0  0  0  0  0  0  0
    3.6080  147.1180   54.7070 N   0  0  0  0  0  0  0  0  0  0  0  0
    3.5230  145.8440   55.1920 C   0  0  0  0  0  0  0  0  0  0  0  0
    3.8880  148.4710   56.5680 O   0  0  0  0  0  0  0  0  0  0  0  0
    3.0190  144.9720   54.2890 N   0  0  0  0  0  0  0  0  0  0  0  0
    2.8790  143.6460   54.6100 C   0  0  0  0  0  0  0  0  0  0  0  0
    3.2540  143.1490   55.8980 C   0  0  0  0  0  0  0  0  0  0  0  0
    3.7840  144.0620   56.8580 C   0  0  0  0  0  0  0  0  0  0  0  0
    3.9180  145.4220   56.4980 C   0  0  0  0  0  0  0  0  0  0  0  0
   -0.4210  152.0200   54.9250 O   0  0  0  0  0  0  0  0  0  0  0  0
   -1.4550  151.4120   55.7020 C   0  0  0  0  0  0  0  0  0  0  0  0
    2.7960  148.3740   51.9370 O   0  0  0  0  0  0  0  0  0  0  0  0
    2.1840  147.2640   51.2740 C   0  0  0  0  0  0  0  0  0  0  0  0
    4.1700  143.6740   58.1190 N   0  0  0  0  0  0  0  0  0  0  0  0
    3.1040  141.7440   56.2230 C   0  0  0  0  0  0  0  0  0  0  0  0
   -1.8550  150.9620   52.2300 Br  0  0  0  0  0  0  0  0  0  0  0  0
    0.0000    0.0000    0.0000 H   0  0  0  0  0  0  0  0  0  0  0  0
    0.0000    0.0000    0.0000 H   0  0  0  0  0  0  0  0  0  0  0  0
    0.0000    0.0000    0.0000 H   0  0  0  0  0  0  0  0  0  0  0  0
    0.0000    0.0000    0.0000 H   0  0  0  0  0  0  0  0  0  0  0  0
    0.0000    0.0000    0.0000 H   0  0  0  0  0  0  0  0  0  0  0  0
    0.0000    0.0000    0.0000 H   0  0  0  0  0  0  0  0  0  0  0  0
    0.0000    0.0000    0.0000 H   0  0  0  0  0  0  0  0  0  0  0  0
    0.0000    0.0000    0.0000 H   0  0  0  0  0  0  0  0  0  0  0  0
    0.0000    0.0000    0.0000 H   0  0  0  0  0  0  0  0  0  0  0  0
    0.0000    0.0000    0.0000 H   0  0  0  0  0  0  0  0  0  0  0  0
    0.0000    0.0000    0.0000 H   0  0  0  0  0  0  0  0  0  0  0  0
    0.0000    0.0000    0.0000 H   0  0  0  0  0  0  0  0  0  0  0  0
    0.0000    0.0000    0.0000 H   0  0  0  0  0  0  0  0  0  0  0  0
    0.0000    0.0000    0.0000 H   0  0  0  0  0  0  0  0  0  0  0  0
    1.4313   71.4152   27.1500 C   0  0  0  0  0  0  0  0  0  0  0  0
    1.8836   70.5084   28.2364 C   0  0  0  0  0  0  0  0  0  0  0  0
    2.2866   71.3022   25.9064 C   0  0  0  0  0  0  0  0  0  0  0  0
    0.0007   71.1716   26.7293 C   0  0  0  0  0  0  0  0  0  0  0  0
   -0.8725   71.3088   27.8300 O   0  0  0  0  0  0  0  0  0  0  0  0
    2.5645   71.0738   28.9350 H   0  0  0  0  0  0  0  0  0  0  0  0
    1.0636   70.1187   28.8449 H   0  0  0  0  0  0  0  0  0  0  0  0
    2.5226   69.6899   27.8000 H   0  0  0  0  0  0  0  0  0  0  0  0
    1.9065   70.4558   25.2903 H   0  0  0  0  0  0  0  0  0  0  0  0
    2.1211   72.2145   25.3073 H   0  0  0  0  0  0  0  0  0  0  0  0
    3.3514   71.1162   26.1367 H   0  0  0  0  0  0  0  0  0  0  0  0
   -0.1718   70.1889   26.3001 H   0  0  0  0  0  0  0  0  0  0  0  0
   -0.3330   71.9344   25.9976 H   0  0  0  0  0  0  0  0  0  0  0  0
   -1.0581   72.2531   28.0189 H   0  0  0  0  0  0  0  0  0  0  0  0
  1  3  2  0
  1  7  1  0
  2 23  3  0
  3  4  1  0
  3 20  1  0
  4  5  2  0
  4  8  1  0
  5  6  1  0
  6  7  2  0
  6 18  1  0
  7 24  1  0
  8  9  1  0
  9 10  1  0
  9 12  2  0
 10 11  1  0
 11 13  2  0
 11 17  1  0
 13 14  1  0
 14 15  2  0
 15 16  1  0
 15 23  1  0
 16 17  2  0
 16 22  1  0
 18 19  1  0
 20 21  1  0
  1 25  1  0
  5 26  1  0
  8 27  1  0
  8 28  1  0
 10 29  1  0
 17 30  1  0
 19 31  1  0
 19 32  1  0
 19 33  1  0
 21 34  1  0
 21 35  1  0
 21 36  1  0
 22 37  1  0
 22 38  1  0
 39 40  1  0
 39 41  1  0
 39 42  1  0
 42 43  1  0
 40 44  1  0
 40 45  1  0
 40 46  1  0
 41 47  1  0
 41 48  1  0
 41 49  1  0
 42 50  1  0
 42 51  1  0
 43 52  1  0
 14 39  1  0
M  END
>  <attachment_point>  (478) 
29

>  <score>  (478) 
<NA>

$$$$
2gmx
     RDKit          3D

 56 58  0  0  0  0  0  0  0  0999 V2000
    0.6680  149.6310   52.1780 C   0  0  0  0  0  0  0  0  0  0  0  0
    3.0090  140.6200   56.4870 N   0  0  0  0  0  0  0  0  0  0  0  0
    1.9620  149.2640   52.6280 C   0  0  0  0  0  0  0  0  0  0  0  0
    2.4660  149.8330   53.8590 C   0  0  0  0  0  0  0  0  0  0  0  0
    1.6570  150.7410   54.6000 C   0  0  0  0  0  0  0  0  0  0  0  0
    0.3580  151.1130   54.1650 C   0  0  0  0  0  0  0  0  0  0  0  0
   -0.1340  150.5380   52.9220 C   0  0  0  0  0  0  0  0  0  0  0  0
    3.8340  149.4930   54.3900 C   0  0  0  0  0  0  0  0  0  0  0  0
    3.7760  148.3010   55.3550 C   0  0  0  0  0  0  0  0  0  0  0  0
    3.6080  147.1180   54.7070 N   0  0  0  0  0  0  0  0  0  0  0  0
    3.5230  145.8440   55.1920 C   0  0  0  0  0  0  0  0  0  0  0  0
    3.8880  148.4710   56.5680 O   0  0  0  0  0  0  0  0  0  0  0  0
    3.0190  144.9720   54.2890 N   0  0  0  0  0  0  0  0  0  0  0  0
    2.8790  143.6460   54.6100 C   0  0  0  0  0  0  0  0  0  0  0  0
    3.2540  143.1490   55.8980 C   0  0  0  0  0  0  0  0  0  0  0  0
    3.7840  144.0620   56.8580 C   0  0  0  0  0  0  0  0  0  0  0  0
    3.9180  145.4220   56.4980 C   0  0  0  0  0  0  0  0  0  0  0  0
   -0.4210  152.0200   54.9250 O   0  0  0  0  0  0  0  0  0  0  0  0
   -1.4550  151.4120   55.7020 C   0  0  0  0  0  0  0  0  0  0  0  0
    2.7960  148.3740   51.9370 O   0  0  0  0  0  0  0  0  0  0  0  0
    2.1840  147.2640   51.2740 C   0  0  0  0  0  0  0  0  0  0  0  0
    4.1700  143.6740   58.1190 N   0  0  0  0  0  0  0  0  0  0  0  0
    3.1040  141.7440   56.2230 C   0  0  0  0  0  0  0  0  0  0  0  0
   -1.8550  150.9620   52.2300 Br  0  0  0  0  0  0  0  0  0  0  0  0
    0.0000    0.0000    0.0000 H   0  0  0  0  0  0  0  0  0  0  0  0
    0.0000    0.0000    0.0000 H   0  0  0  0  0  0  0  0  0  0  0  0
    0.0000    0.0000    0.0000 H   0  0  0  0  0  0  0  0  0  0  0  0
    0.0000    0.0000    0.0000 H   0  0  0  0  0  0  0  0  0  0  0  0
    0.0000    0.0000    0.0000 H   0  0  0  0  0  0  0  0  0  0  0  0
    0.0000    0.0000    0.0000 H   0  0  0  0  0  0  0  0  0  0  0  0
    0.0000    0.0000    0.0000 H   0  0  0  0  0  0  0  0  0  0  0  0
    0.0000    0.0000    0.0000 H   0  0  0  0  0  0  0  0  0  0  0  0
    0.0000    0.0000    0.0000 H   0  0  0  0  0  0  0  0  0  0  0  0
    0.0000    0.0000    0.0000 H   0  0  0  0  0  0  0  0  0  0  0  0
    0.0000    0.0000    0.0000 H   0  0  0  0  0  0  0  0  0  0  0  0
    0.0000    0.0000    0.0000 H   0  0  0  0  0  0  0  0  0  0  0  0
    0.0000    0.0000    0.0000 H   0  0  0  0  0  0  0  0  0  0  0  0
    0.0000    0.0000    0.0000 H   0  0  0  0  0  0  0  0  0  0  0  0
    1.4313   71.4126   27.1490 C   0  0  0  0  0  0  0  0  0  0  0  0
    1.7158   71.1089   25.8392 C   0  0  0  0  0  0  0  0  0  0  0  0
    1.6800   69.8154   25.3880 C   0  0  0  0  0  0  0  0  0  0  0  0
    1.3488   68.7381   26.2508 C   0  0  0  0  0  0  0  0  0  0  0  0
    1.3345   67.4549   25.7162 N   0  0  0  0  0  0  0  0  0  0  0  0
    1.0428   66.2544   26.3595 C   0  0  0  0  0  0  0  0  0  0  0  0
    1.0642   64.9285   25.6586 C   0  0  0  0  0  0  0  0  0  0  0  0
    0.7489   66.2424   27.5622 O   0  0  0  0  0  0  0  0  0  0  0  0
    1.0652   69.0331   27.5532 C   0  0  0  0  0  0  0  0  0  0  0  0
    1.1136   70.3717   27.9734 C   0  0  0  0  0  0  0  0  0  0  0  0
    1.9660   71.9277   25.1897 H   0  0  0  0  0  0  0  0  0  0  0  0
    1.9112   69.6078   24.3416 H   0  0  0  0  0  0  0  0  0  0  0  0
    1.5758   67.3432   24.6728 H   0  0  0  0  0  0  0  0  0  0  0  0
    0.0387   64.5443   25.5099 H   0  0  0  0  0  0  0  0  0  0  0  0
    1.6123   64.9777   24.7193 H   0  0  0  0  0  0  0  0  0  0  0  0
    1.5958   64.2263   26.3333 H   0  0  0  0  0  0  0  0  0  0  0  0
    0.8093   68.2626   28.2482 H   0  0  0  0  0  0  0  0  0  0  0  0
    0.8822   70.5464   29.0052 H   0  0  0  0  0  0  0  0  0  0  0  0
  1  3  2  0
  1  7  1  0
  2 23  3  0
  3  4  1  0
  3 20  1  0
  4  5  2  0
  4  8  1  0
  5  6  1  0
  6  7  2  0
  6 18  1  0
  7 24  1  0
  8  9  1  0
  9 10  1  0
  9 12  2  0
 10 11  1  0
 11 13  2  0
 11 17  1  0
 13 14  1  0
 14 15  2  0
 15 16  1  0
 15 23  1  0
 16 17  2  0
 16 22  1  0
 18 19  1  0
 20 21  1  0
  1 25  1  0
  5 26  1  0
  8 27  1  0
  8 28  1  0
 10 29  1  0
 17 30  1  0
 19 31  1  0
 19 32  1  0
 19 33  1  0
 21 34  1  0
 21 35  1  0
 21 36  1  0
 22 37  1  0
 22 38  1  0
 39 40  2  0
 40 41  1  0
 41 42  2  0
 42 43  1  0
 43 44  1  0
 44 45  1  0
 44 46  2  0
 42 47  1  0
 47 48  2  0
 48 39  1  0
 40 49  1  0
 41 50  1  0
 43 51  1  0
 45 52  1  0
 45 53  1  0
 45 54  1  0
 47 55  1  0
 48 56  1  0
 14 39  1  0
M  END
>  <attachment_point>  (479) 
29

>  <score>  (479) 
<NA>

$$$$
2gmx
     RDKit          3D

 52 54  0  0  0  0  0  0  0  0999 V2000
    0.6680  149.6310   52.1780 C   0  0  0  0  0  0  0  0  0  0  0  0
    3.0090  140.6200   56.4870 N   0  0  0  0  0  0  0  0  0  0  0  0
    1.9620  149.2640   52.6280 C   0  0  0  0  0  0  0  0  0  0  0  0
    2.4660  149.8330   53.8590 C   0  0  0  0  0  0  0  0  0  0  0  0
    1.6570  150.7410   54.6000 C   0  0  0  0  0  0  0  0  0  0  0  0
    0.3580  151.1130   54.1650 C   0  0  0  0  0  0  0  0  0  0  0  0
   -0.1340  150.5380   52.9220 C   0  0  0  0  0  0  0  0  0  0  0  0
    3.8340  149.4930   54.3900 C   0  0  0  0  0  0  0  0  0  0  0  0
    3.7760  148.3010   55.3550 C   0  0  0  0  0  0  0  0  0  0  0  0
    3.6080  147.1180   54.7070 N   0  0  0  0  0  0  0  0  0  0  0  0
    3.5230  145.8440   55.1920 C   0  0  0  0  0  0  0  0  0  0  0  0
    3.8880  148.4710   56.5680 O   0  0  0  0  0  0  0  0  0  0  0  0
    3.0190  144.9720   54.2890 N   0  0  0  0  0  0  0  0  0  0  0  0
    2.8790  143.6460   54.6100 C   0  0  0  0  0  0  0  0  0  0  0  0
    3.2540  143.1490   55.8980 C   0  0  0  0  0  0  0  0  0  0  0  0
    3.7840  144.0620   56.8580 C   0  0  0  0  0  0  0  0  0  0  0  0
    3.9180  145.4220   56.4980 C   0  0  0  0  0  0  0  0  0  0  0  0
   -0.4210  152.0200   54.9250 O   0  0  0  0  0  0  0  0  0  0  0  0
   -1.4550  151.4120   55.7020 C   0  0  0  0  0  0  0  0  0  0  0  0
    2.7960  148.3740   51.9370 O   0  0  0  0  0  0  0  0  0  0  0  0
    2.1840  147.2640   51.2740 C   0  0  0  0  0  0  0  0  0  0  0  0
    4.1700  143.6740   58.1190 N   0  0  0  0  0  0  0  0  0  0  0  0
    3.1040  141.7440   56.2230 C   0  0  0  0  0  0  0  0  0  0  0  0
   -1.8550  150.9620   52.2300 Br  0  0  0  0  0  0  0  0  0  0  0  0
    0.0000    0.0000    0.0000 H   0  0  0  0  0  0  0  0  0  0  0  0
    0.0000    0.0000    0.0000 H   0  0  0  0  0  0  0  0  0  0  0  0
    0.0000    0.0000    0.0000 H   0  0  0  0  0  0  0  0  0  0  0  0
    0.0000    0.0000    0.0000 H   0  0  0  0  0  0  0  0  0  0  0  0
    0.0000    0.0000    0.0000 H   0  0  0  0  0  0  0  0  0  0  0  0
    0.0000    0.0000    0.0000 H   0  0  0  0  0  0  0  0  0  0  0  0
    0.0000    0.0000    0.0000 H   0  0  0  0  0  0  0  0  0  0  0  0
    0.0000    0.0000    0.0000 H   0  0  0  0  0  0  0  0  0  0  0  0
    0.0000    0.0000    0.0000 H   0  0  0  0  0  0  0  0  0  0  0  0
    0.0000    0.0000    0.0000 H   0  0  0  0  0  0  0  0  0  0  0  0
    0.0000    0.0000    0.0000 H   0  0  0  0  0  0  0  0  0  0  0  0
    0.0000    0.0000    0.0000 H   0  0  0  0  0  0  0  0  0  0  0  0
    0.0000    0.0000    0.0000 H   0  0  0  0  0  0  0  0  0  0  0  0
    0.0000    0.0000    0.0000 H   0  0  0  0  0  0  0  0  0  0  0  0
    1.4308   71.3888   27.1399 N   0  0  0  0  0  0  0  0  0  0  0  0
    2.6221   70.7807   26.7730 C   0  0  0  0  0  0  0  0  0  0  0  0
    3.6861   71.4691   26.9164 O   0  0  0  0  0  0  0  0  0  0  0  0
    2.7284   69.4303   26.2445 C   0  0  0  0  0  0  0  0  0  0  0  0
    3.9767   68.9535   25.9214 C   0  0  0  0  0  0  0  0  0  0  0  0
    4.1546   67.6638   25.4081 C   0  0  0  0  0  0  0  0  0  0  0  0
    3.0628   66.8445   25.2178 C   0  0  0  0  0  0  0  0  0  0  0  0
    1.8294   67.3624   25.5549 C   0  0  0  0  0  0  0  0  0  0  0  0
    1.6725   68.6226   26.0546 N   0  0  0  0  0  0  0  0  0  0  0  0
    0.5267   70.9301   27.0663 H   0  0  0  0  0  0  0  0  0  0  0  0
    4.8658   69.5665   26.0556 H   0  0  0  0  0  0  0  0  0  0  0  0
    5.1285   67.2722   25.1485 H   0  0  0  0  0  0  0  0  0  0  0  0
    3.1441   65.8357   24.8227 H   0  0  0  0  0  0  0  0  0  0  0  0
    0.9159   66.7876   25.4381 H   0  0  0  0  0  0  0  0  0  0  0  0
  1  3  2  0
  1  7  1  0
  2 23  3  0
  3  4  1  0
  3 20  1  0
  4  5  2  0
  4  8  1  0
  5  6  1  0
  6  7  2  0
  6 18  1  0
  7 24  1  0
  8  9  1  0
  9 10  1  0
  9 12  2  0
 10 11  1  0
 11 13  2  0
 11 17  1  0
 13 14  1  0
 14 15  2  0
 15 16  1  0
 15 23  1  0
 16 17  2  0
 16 22  1  0
 18 19  1  0
 20 21  1  0
  1 25  1  0
  5 26  1  0
  8 27  1  0
  8 28  1  0
 10 29  1  0
 17 30  1  0
 19 31  1  0
 19 32  1  0
 19 33  1  0
 21 34  1  0
 21 35  1  0
 21 36  1  0
 22 37  1  0
 22 38  1  0
 39 40  1  0
 40 41  2  0
 40 42  1  0
 42 43  2  0
 43 44  1  0
 44 45  2  0
 45 46  1  0
 46 47  2  0
 47 42  1  0
 39 48  1  0
 43 49  1  0
 44 50  1  0
 45 51  1  0
 46 52  1  0
 14 39  1  0
M  END
>  <attachment_point>  (480) 
29

>  <score>  (480) 
<NA>

$$$$
2gmx
     RDKit          3D

 48 50  0  0  0  0  0  0  0  0999 V2000
    0.6680  149.6310   52.1780 C   0  0  0  0  0  0  0  0  0  0  0  0
    3.0090  140.6200   56.4870 N   0  0  0  0  0  0  0  0  0  0  0  0
    1.9620  149.2640   52.6280 C   0  0  0  0  0  0  0  0  0  0  0  0
    2.4660  149.8330   53.8590 C   0  0  0  0  0  0  0  0  0  0  0  0
    1.6570  150.7410   54.6000 C   0  0  0  0  0  0  0  0  0  0  0  0
    0.3580  151.1130   54.1650 C   0  0  0  0  0  0  0  0  0  0  0  0
   -0.1340  150.5380   52.9220 C   0  0  0  0  0  0  0  0  0  0  0  0
    3.8340  149.4930   54.3900 C   0  0  0  0  0  0  0  0  0  0  0  0
    3.7760  148.3010   55.3550 C   0  0  0  0  0  0  0  0  0  0  0  0
    3.6080  147.1180   54.7070 N   0  0  0  0  0  0  0  0  0  0  0  0
    3.5230  145.8440   55.1920 C   0  0  0  0  0  0  0  0  0  0  0  0
    3.8880  148.4710   56.5680 O   0  0  0  0  0  0  0  0  0  0  0  0
    3.0190  144.9720   54.2890 N   0  0  0  0  0  0  0  0  0  0  0  0
    2.8790  143.6460   54.6100 C   0  0  0  0  0  0  0  0  0  0  0  0
    3.2540  143.1490   55.8980 C   0  0  0  0  0  0  0  0  0  0  0  0
    3.7840  144.0620   56.8580 C   0  0  0  0  0  0  0  0  0  0  0  0
    3.9180  145.4220   56.4980 C   0  0  0  0  0  0  0  0  0  0  0  0
   -0.4210  152.0200   54.9250 O   0  0  0  0  0  0  0  0  0  0  0  0
   -1.4550  151.4120   55.7020 C   0  0  0  0  0  0  0  0  0  0  0  0
    2.7960  148.3740   51.9370 O   0  0  0  0  0  0  0  0  0  0  0  0
    2.1840  147.2640   51.2740 C   0  0  0  0  0  0  0  0  0  0  0  0
    4.1700  143.6740   58.1190 N   0  0  0  0  0  0  0  0  0  0  0  0
    3.1040  141.7440   56.2230 C   0  0  0  0  0  0  0  0  0  0  0  0
   -1.8550  150.9620   52.2300 Br  0  0  0  0  0  0  0  0  0  0  0  0
    0.0000    0.0000    0.0000 H   0  0  0  0  0  0  0  0  0  0  0  0
    0.0000    0.0000    0.0000 H   0  0  0  0  0  0  0  0  0  0  0  0
    0.0000    0.0000    0.0000 H   0  0  0  0  0  0  0  0  0  0  0  0
    0.0000    0.0000    0.0000 H   0  0  0  0  0  0  0  0  0  0  0  0
    0.0000    0.0000    0.0000 H   0  0  0  0  0  0  0  0  0  0  0  0
    0.0000    0.0000    0.0000 H   0  0  0  0  0  0  0  0  0  0  0  0
    0.0000    0.0000    0.0000 H   0  0  0  0  0  0  0  0  0  0  0  0
    0.0000    0.0000    0.0000 H   0  0  0  0  0  0  0  0  0  0  0  0
    0.0000    0.0000    0.0000 H   0  0  0  0  0  0  0  0  0  0  0  0
    0.0000    0.0000    0.0000 H   0  0  0  0  0  0  0  0  0  0  0  0
    0.0000    0.0000    0.0000 H   0  0  0  0  0  0  0  0  0  0  0  0
    0.0000    0.0000    0.0000 H   0  0  0  0  0  0  0  0  0  0  0  0
    0.0000    0.0000    0.0000 H   0  0  0  0  0  0  0  0  0  0  0  0
    0.0000    0.0000    0.0000 H   0  0  0  0  0  0  0  0  0  0  0  0
    1.4319   71.4459   27.1616 N   0  0  0  0  0  0  0  0  0  0  0  0
    1.9147   70.4571   28.1320 C   0  0  0  0  0  0  0  0  0  0  0  0
    0.7885   69.5670   27.6350 C   0  0  0  0  0  0  0  0  0  0  0  0
    0.0937   70.8913   27.3976 C   0  0  0  0  0  0  0  0  0  0  0  0
    2.9259   70.0960   27.9672 H   0  0  0  0  0  0  0  0  0  0  0  0
    1.6649   70.8295   29.1519 H   0  0  0  0  0  0  0  0  0  0  0  0
    0.4104   68.9620   28.4634 H   0  0  0  0  0  0  0  0  0  0  0  0
    0.9730   69.0561   26.6837 H   0  0  0  0  0  0  0  0  0  0  0  0
   -0.3710   71.3367   28.3020 H   0  0  0  0  0  0  0  0  0  0  0  0
   -0.5110   70.9711   26.4957 H   0  0  0  0  0  0  0  0  0  0  0  0
  1  3  2  0
  1  7  1  0
  2 23  3  0
  3  4  1  0
  3 20  1  0
  4  5  2  0
  4  8  1  0
  5  6  1  0
  6  7  2  0
  6 18  1  0
  7 24  1  0
  8  9  1  0
  9 10  1  0
  9 12  2  0
 10 11  1  0
 11 13  2  0
 11 17  1  0
 13 14  1  0
 14 15  2  0
 15 16  1  0
 15 23  1  0
 16 17  2  0
 16 22  1  0
 18 19  1  0
 20 21  1  0
  1 25  1  0
  5 26  1  0
  8 27  1  0
  8 28  1  0
 10 29  1  0
 17 30  1  0
 19 31  1  0
 19 32  1  0
 19 33  1  0
 21 34  1  0
 21 35  1  0
 21 36  1  0
 22 37  1  0
 22 38  1  0
 39 40  1  0
 40 41  1  0
 41 42  1  0
 42 39  1  0
 40 43  1  0
 40 44  1  0
 41 45  1  0
 41 46  1  0
 42 47  1  0
 42 48  1  0
 14 39  1  0
M  END
>  <attachment_point>  (481) 
29

>  <score>  (481) 
<NA>

$$$$
2gmx
     RDKit          3D

 55 57  0  0  0  0  0  0  0  0999 V2000
    0.6680  149.6310   52.1780 C   0  0  0  0  0  0  0  0  0  0  0  0
    3.0090  140.6200   56.4870 N   0  0  0  0  0  0  0  0  0  0  0  0
    1.9620  149.2640   52.6280 C   0  0  0  0  0  0  0  0  0  0  0  0
    2.4660  149.8330   53.8590 C   0  0  0  0  0  0  0  0  0  0  0  0
    1.6570  150.7410   54.6000 C   0  0  0  0  0  0  0  0  0  0  0  0
    0.3580  151.1130   54.1650 C   0  0  0  0  0  0  0  0  0  0  0  0
   -0.1340  150.5380   52.9220 C   0  0  0  0  0  0  0  0  0  0  0  0
    3.8340  149.4930   54.3900 C   0  0  0  0  0  0  0  0  0  0  0  0
    3.7760  148.3010   55.3550 C   0  0  0  0  0  0  0  0  0  0  0  0
    3.6080  147.1180   54.7070 N   0  0  0  0  0  0  0  0  0  0  0  0
    3.5230  145.8440   55.1920 C   0  0  0  0  0  0  0  0  0  0  0  0
    3.8880  148.4710   56.5680 O   0  0  0  0  0  0  0  0  0  0  0  0
    3.0190  144.9720   54.2890 N   0  0  0  0  0  0  0  0  0  0  0  0
    2.8790  143.6460   54.6100 C   0  0  0  0  0  0  0  0  0  0  0  0
    3.2540  143.1490   55.8980 C   0  0  0  0  0  0  0  0  0  0  0  0
    3.7840  144.0620   56.8580 C   0  0  0  0  0  0  0  0  0  0  0  0
    3.9180  145.4220   56.4980 C   0  0  0  0  0  0  0  0  0  0  0  0
   -0.4210  152.0200   54.9250 O   0  0  0  0  0  0  0  0  0  0  0  0
   -1.4550  151.4120   55.7020 C   0  0  0  0  0  0  0  0  0  0  0  0
    2.7960  148.3740   51.9370 O   0  0  0  0  0  0  0  0  0  0  0  0
    2.1840  147.2640   51.2740 C   0  0  0  0  0  0  0  0  0  0  0  0
    4.1700  143.6740   58.1190 N   0  0  0  0  0  0  0  0  0  0  0  0
    3.1040  141.7440   56.2230 C   0  0  0  0  0  0  0  0  0  0  0  0
   -1.8550  150.9620   52.2300 Br  0  0  0  0  0  0  0  0  0  0  0  0
    0.0000    0.0000    0.0000 H   0  0  0  0  0  0  0  0  0  0  0  0
    0.0000    0.0000    0.0000 H   0  0  0  0  0  0  0  0  0  0  0  0
    0.0000    0.0000    0.0000 H   0  0  0  0  0  0  0  0  0  0  0  0
    0.0000    0.0000    0.0000 H   0  0  0  0  0  0  0  0  0  0  0  0
    0.0000    0.0000    0.0000 H   0  0  0  0  0  0  0  0  0  0  0  0
    0.0000    0.0000    0.0000 H   0  0  0  0  0  0  0  0  0  0  0  0
    0.0000    0.0000    0.0000 H   0  0  0  0  0  0  0  0  0  0  0  0
    0.0000    0.0000    0.0000 H   0  0  0  0  0  0  0  0  0  0  0  0
    0.0000    0.0000    0.0000 H   0  0  0  0  0  0  0  0  0  0  0  0
    0.0000    0.0000    0.0000 H   0  0  0  0  0  0  0  0  0  0  0  0
    0.0000    0.0000    0.0000 H   0  0  0  0  0  0  0  0  0  0  0  0
    0.0000    0.0000    0.0000 H   0  0  0  0  0  0  0  0  0  0  0  0
    0.0000    0.0000    0.0000 H   0  0  0  0  0  0  0  0  0  0  0  0
    0.0000    0.0000    0.0000 H   0  0  0  0  0  0  0  0  0  0  0  0
    1.4275   71.2218   27.0764 C   0  0  0  0  0  0  0  0  0  0  0  0
    2.2396   71.5829   25.9326 C   0  0  0  0  0  0  0  0  0  0  0  0
    3.6205   71.5311   25.9196 C   0  0  0  0  0  0  0  0  0  0  0  0
    4.3568   71.8836   24.8095 C   0  0  0  0  0  0  0  0  0  0  0  0
    3.7455   72.3072   23.6530 C   0  0  0  0  0  0  0  0  0  0  0  0
    4.5322   72.6944   22.4366 C   0  0  0  0  0  0  0  0  0  0  0  0
    2.3577   72.3630   23.6556 C   0  0  0  0  0  0  0  0  0  0  0  0
    1.6290   72.0079   24.7719 C   0  0  0  0  0  0  0  0  0  0  0  0
    0.3783   71.4024   27.0330 H   0  0  0  0  0  0  0  0  0  0  0  0
    1.9123   71.0026   28.0016 H   0  0  0  0  0  0  0  0  0  0  0  0
    4.0912   71.1959   26.8359 H   0  0  0  0  0  0  0  0  0  0  0  0
    5.4252   71.8251   24.8528 H   0  0  0  0  0  0  0  0  0  0  0  0
    3.8772   73.3021   21.7668 H   0  0  0  0  0  0  0  0  0  0  0  0
    5.3964   73.3513   22.7160 H   0  0  0  0  0  0  0  0  0  0  0  0
    4.8936   71.7747   21.9643 H   0  0  0  0  0  0  0  0  0  0  0  0
    1.8956   72.6985   22.7368 H   0  0  0  0  0  0  0  0  0  0  0  0
    0.5520   72.0743   24.7071 H   0  0  0  0  0  0  0  0  0  0  0  0
  1  3  2  0
  1  7  1  0
  2 23  3  0
  3  4  1  0
  3 20  1  0
  4  5  2  0
  4  8  1  0
  5  6  1  0
  6  7  2  0
  6 18  1  0
  7 24  1  0
  8  9  1  0
  9 10  1  0
  9 12  2  0
 10 11  1  0
 11 13  2  0
 11 17  1  0
 13 14  1  0
 14 15  2  0
 15 16  1  0
 15 23  1  0
 16 17  2  0
 16 22  1  0
 18 19  1  0
 20 21  1  0
  1 25  1  0
  5 26  1  0
  8 27  1  0
  8 28  1  0
 10 29  1  0
 17 30  1  0
 19 31  1  0
 19 32  1  0
 19 33  1  0
 21 34  1  0
 21 35  1  0
 21 36  1  0
 22 37  1  0
 22 38  1  0
 39 40  1  0
 40 41  2  0
 41 42  1  0
 42 43  2  0
 43 44  1  0
 43 45  1  0
 45 46  2  0
 46 40  1  0
 39 47  1  0
 39 48  1  0
 41 49  1  0
 42 50  1  0
 44 51  1  0
 44 52  1  0
 44 53  1  0
 45 54  1  0
 46 55  1  0
 14 39  1  0
M  END
>  <attachment_point>  (482) 
29

>  <score>  (482) 
<NA>

$$$$
2gmx
     RDKit          3D

 53 55  0  0  0  0  0  0  0  0999 V2000
    0.6680  149.6310   52.1780 C   0  0  0  0  0  0  0  0  0  0  0  0
    3.0090  140.6200   56.4870 N   0  0  0  0  0  0  0  0  0  0  0  0
    1.9620  149.2640   52.6280 C   0  0  0  0  0  0  0  0  0  0  0  0
    2.4660  149.8330   53.8590 C   0  0  0  0  0  0  0  0  0  0  0  0
    1.6570  150.7410   54.6000 C   0  0  0  0  0  0  0  0  0  0  0  0
    0.3580  151.1130   54.1650 C   0  0  0  0  0  0  0  0  0  0  0  0
   -0.1340  150.5380   52.9220 C   0  0  0  0  0  0  0  0  0  0  0  0
    3.8340  149.4930   54.3900 C   0  0  0  0  0  0  0  0  0  0  0  0
    3.7760  148.3010   55.3550 C   0  0  0  0  0  0  0  0  0  0  0  0
    3.6080  147.1180   54.7070 N   0  0  0  0  0  0  0  0  0  0  0  0
    3.5230  145.8440   55.1920 C   0  0  0  0  0  0  0  0  0  0  0  0
    3.8880  148.4710   56.5680 O   0  0  0  0  0  0  0  0  0  0  0  0
    3.0190  144.9720   54.2890 N   0  0  0  0  0  0  0  0  0  0  0  0
    2.8790  143.6460   54.6100 C   0  0  0  0  0  0  0  0  0  0  0  0
    3.2540  143.1490   55.8980 C   0  0  0  0  0  0  0  0  0  0  0  0
    3.7840  144.0620   56.8580 C   0  0  0  0  0  0  0  0  0  0  0  0
    3.9180  145.4220   56.4980 C   0  0  0  0  0  0  0  0  0  0  0  0
   -0.4210  152.0200   54.9250 O   0  0  0  0  0  0  0  0  0  0  0  0
   -1.4550  151.4120   55.7020 C   0  0  0  0  0  0  0  0  0  0  0  0
    2.7960  148.3740   51.9370 O   0  0  0  0  0  0  0  0  0  0  0  0
    2.1840  147.2640   51.2740 C   0  0  0  0  0  0  0  0  0  0  0  0
    4.1700  143.6740   58.1190 N   0  0  0  0  0  0  0  0  0  0  0  0
    3.1040  141.7440   56.2230 C   0  0  0  0  0  0  0  0  0  0  0  0
   -1.8550  150.9620   52.2300 Br  0  0  0  0  0  0  0  0  0  0  0  0
    0.0000    0.0000    0.0000 H   0  0  0  0  0  0  0  0  0  0  0  0
    0.0000    0.0000    0.0000 H   0  0  0  0  0  0  0  0  0  0  0  0
    0.0000    0.0000    0.0000 H   0  0  0  0  0  0  0  0  0  0  0  0
    0.0000    0.0000    0.0000 H   0  0  0  0  0  0  0  0  0  0  0  0
    0.0000    0.0000    0.0000 H   0  0  0  0  0  0  0  0  0  0  0  0
    0.0000    0.0000    0.0000 H   0  0  0  0  0  0  0  0  0  0  0  0
    0.0000    0.0000    0.0000 H   0  0  0  0  0  0  0  0  0  0  0  0
    0.0000    0.0000    0.0000 H   0  0  0  0  0  0  0  0  0  0  0  0
    0.0000    0.0000    0.0000 H   0  0  0  0  0  0  0  0  0  0  0  0
    0.0000    0.0000    0.0000 H   0  0  0  0  0  0  0  0  0  0  0  0
    0.0000    0.0000    0.0000 H   0  0  0  0  0  0  0  0  0  0  0  0
    0.0000    0.0000    0.0000 H   0  0  0  0  0  0  0  0  0  0  0  0
    0.0000    0.0000    0.0000 H   0  0  0  0  0  0  0  0  0  0  0  0
    0.0000    0.0000    0.0000 H   0  0  0  0  0  0  0  0  0  0  0  0
    1.4310   71.3983   27.1436 C   0  0  0  0  0  0  0  0  0  0  0  0
    1.1945   71.1487   25.8146 C   0  0  0  0  0  0  0  0  0  0  0  0
    1.1827   69.8270   25.3901 C   0  0  0  0  0  0  0  0  0  0  0  0
    1.3973   68.7711   26.2451 C   0  0  0  0  0  0  0  0  0  0  0  0
    1.3626   67.4034   25.6854 C   0  0  0  0  0  0  0  0  0  0  0  0
    0.0956   66.8544   25.7225 O   0  0  0  0  0  0  0  0  0  0  0  0
    1.6344   69.0285   27.5790 C   0  0  0  0  0  0  0  0  0  0  0  0
    1.6439   70.3587   27.9939 C   0  0  0  0  0  0  0  0  0  0  0  0
    1.0243   71.9388   25.1236 H   0  0  0  0  0  0  0  0  0  0  0  0
    0.9897   69.6796   24.3210 H   0  0  0  0  0  0  0  0  0  0  0  0
    1.7685   67.4568   24.6336 H   0  0  0  0  0  0  0  0  0  0  0  0
    2.0709   66.7890   26.2528 H   0  0  0  0  0  0  0  0  0  0  0  0
    0.1848   65.9066   25.9963 H   0  0  0  0  0  0  0  0  0  0  0  0
    1.8068   68.2078   28.2732 H   0  0  0  0  0  0  0  0  0  0  0  0
    1.8313   70.5377   29.0409 H   0  0  0  0  0  0  0  0  0  0  0  0
  1  3  2  0
  1  7  1  0
  2 23  3  0
  3  4  1  0
  3 20  1  0
  4  5  2  0
  4  8  1  0
  5  6  1  0
  6  7  2  0
  6 18  1  0
  7 24  1  0
  8  9  1  0
  9 10  1  0
  9 12  2  0
 10 11  1  0
 11 13  2  0
 11 17  1  0
 13 14  1  0
 14 15  2  0
 15 16  1  0
 15 23  1  0
 16 17  2  0
 16 22  1  0
 18 19  1  0
 20 21  1  0
  1 25  1  0
  5 26  1  0
  8 27  1  0
  8 28  1  0
 10 29  1  0
 17 30  1  0
 19 31  1  0
 19 32  1  0
 19 33  1  0
 21 34  1  0
 21 35  1  0
 21 36  1  0
 22 37  1  0
 22 38  1  0
 39 40  2  0
 40 41  1  0
 41 42  2  0
 42 43  1  0
 43 44  1  0
 42 45  1  0
 45 46  2  0
 46 39  1  0
 40 47  1  0
 41 48  1  0
 43 49  1  0
 43 50  1  0
 44 51  1  0
 45 52  1  0
 46 53  1  0
 14 39  1  0
M  END
>  <attachment_point>  (483) 
29

>  <score>  (483) 
<NA>

$$$$
2gmx
     RDKit          3D

 51 52  0  0  0  0  0  0  0  0999 V2000
    0.6680  149.6310   52.1780 C   0  0  0  0  0  0  0  0  0  0  0  0
    3.0090  140.6200   56.4870 N   0  0  0  0  0  0  0  0  0  0  0  0
    1.9620  149.2640   52.6280 C   0  0  0  0  0  0  0  0  0  0  0  0
    2.4660  149.8330   53.8590 C   0  0  0  0  0  0  0  0  0  0  0  0
    1.6570  150.7410   54.6000 C   0  0  0  0  0  0  0  0  0  0  0  0
    0.3580  151.1130   54.1650 C   0  0  0  0  0  0  0  0  0  0  0  0
   -0.1340  150.5380   52.9220 C   0  0  0  0  0  0  0  0  0  0  0  0
    3.8340  149.4930   54.3900 C   0  0  0  0  0  0  0  0  0  0  0  0
    3.7760  148.3010   55.3550 C   0  0  0  0  0  0  0  0  0  0  0  0
    3.6080  147.1180   54.7070 N   0  0  0  0  0  0  0  0  0  0  0  0
    3.5230  145.8440   55.1920 C   0  0  0  0  0  0  0  0  0  0  0  0
    3.8880  148.4710   56.5680 O   0  0  0  0  0  0  0  0  0  0  0  0
    3.0190  144.9720   54.2890 N   0  0  0  0  0  0  0  0  0  0  0  0
    2.8790  143.6460   54.6100 C   0  0  0  0  0  0  0  0  0  0  0  0
    3.2540  143.1490   55.8980 C   0  0  0  0  0  0  0  0  0  0  0  0
    3.7840  144.0620   56.8580 C   0  0  0  0  0  0  0  0  0  0  0  0
    3.9180  145.4220   56.4980 C   0  0  0  0  0  0  0  0  0  0  0  0
   -0.4210  152.0200   54.9250 O   0  0  0  0  0  0  0  0  0  0  0  0
   -1.4550  151.4120   55.7020 C   0  0  0  0  0  0  0  0  0  0  0  0
    2.7960  148.3740   51.9370 O   0  0  0  0  0  0  0  0  0  0  0  0
    2.1840  147.2640   51.2740 C   0  0  0  0  0  0  0  0  0  0  0  0
    4.1700  143.6740   58.1190 N   0  0  0  0  0  0  0  0  0  0  0  0
    3.1040  141.7440   56.2230 C   0  0  0  0  0  0  0  0  0  0  0  0
   -1.8550  150.9620   52.2300 Br  0  0  0  0  0  0  0  0  0  0  0  0
    0.0000    0.0000    0.0000 H   0  0  0  0  0  0  0  0  0  0  0  0
    0.0000    0.0000    0.0000 H   0  0  0  0  0  0  0  0  0  0  0  0
    0.0000    0.0000    0.0000 H   0  0  0  0  0  0  0  0  0  0  0  0
    0.0000    0.0000    0.0000 H   0  0  0  0  0  0  0  0  0  0  0  0
    0.0000    0.0000    0.0000 H   0  0  0  0  0  0  0  0  0  0  0  0
    0.0000    0.0000    0.0000 H   0  0  0  0  0  0  0  0  0  0  0  0
    0.0000    0.0000    0.0000 H   0  0  0  0  0  0  0  0  0  0  0  0
    0.0000    0.0000    0.0000 H   0  0  0  0  0  0  0  0  0  0  0  0
    0.0000    0.0000    0.0000 H   0  0  0  0  0  0  0  0  0  0  0  0
    0.0000    0.0000    0.0000 H   0  0  0  0  0  0  0  0  0  0  0  0
    0.0000    0.0000    0.0000 H   0  0  0  0  0  0  0  0  0  0  0  0
    0.0000    0.0000    0.0000 H   0  0  0  0  0  0  0  0  0  0  0  0
    0.0000    0.0000    0.0000 H   0  0  0  0  0  0  0  0  0  0  0  0
    0.0000    0.0000    0.0000 H   0  0  0  0  0  0  0  0  0  0  0  0
    1.4299   71.3434   27.1227 N   0  0  0  0  0  0  0  0  0  0  0  0
    0.1854   70.8799   26.7963 C   0  0  0  0  0  0  0  0  0  0  0  0
   -0.8982   71.5529   26.9187 O   0  0  0  0  0  0  0  0  0  0  0  0
    0.0401   69.5381   26.2718 N   0  0  0  0  0  0  0  0  0  0  0  0
   -1.2700   69.0333   25.9219 C   0  0  0  0  0  0  0  0  0  0  0  0
   -2.1742   69.0296   27.1110 C   0  0  0  0  0  0  0  0  0  0  0  0
    2.3142   70.9420   27.0786 H   0  0  0  0  0  0  0  0  0  0  0  0
    0.9290   69.0017   26.1773 H   0  0  0  0  0  0  0  0  0  0  0  0
   -1.6891   69.6010   25.0656 H   0  0  0  0  0  0  0  0  0  0  0  0
   -1.0968   67.9924   25.5247 H   0  0  0  0  0  0  0  0  0  0  0  0
   -1.7408   69.6255   27.9382 H   0  0  0  0  0  0  0  0  0  0  0  0
   -2.3026   67.9641   27.4305 H   0  0  0  0  0  0  0  0  0  0  0  0
   -3.1859   69.4216   26.8102 H   0  0  0  0  0  0  0  0  0  0  0  0
  1  3  2  0
  1  7  1  0
  2 23  3  0
  3  4  1  0
  3 20  1  0
  4  5  2  0
  4  8  1  0
  5  6  1  0
  6  7  2  0
  6 18  1  0
  7 24  1  0
  8  9  1  0
  9 10  1  0
  9 12  2  0
 10 11  1  0
 11 13  2  0
 11 17  1  0
 13 14  1  0
 14 15  2  0
 15 16  1  0
 15 23  1  0
 16 17  2  0
 16 22  1  0
 18 19  1  0
 20 21  1  0
  1 25  1  0
  5 26  1  0
  8 27  1  0
  8 28  1  0
 10 29  1  0
 17 30  1  0
 19 31  1  0
 19 32  1  0
 19 33  1  0
 21 34  1  0
 21 35  1  0
 21 36  1  0
 22 37  1  0
 22 38  1  0
 39 40  1  0
 40 41  2  0
 40 42  1  0
 42 43  1  0
 43 44  1  0
 39 45  1  0
 42 46  1  0
 43 47  1  0
 43 48  1  0
 44 49  1  0
 44 50  1  0
 44 51  1  0
 14 39  1  0
M  END
>  <attachment_point>  (484) 
29

>  <score>  (484) 
<NA>

$$$$
2gmx
     RDKit          3D

 55 57  0  0  0  0  0  0  0  0999 V2000
    0.6680  149.6310   52.1780 C   0  0  0  0  0  0  0  0  0  0  0  0
    3.0090  140.6200   56.4870 N   0  0  0  0  0  0  0  0  0  0  0  0
    1.9620  149.2640   52.6280 C   0  0  0  0  0  0  0  0  0  0  0  0
    2.4660  149.8330   53.8590 C   0  0  0  0  0  0  0  0  0  0  0  0
    1.6570  150.7410   54.6000 C   0  0  0  0  0  0  0  0  0  0  0  0
    0.3580  151.1130   54.1650 C   0  0  0  0  0  0  0  0  0  0  0  0
   -0.1340  150.5380   52.9220 C   0  0  0  0  0  0  0  0  0  0  0  0
    3.8340  149.4930   54.3900 C   0  0  0  0  0  0  0  0  0  0  0  0
    3.7760  148.3010   55.3550 C   0  0  0  0  0  0  0  0  0  0  0  0
    3.6080  147.1180   54.7070 N   0  0  0  0  0  0  0  0  0  0  0  0
    3.5230  145.8440   55.1920 C   0  0  0  0  0  0  0  0  0  0  0  0
    3.8880  148.4710   56.5680 O   0  0  0  0  0  0  0  0  0  0  0  0
    3.0190  144.9720   54.2890 N   0  0  0  0  0  0  0  0  0  0  0  0
    2.8790  143.6460   54.6100 C   0  0  0  0  0  0  0  0  0  0  0  0
    3.2540  143.1490   55.8980 C   0  0  0  0  0  0  0  0  0  0  0  0
    3.7840  144.0620   56.8580 C   0  0  0  0  0  0  0  0  0  0  0  0
    3.9180  145.4220   56.4980 C   0  0  0  0  0  0  0  0  0  0  0  0
   -0.4210  152.0200   54.9250 O   0  0  0  0  0  0  0  0  0  0  0  0
   -1.4550  151.4120   55.7020 C   0  0  0  0  0  0  0  0  0  0  0  0
    2.7960  148.3740   51.9370 O   0  0  0  0  0  0  0  0  0  0  0  0
    2.1840  147.2640   51.2740 C   0  0  0  0  0  0  0  0  0  0  0  0
    4.1700  143.6740   58.1190 N   0  0  0  0  0  0  0  0  0  0  0  0
    3.1040  141.7440   56.2230 C   0  0  0  0  0  0  0  0  0  0  0  0
   -1.8550  150.9620   52.2300 Br  0  0  0  0  0  0  0  0  0  0  0  0
    0.0000    0.0000    0.0000 H   0  0  0  0  0  0  0  0  0  0  0  0
    0.0000    0.0000    0.0000 H   0  0  0  0  0  0  0  0  0  0  0  0
    0.0000    0.0000    0.0000 H   0  0  0  0  0  0  0  0  0  0  0  0
    0.0000    0.0000    0.0000 H   0  0  0  0  0  0  0  0  0  0  0  0
    0.0000    0.0000    0.0000 H   0  0  0  0  0  0  0  0  0  0  0  0
    0.0000    0.0000    0.0000 H   0  0  0  0  0  0  0  0  0  0  0  0
    0.0000    0.0000    0.0000 H   0  0  0  0  0  0  0  0  0  0  0  0
    0.0000    0.0000    0.0000 H   0  0  0  0  0  0  0  0  0  0  0  0
    0.0000    0.0000    0.0000 H   0  0  0  0  0  0  0  0  0  0  0  0
    0.0000    0.0000    0.0000 H   0  0  0  0  0  0  0  0  0  0  0  0
    0.0000    0.0000    0.0000 H   0  0  0  0  0  0  0  0  0  0  0  0
    0.0000    0.0000    0.0000 H   0  0  0  0  0  0  0  0  0  0  0  0
    0.0000    0.0000    0.0000 H   0  0  0  0  0  0  0  0  0  0  0  0
    0.0000    0.0000    0.0000 H   0  0  0  0  0  0  0  0  0  0  0  0
    1.4314   71.4184   27.1512 C   0  0  0  0  0  0  0  0  0  0  0  0
    2.3717   70.4766   27.5109 C   0  0  0  0  0  0  0  0  0  0  0  0
    2.3226   69.1813   27.0011 C   0  0  0  0  0  0  0  0  0  0  0  0
    1.3269   68.8207   26.1244 C   0  0  0  0  0  0  0  0  0  0  0  0
    1.2763   67.4571   25.5886 C   0  0  0  0  0  0  0  0  0  0  0  0
    2.1525   66.6244   25.9400 O   0  0  0  0  0  0  0  0  0  0  0  0
    0.3149   67.0336   24.7147 O   0  0  0  0  0  0  0  0  0  0  0  0
    0.2512   65.7112   24.1842 C   0  0  0  0  0  0  0  0  0  0  0  0
    0.4035   69.7866   25.7862 C   0  0  0  0  0  0  0  0  0  0  0  0
    0.4245   71.0743   26.2722 C   0  0  0  0  0  0  0  0  0  0  0  0
    3.1481   70.7751   28.2008 H   0  0  0  0  0  0  0  0  0  0  0  0
    3.0560   68.4436   27.2804 H   0  0  0  0  0  0  0  0  0  0  0  0
    0.7739   65.7465   23.2034 H   0  0  0  0  0  0  0  0  0  0  0  0
   -0.8263   65.5168   23.9401 H   0  0  0  0  0  0  0  0  0  0  0  0
    0.6492   64.9659   24.8737 H   0  0  0  0  0  0  0  0  0  0  0  0
   -0.3808   69.4881   25.0903 H   0  0  0  0  0  0  0  0  0  0  0  0
   -0.3230   71.8201   25.9851 H   0  0  0  0  0  0  0  0  0  0  0  0
  1  3  2  0
  1  7  1  0
  2 23  3  0
  3  4  1  0
  3 20  1  0
  4  5  2  0
  4  8  1  0
  5  6  1  0
  6  7  2  0
  6 18  1  0
  7 24  1  0
  8  9  1  0
  9 10  1  0
  9 12  2  0
 10 11  1  0
 11 13  2  0
 11 17  1  0
 13 14  1  0
 14 15  2  0
 15 16  1  0
 15 23  1  0
 16 17  2  0
 16 22  1  0
 18 19  1  0
 20 21  1  0
  1 25  1  0
  5 26  1  0
  8 27  1  0
  8 28  1  0
 10 29  1  0
 17 30  1  0
 19 31  1  0
 19 32  1  0
 19 33  1  0
 21 34  1  0
 21 35  1  0
 21 36  1  0
 22 37  1  0
 22 38  1  0
 39 40  2  0
 40 41  1  0
 41 42  2  0
 42 43  1  0
 43 44  2  0
 43 45  1  0
 45 46  1  0
 42 47  1  0
 47 48  2  0
 48 39  1  0
 40 49  1  0
 41 50  1  0
 46 51  1  0
 46 52  1  0
 46 53  1  0
 47 54  1  0
 48 55  1  0
 14 39  1  0
M  END
>  <attachment_point>  (485) 
29

>  <score>  (485) 
<NA>

$$$$
2gmx
     RDKit          3D

 50 52  0  0  0  0  0  0  0  0999 V2000
    0.6680  149.6310   52.1780 C   0  0  0  0  0  0  0  0  0  0  0  0
    3.0090  140.6200   56.4870 N   0  0  0  0  0  0  0  0  0  0  0  0
    1.9620  149.2640   52.6280 C   0  0  0  0  0  0  0  0  0  0  0  0
    2.4660  149.8330   53.8590 C   0  0  0  0  0  0  0  0  0  0  0  0
    1.6570  150.7410   54.6000 C   0  0  0  0  0  0  0  0  0  0  0  0
    0.3580  151.1130   54.1650 C   0  0  0  0  0  0  0  0  0  0  0  0
   -0.1340  150.5380   52.9220 C   0  0  0  0  0  0  0  0  0  0  0  0
    3.8340  149.4930   54.3900 C   0  0  0  0  0  0  0  0  0  0  0  0
    3.7760  148.3010   55.3550 C   0  0  0  0  0  0  0  0  0  0  0  0
    3.6080  147.1180   54.7070 N   0  0  0  0  0  0  0  0  0  0  0  0
    3.5230  145.8440   55.1920 C   0  0  0  0  0  0  0  0  0  0  0  0
    3.8880  148.4710   56.5680 O   0  0  0  0  0  0  0  0  0  0  0  0
    3.0190  144.9720   54.2890 N   0  0  0  0  0  0  0  0  0  0  0  0
    2.8790  143.6460   54.6100 C   0  0  0  0  0  0  0  0  0  0  0  0
    3.2540  143.1490   55.8980 C   0  0  0  0  0  0  0  0  0  0  0  0
    3.7840  144.0620   56.8580 C   0  0  0  0  0  0  0  0  0  0  0  0
    3.9180  145.4220   56.4980 C   0  0  0  0  0  0  0  0  0  0  0  0
   -0.4210  152.0200   54.9250 O   0  0  0  0  0  0  0  0  0  0  0  0
   -1.4550  151.4120   55.7020 C   0  0  0  0  0  0  0  0  0  0  0  0
    2.7960  148.3740   51.9370 O   0  0  0  0  0  0  0  0  0  0  0  0
    2.1840  147.2640   51.2740 C   0  0  0  0  0  0  0  0  0  0  0  0
    4.1700  143.6740   58.1190 N   0  0  0  0  0  0  0  0  0  0  0  0
    3.1040  141.7440   56.2230 C   0  0  0  0  0  0  0  0  0  0  0  0
   -1.8550  150.9620   52.2300 Br  0  0  0  0  0  0  0  0  0  0  0  0
    0.0000    0.0000    0.0000 H   0  0  0  0  0  0  0  0  0  0  0  0
    0.0000    0.0000    0.0000 H   0  0  0  0  0  0  0  0  0  0  0  0
    0.0000    0.0000    0.0000 H   0  0  0  0  0  0  0  0  0  0  0  0
    0.0000    0.0000    0.0000 H   0  0  0  0  0  0  0  0  0  0  0  0
    0.0000    0.0000    0.0000 H   0  0  0  0  0  0  0  0  0  0  0  0
    0.0000    0.0000    0.0000 H   0  0  0  0  0  0  0  0  0  0  0  0
    0.0000    0.0000    0.0000 H   0  0  0  0  0  0  0  0  0  0  0  0
    0.0000    0.0000    0.0000 H   0  0  0  0  0  0  0  0  0  0  0  0
    0.0000    0.0000    0.0000 H   0  0  0  0  0  0  0  0  0  0  0  0
    0.0000    0.0000    0.0000 H   0  0  0  0  0  0  0  0  0  0  0  0
    0.0000    0.0000    0.0000 H   0  0  0  0  0  0  0  0  0  0  0  0
    0.0000    0.0000    0.0000 H   0  0  0  0  0  0  0  0  0  0  0  0
    0.0000    0.0000    0.0000 H   0  0  0  0  0  0  0  0  0  0  0  0
    0.0000    0.0000    0.0000 H   0  0  0  0  0  0  0  0  0  0  0  0
    1.4284   71.2669   27.0936 C   0  0  0  0  0  0  0  0  0  0  0  0
    1.4189   70.2223   26.6796 C   0  0  0  0  0  0  0  0  0  0  0  0
    1.4257   68.9079   26.1411 C   0  0  0  0  0  0  0  0  0  0  0  0
    0.4846   68.0057   26.5815 C   0  0  0  0  0  0  0  0  0  0  0  0
    0.4602   66.7318   26.0861 C   0  0  0  0  0  0  0  0  0  0  0  0
    1.4002   66.3827   25.1395 C   0  0  0  0  0  0  0  0  0  0  0  0
    2.3250   67.2607   24.7032 N   0  0  0  0  0  0  0  0  0  0  0  0
    2.3431   68.5077   25.1931 C   0  0  0  0  0  0  0  0  0  0  0  0
   -0.2706   68.2592   27.3312 H   0  0  0  0  0  0  0  0  0  0  0  0
   -0.2966   66.0150   26.4437 H   0  0  0  0  0  0  0  0  0  0  0  0
    1.3435   65.3688   24.7770 H   0  0  0  0  0  0  0  0  0  0  0  0
    3.0698   69.2293   24.8633 H   0  0  0  0  0  0  0  0  0  0  0  0
  1  3  2  0
  1  7  1  0
  2 23  3  0
  3  4  1  0
  3 20  1  0
  4  5  2  0
  4  8  1  0
  5  6  1  0
  6  7  2  0
  6 18  1  0
  7 24  1  0
  8  9  1  0
  9 10  1  0
  9 12  2  0
 10 11  1  0
 11 13  2  0
 11 17  1  0
 13 14  1  0
 14 15  2  0
 15 16  1  0
 15 23  1  0
 16 17  2  0
 16 22  1  0
 18 19  1  0
 20 21  1  0
  1 25  1  0
  5 26  1  0
  8 27  1  0
  8 28  1  0
 10 29  1  0
 17 30  1  0
 19 31  1  0
 19 32  1  0
 19 33  1  0
 21 34  1  0
 21 35  1  0
 21 36  1  0
 22 37  1  0
 22 38  1  0
 39 40  3  0
 40 41  1  0
 41 42  2  0
 42 43  1  0
 43 44  2  0
 44 45  1  0
 45 46  2  0
 46 41  1  0
 42 47  1  0
 43 48  1  0
 44 49  1  0
 46 50  1  0
 14 39  1  0
M  END
>  <attachment_point>  (486) 
29

>  <score>  (486) 
<NA>

$$$$
2gmx
     RDKit          3D

 49 51  0  0  0  0  0  0  0  0999 V2000
    0.6680  149.6310   52.1780 C   0  0  0  0  0  0  0  0  0  0  0  0
    3.0090  140.6200   56.4870 N   0  0  0  0  0  0  0  0  0  0  0  0
    1.9620  149.2640   52.6280 C   0  0  0  0  0  0  0  0  0  0  0  0
    2.4660  149.8330   53.8590 C   0  0  0  0  0  0  0  0  0  0  0  0
    1.6570  150.7410   54.6000 C   0  0  0  0  0  0  0  0  0  0  0  0
    0.3580  151.1130   54.1650 C   0  0  0  0  0  0  0  0  0  0  0  0
   -0.1340  150.5380   52.9220 C   0  0  0  0  0  0  0  0  0  0  0  0
    3.8340  149.4930   54.3900 C   0  0  0  0  0  0  0  0  0  0  0  0
    3.7760  148.3010   55.3550 C   0  0  0  0  0  0  0  0  0  0  0  0
    3.6080  147.1180   54.7070 N   0  0  0  0  0  0  0  0  0  0  0  0
    3.5230  145.8440   55.1920 C   0  0  0  0  0  0  0  0  0  0  0  0
    3.8880  148.4710   56.5680 O   0  0  0  0  0  0  0  0  0  0  0  0
    3.0190  144.9720   54.2890 N   0  0  0  0  0  0  0  0  0  0  0  0
    2.8790  143.6460   54.6100 C   0  0  0  0  0  0  0  0  0  0  0  0
    3.2540  143.1490   55.8980 C   0  0  0  0  0  0  0  0  0  0  0  0
    3.7840  144.0620   56.8580 C   0  0  0  0  0  0  0  0  0  0  0  0
    3.9180  145.4220   56.4980 C   0  0  0  0  0  0  0  0  0  0  0  0
   -0.4210  152.0200   54.9250 O   0  0  0  0  0  0  0  0  0  0  0  0
   -1.4550  151.4120   55.7020 C   0  0  0  0  0  0  0  0  0  0  0  0
    2.7960  148.3740   51.9370 O   0  0  0  0  0  0  0  0  0  0  0  0
    2.1840  147.2640   51.2740 C   0  0  0  0  0  0  0  0  0  0  0  0
    4.1700  143.6740   58.1190 N   0  0  0  0  0  0  0  0  0  0  0  0
    3.1040  141.7440   56.2230 C   0  0  0  0  0  0  0  0  0  0  0  0
   -1.8550  150.9620   52.2300 Br  0  0  0  0  0  0  0  0  0  0  0  0
    0.0000    0.0000    0.0000 H   0  0  0  0  0  0  0  0  0  0  0  0
    0.0000    0.0000    0.0000 H   0  0  0  0  0  0  0  0  0  0  0  0
    0.0000    0.0000    0.0000 H   0  0  0  0  0  0  0  0  0  0  0  0
    0.0000    0.0000    0.0000 H   0  0  0  0  0  0  0  0  0  0  0  0
    0.0000    0.0000    0.0000 H   0  0  0  0  0  0  0  0  0  0  0  0
    0.0000    0.0000    0.0000 H   0  0  0  0  0  0  0  0  0  0  0  0
    0.0000    0.0000    0.0000 H   0  0  0  0  0  0  0  0  0  0  0  0
    0.0000    0.0000    0.0000 H   0  0  0  0  0  0  0  0  0  0  0  0
    0.0000    0.0000    0.0000 H   0  0  0  0  0  0  0  0  0  0  0  0
    0.0000    0.0000    0.0000 H   0  0  0  0  0  0  0  0  0  0  0  0
    0.0000    0.0000    0.0000 H   0  0  0  0  0  0  0  0  0  0  0  0
    0.0000    0.0000    0.0000 H   0  0  0  0  0  0  0  0  0  0  0  0
    0.0000    0.0000    0.0000 H   0  0  0  0  0  0  0  0  0  0  0  0
    0.0000    0.0000    0.0000 H   0  0  0  0  0  0  0  0  0  0  0  0
    1.4321   71.4536   27.1646 C   0  0  2  0  0  0  0  0  0  0  0  0
    1.1610   70.3976   28.2489 C   0  0  0  0  0  0  0  0  0  0  0  0
    2.4681   69.9254   28.4683 O   0  0  0  0  0  0  0  0  0  0  0  0
    3.2170   70.0504   27.3148 C   0  0  0  0  0  0  0  0  0  0  0  0
    4.4414   69.3362   26.9935 N   0  0  0  0  0  0  0  0  0  0  0  0
    2.6340   70.9182   26.5685 N   0  0  0  0  0  0  0  0  0  0  0  0
    0.6269   71.3445   26.3829 H   0  0  0  0  0  0  0  0  0  0  0  0
    0.5793   69.5786   27.8006 H   0  0  0  0  0  0  0  0  0  0  0  0
    0.7003   70.8504   29.1400 H   0  0  0  0  0  0  0  0  0  0  0  0
    5.1586   69.1926   27.7359 H   0  0  0  0  0  0  0  0  0  0  0  0
    4.6414   68.9570   26.0515 H   0  0  0  0  0  0  0  0  0  0  0  0
  1  3  2  0
  1  7  1  0
  2 23  3  0
  3  4  1  0
  3 20  1  0
  4  5  2  0
  4  8  1  0
  5  6  1  0
  6  7  2  0
  6 18  1  0
  7 24  1  0
  8  9  1  0
  9 10  1  0
  9 12  2  0
 10 11  1  0
 11 13  2  0
 11 17  1  0
 13 14  1  0
 14 15  2  0
 15 16  1  0
 15 23  1  0
 16 17  2  0
 16 22  1  0
 18 19  1  0
 20 21  1  0
  1 25  1  0
  5 26  1  0
  8 27  1  0
  8 28  1  0
 10 29  1  0
 17 30  1  0
 19 31  1  0
 19 32  1  0
 19 33  1  0
 21 34  1  0
 21 35  1  0
 21 36  1  0
 22 37  1  0
 22 38  1  0
 39 40  1  0
 40 41  1  0
 41 42  1  0
 42 43  1  0
 42 44  2  0
 44 39  1  0
 39 45  1  1
 40 46  1  0
 40 47  1  0
 43 48  1  0
 43 49  1  0
 14 39  1  0
M  END
>  <attachment_point>  (487) 
29

>  <score>  (487) 
<NA>

$$$$
2gmx
     RDKit          3D

 62 65  0  0  0  0  0  0  0  0999 V2000
    0.6680  149.6310   52.1780 C   0  0  0  0  0  0  0  0  0  0  0  0
    3.0090  140.6200   56.4870 N   0  0  0  0  0  0  0  0  0  0  0  0
    1.9620  149.2640   52.6280 C   0  0  0  0  0  0  0  0  0  0  0  0
    2.4660  149.8330   53.8590 C   0  0  0  0  0  0  0  0  0  0  0  0
    1.6570  150.7410   54.6000 C   0  0  0  0  0  0  0  0  0  0  0  0
    0.3580  151.1130   54.1650 C   0  0  0  0  0  0  0  0  0  0  0  0
   -0.1340  150.5380   52.9220 C   0  0  0  0  0  0  0  0  0  0  0  0
    3.8340  149.4930   54.3900 C   0  0  0  0  0  0  0  0  0  0  0  0
    3.7760  148.3010   55.3550 C   0  0  0  0  0  0  0  0  0  0  0  0
    3.6080  147.1180   54.7070 N   0  0  0  0  0  0  0  0  0  0  0  0
    3.5230  145.8440   55.1920 C   0  0  0  0  0  0  0  0  0  0  0  0
    3.8880  148.4710   56.5680 O   0  0  0  0  0  0  0  0  0  0  0  0
    3.0190  144.9720   54.2890 N   0  0  0  0  0  0  0  0  0  0  0  0
    2.8790  143.6460   54.6100 C   0  0  0  0  0  0  0  0  0  0  0  0
    3.2540  143.1490   55.8980 C   0  0  0  0  0  0  0  0  0  0  0  0
    3.7840  144.0620   56.8580 C   0  0  0  0  0  0  0  0  0  0  0  0
    3.9180  145.4220   56.4980 C   0  0  0  0  0  0  0  0  0  0  0  0
   -0.4210  152.0200   54.9250 O   0  0  0  0  0  0  0  0  0  0  0  0
   -1.4550  151.4120   55.7020 C   0  0  0  0  0  0  0  0  0  0  0  0
    2.7960  148.3740   51.9370 O   0  0  0  0  0  0  0  0  0  0  0  0
    2.1840  147.2640   51.2740 C   0  0  0  0  0  0  0  0  0  0  0  0
    4.1700  143.6740   58.1190 N   0  0  0  0  0  0  0  0  0  0  0  0
    3.1040  141.7440   56.2230 C   0  0  0  0  0  0  0  0  0  0  0  0
   -1.8550  150.9620   52.2300 Br  0  0  0  0  0  0  0  0  0  0  0  0
    0.0000    0.0000    0.0000 H   0  0  0  0  0  0  0  0  0  0  0  0
    0.0000    0.0000    0.0000 H   0  0  0  0  0  0  0  0  0  0  0  0
    0.0000    0.0000    0.0000 H   0  0  0  0  0  0  0  0  0  0  0  0
    0.0000    0.0000    0.0000 H   0  0  0  0  0  0  0  0  0  0  0  0
    0.0000    0.0000    0.0000 H   0  0  0  0  0  0  0  0  0  0  0  0
    0.0000    0.0000    0.0000 H   0  0  0  0  0  0  0  0  0  0  0  0
    0.0000    0.0000    0.0000 H   0  0  0  0  0  0  0  0  0  0  0  0
    0.0000    0.0000    0.0000 H   0  0  0  0  0  0  0  0  0  0  0  0
    0.0000    0.0000    0.0000 H   0  0  0  0  0  0  0  0  0  0  0  0
    0.0000    0.0000    0.0000 H   0  0  0  0  0  0  0  0  0  0  0  0
    0.0000    0.0000    0.0000 H   0  0  0  0  0  0  0  0  0  0  0  0
    0.0000    0.0000    0.0000 H   0  0  0  0  0  0  0  0  0  0  0  0
    0.0000    0.0000    0.0000 H   0  0  0  0  0  0  0  0  0  0  0  0
    0.0000    0.0000    0.0000 H   0  0  0  0  0  0  0  0  0  0  0  0
    1.4309   71.3917   27.1410 C   0  0  0  0  0  0  0  0  0  0  0  0
    0.5569   70.4908   27.6636 C   0  0  0  0  0  0  0  0  0  0  0  0
    0.5434   69.1866   27.1551 C   0  0  0  0  0  0  0  0  0  0  0  0
    1.3939   68.8224   26.1494 C   0  0  0  0  0  0  0  0  0  0  0  0
    1.4006   67.5121   25.6199 N   0  0  0  0  0  0  0  0  0  0  0  0
    0.4944   66.5395   26.2029 C   0  0  0  0  0  0  0  0  0  0  0  0
    0.9622   65.1748   25.8229 C   0  0  0  0  0  0  0  0  0  0  0  0
    1.1375   65.0842   24.4466 O   0  0  0  0  0  0  0  0  0  0  0  0
    2.1864   65.8334   23.9802 C   0  0  0  0  0  0  0  0  0  0  0  0
    2.2954   67.2047   24.5367 C   0  0  0  0  0  0  0  0  0  0  0  0
    2.2648   69.7559   25.6429 C   0  0  0  0  0  0  0  0  0  0  0  0
    2.2906   71.0608   26.1393 C   0  0  0  0  0  0  0  0  0  0  0  0
   -0.1158   70.7898   28.4637 H   0  0  0  0  0  0  0  0  0  0  0  0
   -0.1636   68.4866   27.5888 H   0  0  0  0  0  0  0  0  0  0  0  0
   -0.5433   66.7283   25.8783 H   0  0  0  0  0  0  0  0  0  0  0  0
    0.5689   66.6076   27.3242 H   0  0  0  0  0  0  0  0  0  0  0  0
    0.1506   64.4529   26.0847 H   0  0  0  0  0  0  0  0  0  0  0  0
    1.8677   64.8880   26.3868 H   0  0  0  0  0  0  0  0  0  0  0  0
    2.0401   65.9330   22.8641 H   0  0  0  0  0  0  0  0  0  0  0  0
    3.1728   65.2969   24.0679 H   0  0  0  0  0  0  0  0  0  0  0  0
    3.3296   67.3869   24.9060 H   0  0  0  0  0  0  0  0  0  0  0  0
    2.1197   68.0019   23.7554 H   0  0  0  0  0  0  0  0  0  0  0  0
    2.9442   69.5037   24.8556 H   0  0  0  0  0  0  0  0  0  0  0  0
    2.9753   71.7944   25.7409 H   0  0  0  0  0  0  0  0  0  0  0  0
  1  3  2  0
  1  7  1  0
  2 23  3  0
  3  4  1  0
  3 20  1  0
  4  5  2  0
  4  8  1  0
  5  6  1  0
  6  7  2  0
  6 18  1  0
  7 24  1  0
  8  9  1  0
  9 10  1  0
  9 12  2  0
 10 11  1  0
 11 13  2  0
 11 17  1  0
 13 14  1  0
 14 15  2  0
 15 16  1  0
 15 23  1  0
 16 17  2  0
 16 22  1  0
 18 19  1  0
 20 21  1  0
  1 25  1  0
  5 26  1  0
  8 27  1  0
  8 28  1  0
 10 29  1  0
 17 30  1  0
 19 31  1  0
 19 32  1  0
 19 33  1  0
 21 34  1  0
 21 35  1  0
 21 36  1  0
 22 37  1  0
 22 38  1  0
 39 40  2  0
 40 41  1  0
 41 42  2  0
 42 43  1  0
 43 44  1  0
 44 45  1  0
 45 46  1  0
 46 47  1  0
 47 48  1  0
 42 49  1  0
 49 50  2  0
 50 39  1  0
 48 43  1  0
 40 51  1  0
 41 52  1  0
 44 53  1  0
 44 54  1  0
 45 55  1  0
 45 56  1  0
 47 57  1  0
 47 58  1  0
 48 59  1  0
 48 60  1  0
 49 61  1  0
 50 62  1  0
 14 39  1  0
M  END
>  <attachment_point>  (488) 
29

>  <score>  (488) 
<NA>

$$$$
2gmx
     RDKit          3D

 53 55  0  0  0  0  0  0  0  0999 V2000
    0.6680  149.6310   52.1780 C   0  0  0  0  0  0  0  0  0  0  0  0
    3.0090  140.6200   56.4870 N   0  0  0  0  0  0  0  0  0  0  0  0
    1.9620  149.2640   52.6280 C   0  0  0  0  0  0  0  0  0  0  0  0
    2.4660  149.8330   53.8590 C   0  0  0  0  0  0  0  0  0  0  0  0
    1.6570  150.7410   54.6000 C   0  0  0  0  0  0  0  0  0  0  0  0
    0.3580  151.1130   54.1650 C   0  0  0  0  0  0  0  0  0  0  0  0
   -0.1340  150.5380   52.9220 C   0  0  0  0  0  0  0  0  0  0  0  0
    3.8340  149.4930   54.3900 C   0  0  0  0  0  0  0  0  0  0  0  0
    3.7760  148.3010   55.3550 C   0  0  0  0  0  0  0  0  0  0  0  0
    3.6080  147.1180   54.7070 N   0  0  0  0  0  0  0  0  0  0  0  0
    3.5230  145.8440   55.1920 C   0  0  0  0  0  0  0  0  0  0  0  0
    3.8880  148.4710   56.5680 O   0  0  0  0  0  0  0  0  0  0  0  0
    3.0190  144.9720   54.2890 N   0  0  0  0  0  0  0  0  0  0  0  0
    2.8790  143.6460   54.6100 C   0  0  0  0  0  0  0  0  0  0  0  0
    3.2540  143.1490   55.8980 C   0  0  0  0  0  0  0  0  0  0  0  0
    3.7840  144.0620   56.8580 C   0  0  0  0  0  0  0  0  0  0  0  0
    3.9180  145.4220   56.4980 C   0  0  0  0  0  0  0  0  0  0  0  0
   -0.4210  152.0200   54.9250 O   0  0  0  0  0  0  0  0  0  0  0  0
   -1.4550  151.4120   55.7020 C   0  0  0  0  0  0  0  0  0  0  0  0
    2.7960  148.3740   51.9370 O   0  0  0  0  0  0  0  0  0  0  0  0
    2.1840  147.2640   51.2740 C   0  0  0  0  0  0  0  0  0  0  0  0
    4.1700  143.6740   58.1190 N   0  0  0  0  0  0  0  0  0  0  0  0
    3.1040  141.7440   56.2230 C   0  0  0  0  0  0  0  0  0  0  0  0
   -1.8550  150.9620   52.2300 Br  0  0  0  0  0  0  0  0  0  0  0  0
    0.0000    0.0000    0.0000 H   0  0  0  0  0  0  0  0  0  0  0  0
    0.0000    0.0000    0.0000 H   0  0  0  0  0  0  0  0  0  0  0  0
    0.0000    0.0000    0.0000 H   0  0  0  0  0  0  0  0  0  0  0  0
    0.0000    0.0000    0.0000 H   0  0  0  0  0  0  0  0  0  0  0  0
    0.0000    0.0000    0.0000 H   0  0  0  0  0  0  0  0  0  0  0  0
    0.0000    0.0000    0.0000 H   0  0  0  0  0  0  0  0  0  0  0  0
    0.0000    0.0000    0.0000 H   0  0  0  0  0  0  0  0  0  0  0  0
    0.0000    0.0000    0.0000 H   0  0  0  0  0  0  0  0  0  0  0  0
    0.0000    0.0000    0.0000 H   0  0  0  0  0  0  0  0  0  0  0  0
    0.0000    0.0000    0.0000 H   0  0  0  0  0  0  0  0  0  0  0  0
    0.0000    0.0000    0.0000 H   0  0  0  0  0  0  0  0  0  0  0  0
    0.0000    0.0000    0.0000 H   0  0  0  0  0  0  0  0  0  0  0  0
    0.0000    0.0000    0.0000 H   0  0  0  0  0  0  0  0  0  0  0  0
    0.0000    0.0000    0.0000 H   0  0  0  0  0  0  0  0  0  0  0  0
    1.4286   71.2786   27.0980 S   0  0  0  0  0  0  0  0  0  0  0  0
    0.4657   70.6148   28.4843 C   0  0  0  0  0  0  0  0  0  0  0  0
   -0.9031   71.1963   28.4903 C   0  0  0  0  0  0  0  0  0  0  0  0
   -1.9223   70.5509   27.7828 C   0  0  0  0  0  0  0  0  0  0  0  0
   -3.1999   71.0764   27.7769 C   0  0  0  0  0  0  0  0  0  0  0  0
   -3.5255   72.2338   28.4510 C   0  0  0  0  0  0  0  0  0  0  0  0
   -2.5179   72.8656   29.1463 C   0  0  0  0  0  0  0  0  0  0  0  0
   -1.2219   72.3551   29.1673 C   0  0  0  0  0  0  0  0  0  0  0  0
    0.9961   70.8454   29.4248 H   0  0  0  0  0  0  0  0  0  0  0  0
    0.3578   69.5398   28.3083 H   0  0  0  0  0  0  0  0  0  0  0  0
   -1.6514   69.6428   27.2580 H   0  0  0  0  0  0  0  0  0  0  0  0
   -3.9594   70.5487   27.2183 H   0  0  0  0  0  0  0  0  0  0  0  0
   -4.5129   72.6717   28.4678 H   0  0  0  0  0  0  0  0  0  0  0  0
   -2.6597   73.7821   29.7124 H   0  0  0  0  0  0  0  0  0  0  0  0
   -0.4192   72.8402   29.7086 H   0  0  0  0  0  0  0  0  0  0  0  0
  1  3  2  0
  1  7  1  0
  2 23  3  0
  3  4  1  0
  3 20  1  0
  4  5  2  0
  4  8  1  0
  5  6  1  0
  6  7  2  0
  6 18  1  0
  7 24  1  0
  8  9  1  0
  9 10  1  0
  9 12  2  0
 10 11  1  0
 11 13  2  0
 11 17  1  0
 13 14  1  0
 14 15  2  0
 15 16  1  0
 15 23  1  0
 16 17  2  0
 16 22  1  0
 18 19  1  0
 20 21  1  0
  1 25  1  0
  5 26  1  0
  8 27  1  0
  8 28  1  0
 10 29  1  0
 17 30  1  0
 19 31  1  0
 19 32  1  0
 19 33  1  0
 21 34  1  0
 21 35  1  0
 21 36  1  0
 22 37  1  0
 22 38  1  0
 39 40  1  0
 40 41  1  0
 41 42  2  0
 42 43  1  0
 43 44  2  0
 44 45  1  0
 45 46  2  0
 46 41  1  0
 40 47  1  0
 40 48  1  0
 42 49  1  0
 43 50  1  0
 44 51  1  0
 45 52  1  0
 46 53  1  0
 14 39  1  0
M  END
>  <attachment_point>  (489) 
29

>  <score>  (489) 
<NA>

$$$$
2gmx
     RDKit          3D

 54 56  0  0  0  0  0  0  0  0999 V2000
    0.6680  149.6310   52.1780 C   0  0  0  0  0  0  0  0  0  0  0  0
    3.0090  140.6200   56.4870 N   0  0  0  0  0  0  0  0  0  0  0  0
    1.9620  149.2640   52.6280 C   0  0  0  0  0  0  0  0  0  0  0  0
    2.4660  149.8330   53.8590 C   0  0  0  0  0  0  0  0  0  0  0  0
    1.6570  150.7410   54.6000 C   0  0  0  0  0  0  0  0  0  0  0  0
    0.3580  151.1130   54.1650 C   0  0  0  0  0  0  0  0  0  0  0  0
   -0.1340  150.5380   52.9220 C   0  0  0  0  0  0  0  0  0  0  0  0
    3.8340  149.4930   54.3900 C   0  0  0  0  0  0  0  0  0  0  0  0
    3.7760  148.3010   55.3550 C   0  0  0  0  0  0  0  0  0  0  0  0
    3.6080  147.1180   54.7070 N   0  0  0  0  0  0  0  0  0  0  0  0
    3.5230  145.8440   55.1920 C   0  0  0  0  0  0  0  0  0  0  0  0
    3.8880  148.4710   56.5680 O   0  0  0  0  0  0  0  0  0  0  0  0
    3.0190  144.9720   54.2890 N   0  0  0  0  0  0  0  0  0  0  0  0
    2.8790  143.6460   54.6100 C   0  0  0  0  0  0  0  0  0  0  0  0
    3.2540  143.1490   55.8980 C   0  0  0  0  0  0  0  0  0  0  0  0
    3.7840  144.0620   56.8580 C   0  0  0  0  0  0  0  0  0  0  0  0
    3.9180  145.4220   56.4980 C   0  0  0  0  0  0  0  0  0  0  0  0
   -0.4210  152.0200   54.9250 O   0  0  0  0  0  0  0  0  0  0  0  0
   -1.4550  151.4120   55.7020 C   0  0  0  0  0  0  0  0  0  0  0  0
    2.7960  148.3740   51.9370 O   0  0  0  0  0  0  0  0  0  0  0  0
    2.1840  147.2640   51.2740 C   0  0  0  0  0  0  0  0  0  0  0  0
    4.1700  143.6740   58.1190 N   0  0  0  0  0  0  0  0  0  0  0  0
    3.1040  141.7440   56.2230 C   0  0  0  0  0  0  0  0  0  0  0  0
   -1.8550  150.9620   52.2300 Br  0  0  0  0  0  0  0  0  0  0  0  0
    0.0000    0.0000    0.0000 H   0  0  0  0  0  0  0  0  0  0  0  0
    0.0000    0.0000    0.0000 H   0  0  0  0  0  0  0  0  0  0  0  0
    0.0000    0.0000    0.0000 H   0  0  0  0  0  0  0  0  0  0  0  0
    0.0000    0.0000    0.0000 H   0  0  0  0  0  0  0  0  0  0  0  0
    0.0000    0.0000    0.0000 H   0  0  0  0  0  0  0  0  0  0  0  0
    0.0000    0.0000    0.0000 H   0  0  0  0  0  0  0  0  0  0  0  0
    0.0000    0.0000    0.0000 H   0  0  0  0  0  0  0  0  0  0  0  0
    0.0000    0.0000    0.0000 H   0  0  0  0  0  0  0  0  0  0  0  0
    0.0000    0.0000    0.0000 H   0  0  0  0  0  0  0  0  0  0  0  0
    0.0000    0.0000    0.0000 H   0  0  0  0  0  0  0  0  0  0  0  0
    0.0000    0.0000    0.0000 H   0  0  0  0  0  0  0  0  0  0  0  0
    0.0000    0.0000    0.0000 H   0  0  0  0  0  0  0  0  0  0  0  0
    0.0000    0.0000    0.0000 H   0  0  0  0  0  0  0  0  0  0  0  0
    0.0000    0.0000    0.0000 H   0  0  0  0  0  0  0  0  0  0  0  0
    1.4321   71.4519   27.1639 N   0  0  0  0  0  0  0  0  0  0  0  0
    2.5372   70.8967   26.4368 C   0  0  0  0  0  0  0  0  0  0  0  0
    0.2765   70.6530   27.3868 C   0  0  0  0  0  0  0  0  0  0  0  0
    0.2009   69.3585   26.9176 C   0  0  0  0  0  0  0  0  0  0  0  0
   -0.9385   68.5915   27.1453 C   0  0  0  0  0  0  0  0  0  0  0  0
   -2.0221   69.0886   27.8399 C   0  0  0  0  0  0  0  0  0  0  0  0
   -1.9294   70.3837   28.3015 C   0  0  0  0  0  0  0  0  0  0  0  0
   -0.8064   71.1562   28.0834 C   0  0  0  0  0  0  0  0  0  0  0  0
    3.1360   70.2274   27.0825 H   0  0  0  0  0  0  0  0  0  0  0  0
    3.2244   71.7441   26.1435 H   0  0  0  0  0  0  0  0  0  0  0  0
    2.1916   70.3924   25.5004 H   0  0  0  0  0  0  0  0  0  0  0  0
    1.0444   68.9430   26.3658 H   0  0  0  0  0  0  0  0  0  0  0  0
   -0.9932   67.5769   26.7754 H   0  0  0  0  0  0  0  0  0  0  0  0
   -2.9209   68.5061   28.0284 H   0  0  0  0  0  0  0  0  0  0  0  0
   -2.7905   70.7736   28.8515 H   0  0  0  0  0  0  0  0  0  0  0  0
   -0.7389   72.1817   28.4516 H   0  0  0  0  0  0  0  0  0  0  0  0
  1  3  2  0
  1  7  1  0
  2 23  3  0
  3  4  1  0
  3 20  1  0
  4  5  2  0
  4  8  1  0
  5  6  1  0
  6  7  2  0
  6 18  1  0
  7 24  1  0
  8  9  1  0
  9 10  1  0
  9 12  2  0
 10 11  1  0
 11 13  2  0
 11 17  1  0
 13 14  1  0
 14 15  2  0
 15 16  1  0
 15 23  1  0
 16 17  2  0
 16 22  1  0
 18 19  1  0
 20 21  1  0
  1 25  1  0
  5 26  1  0
  8 27  1  0
  8 28  1  0
 10 29  1  0
 17 30  1  0
 19 31  1  0
 19 32  1  0
 19 33  1  0
 21 34  1  0
 21 35  1  0
 21 36  1  0
 22 37  1  0
 22 38  1  0
 39 40  1  0
 39 41  1  0
 41 42  2  0
 42 43  1  0
 43 44  2  0
 44 45  1  0
 45 46  2  0
 46 41  1  0
 40 47  1  0
 40 48  1  0
 40 49  1  0
 42 50  1  0
 43 51  1  0
 44 52  1  0
 45 53  1  0
 46 54  1  0
 14 39  1  0
M  END
>  <attachment_point>  (490) 
29

>  <score>  (490) 
<NA>

$$$$
2gmx
     RDKit          3D

 57 59  0  0  0  0  0  0  0  0999 V2000
    0.6680  149.6310   52.1780 C   0  0  0  0  0  0  0  0  0  0  0  0
    3.0090  140.6200   56.4870 N   0  0  0  0  0  0  0  0  0  0  0  0
    1.9620  149.2640   52.6280 C   0  0  0  0  0  0  0  0  0  0  0  0
    2.4660  149.8330   53.8590 C   0  0  0  0  0  0  0  0  0  0  0  0
    1.6570  150.7410   54.6000 C   0  0  0  0  0  0  0  0  0  0  0  0
    0.3580  151.1130   54.1650 C   0  0  0  0  0  0  0  0  0  0  0  0
   -0.1340  150.5380   52.9220 C   0  0  0  0  0  0  0  0  0  0  0  0
    3.8340  149.4930   54.3900 C   0  0  0  0  0  0  0  0  0  0  0  0
    3.7760  148.3010   55.3550 C   0  0  0  0  0  0  0  0  0  0  0  0
    3.6080  147.1180   54.7070 N   0  0  0  0  0  0  0  0  0  0  0  0
    3.5230  145.8440   55.1920 C   0  0  0  0  0  0  0  0  0  0  0  0
    3.8880  148.4710   56.5680 O   0  0  0  0  0  0  0  0  0  0  0  0
    3.0190  144.9720   54.2890 N   0  0  0  0  0  0  0  0  0  0  0  0
    2.8790  143.6460   54.6100 C   0  0  0  0  0  0  0  0  0  0  0  0
    3.2540  143.1490   55.8980 C   0  0  0  0  0  0  0  0  0  0  0  0
    3.7840  144.0620   56.8580 C   0  0  0  0  0  0  0  0  0  0  0  0
    3.9180  145.4220   56.4980 C   0  0  0  0  0  0  0  0  0  0  0  0
   -0.4210  152.0200   54.9250 O   0  0  0  0  0  0  0  0  0  0  0  0
   -1.4550  151.4120   55.7020 C   0  0  0  0  0  0  0  0  0  0  0  0
    2.7960  148.3740   51.9370 O   0  0  0  0  0  0  0  0  0  0  0  0
    2.1840  147.2640   51.2740 C   0  0  0  0  0  0  0  0  0  0  0  0
    4.1700  143.6740   58.1190 N   0  0  0  0  0  0  0  0  0  0  0  0
    3.1040  141.7440   56.2230 C   0  0  0  0  0  0  0  0  0  0  0  0
   -1.8550  150.9620   52.2300 Br  0  0  0  0  0  0  0  0  0  0  0  0
    0.0000    0.0000    0.0000 H   0  0  0  0  0  0  0  0  0  0  0  0
    0.0000    0.0000    0.0000 H   0  0  0  0  0  0  0  0  0  0  0  0
    0.0000    0.0000    0.0000 H   0  0  0  0  0  0  0  0  0  0  0  0
    0.0000    0.0000    0.0000 H   0  0  0  0  0  0  0  0  0  0  0  0
    0.0000    0.0000    0.0000 H   0  0  0  0  0  0  0  0  0  0  0  0
    0.0000    0.0000    0.0000 H   0  0  0  0  0  0  0  0  0  0  0  0
    0.0000    0.0000    0.0000 H   0  0  0  0  0  0  0  0  0  0  0  0
    0.0000    0.0000    0.0000 H   0  0  0  0  0  0  0  0  0  0  0  0
    0.0000    0.0000    0.0000 H   0  0  0  0  0  0  0  0  0  0  0  0
    0.0000    0.0000    0.0000 H   0  0  0  0  0  0  0  0  0  0  0  0
    0.0000    0.0000    0.0000 H   0  0  0  0  0  0  0  0  0  0  0  0
    0.0000    0.0000    0.0000 H   0  0  0  0  0  0  0  0  0  0  0  0
    0.0000    0.0000    0.0000 H   0  0  0  0  0  0  0  0  0  0  0  0
    0.0000    0.0000    0.0000 H   0  0  0  0  0  0  0  0  0  0  0  0
    1.4314   71.4186   27.1513 C   0  0  0  0  0  0  0  0  0  0  0  0
    2.6076   70.8110   26.8315 C   0  0  0  0  0  0  0  0  0  0  0  0
    2.5735   69.5241   26.3429 C   0  0  0  0  0  0  0  0  0  0  0  0
    3.7496   68.8842   26.0108 O   0  0  0  0  0  0  0  0  0  0  0  0
    4.9664   69.5393   26.1699 C   0  0  0  0  0  0  0  0  0  0  0  0
    1.3761   68.8580   26.1782 C   0  0  0  0  0  0  0  0  0  0  0  0
    0.1742   69.4561   26.4962 C   0  0  0  0  0  0  0  0  0  0  0  0
   -1.0002   68.7469   26.3132 O   0  0  0  0  0  0  0  0  0  0  0  0
   -2.2827   69.2136   26.5876 C   0  0  0  0  0  0  0  0  0  0  0  0
    0.2168   70.7437   26.9844 C   0  0  0  0  0  0  0  0  0  0  0  0
    3.5357   71.3597   26.9716 H   0  0  0  0  0  0  0  0  0  0  0  0
    4.9993   70.4512   25.5197 H   0  0  0  0  0  0  0  0  0  0  0  0
    5.8457   68.9402   25.9303 H   0  0  0  0  0  0  0  0  0  0  0  0
    5.0423   69.9036   27.2244 H   0  0  0  0  0  0  0  0  0  0  0  0
    1.3544   67.8325   25.7883 H   0  0  0  0  0  0  0  0  0  0  0  0
   -2.6848   69.6659   25.6367 H   0  0  0  0  0  0  0  0  0  0  0  0
   -2.3245   70.0340   27.3391 H   0  0  0  0  0  0  0  0  0  0  0  0
   -2.9977   68.3915   26.8481 H   0  0  0  0  0  0  0  0  0  0  0  0
   -0.6925   71.2449   27.2435 H   0  0  0  0  0  0  0  0  0  0  0  0
  1  3  2  0
  1  7  1  0
  2 23  3  0
  3  4  1  0
  3 20  1  0
  4  5  2  0
  4  8  1  0
  5  6  1  0
  6  7  2  0
  6 18  1  0
  7 24  1  0
  8  9  1  0
  9 10  1  0
  9 12  2  0
 10 11  1  0
 11 13  2  0
 11 17  1  0
 13 14  1  0
 14 15  2  0
 15 16  1  0
 15 23  1  0
 16 17  2  0
 16 22  1  0
 18 19  1  0
 20 21  1  0
  1 25  1  0
  5 26  1  0
  8 27  1  0
  8 28  1  0
 10 29  1  0
 17 30  1  0
 19 31  1  0
 19 32  1  0
 19 33  1  0
 21 34  1  0
 21 35  1  0
 21 36  1  0
 22 37  1  0
 22 38  1  0
 39 40  2  0
 40 41  1  0
 41 42  1  0
 42 43  1  0
 41 44  2  0
 44 45  1  0
 45 46  1  0
 46 47  1  0
 45 48  2  0
 48 39  1  0
 40 49  1  0
 43 50  1  0
 43 51  1  0
 43 52  1  0
 44 53  1  0
 47 54  1  0
 47 55  1  0
 47 56  1  0
 48 57  1  0
 14 39  1  0
M  END
>  <attachment_point>  (491) 
29

>  <score>  (491) 
<NA>

$$$$
2gmx
     RDKit          3D

 56 59  0  0  0  0  0  0  0  0999 V2000
    0.6680  149.6310   52.1780 C   0  0  0  0  0  0  0  0  0  0  0  0
    3.0090  140.6200   56.4870 N   0  0  0  0  0  0  0  0  0  0  0  0
    1.9620  149.2640   52.6280 C   0  0  0  0  0  0  0  0  0  0  0  0
    2.4660  149.8330   53.8590 C   0  0  0  0  0  0  0  0  0  0  0  0
    1.6570  150.7410   54.6000 C   0  0  0  0  0  0  0  0  0  0  0  0
    0.3580  151.1130   54.1650 C   0  0  0  0  0  0  0  0  0  0  0  0
   -0.1340  150.5380   52.9220 C   0  0  0  0  0  0  0  0  0  0  0  0
    3.8340  149.4930   54.3900 C   0  0  0  0  0  0  0  0  0  0  0  0
    3.7760  148.3010   55.3550 C   0  0  0  0  0  0  0  0  0  0  0  0
    3.6080  147.1180   54.7070 N   0  0  0  0  0  0  0  0  0  0  0  0
    3.5230  145.8440   55.1920 C   0  0  0  0  0  0  0  0  0  0  0  0
    3.8880  148.4710   56.5680 O   0  0  0  0  0  0  0  0  0  0  0  0
    3.0190  144.9720   54.2890 N   0  0  0  0  0  0  0  0  0  0  0  0
    2.8790  143.6460   54.6100 C   0  0  0  0  0  0  0  0  0  0  0  0
    3.2540  143.1490   55.8980 C   0  0  0  0  0  0  0  0  0  0  0  0
    3.7840  144.0620   56.8580 C   0  0  0  0  0  0  0  0  0  0  0  0
    3.9180  145.4220   56.4980 C   0  0  0  0  0  0  0  0  0  0  0  0
   -0.4210  152.0200   54.9250 O   0  0  0  0  0  0  0  0  0  0  0  0
   -1.4550  151.4120   55.7020 C   0  0  0  0  0  0  0  0  0  0  0  0
    2.7960  148.3740   51.9370 O   0  0  0  0  0  0  0  0  0  0  0  0
    2.1840  147.2640   51.2740 C   0  0  0  0  0  0  0  0  0  0  0  0
    4.1700  143.6740   58.1190 N   0  0  0  0  0  0  0  0  0  0  0  0
    3.1040  141.7440   56.2230 C   0  0  0  0  0  0  0  0  0  0  0  0
   -1.8550  150.9620   52.2300 Br  0  0  0  0  0  0  0  0  0  0  0  0
    0.0000    0.0000    0.0000 H   0  0  0  0  0  0  0  0  0  0  0  0
    0.0000    0.0000    0.0000 H   0  0  0  0  0  0  0  0  0  0  0  0
    0.0000    0.0000    0.0000 H   0  0  0  0  0  0  0  0  0  0  0  0
    0.0000    0.0000    0.0000 H   0  0  0  0  0  0  0  0  0  0  0  0
    0.0000    0.0000    0.0000 H   0  0  0  0  0  0  0  0  0  0  0  0
    0.0000    0.0000    0.0000 H   0  0  0  0  0  0  0  0  0  0  0  0
    0.0000    0.0000    0.0000 H   0  0  0  0  0  0  0  0  0  0  0  0
    0.0000    0.0000    0.0000 H   0  0  0  0  0  0  0  0  0  0  0  0
    0.0000    0.0000    0.0000 H   0  0  0  0  0  0  0  0  0  0  0  0
    0.0000    0.0000    0.0000 H   0  0  0  0  0  0  0  0  0  0  0  0
    0.0000    0.0000    0.0000 H   0  0  0  0  0  0  0  0  0  0  0  0
    0.0000    0.0000    0.0000 H   0  0  0  0  0  0  0  0  0  0  0  0
    0.0000    0.0000    0.0000 H   0  0  0  0  0  0  0  0  0  0  0  0
    0.0000    0.0000    0.0000 H   0  0  0  0  0  0  0  0  0  0  0  0
    1.4317   71.4338   27.1570 C   0  0  2  0  0  0  0  0  0  0  0  0
    2.5173   70.9487   26.2695 C   0  0  0  0  0  0  0  0  0  0  0  0
    1.2200   71.2205   25.6426 C   0  0  2  0  0  0  0  0  0  0  0  0
    0.9423   72.4834   24.9164 C   0  0  0  0  0  0  0  0  0  0  0  0
   -0.0109   72.6160   23.9408 C   0  0  0  0  0  0  0  0  0  0  0  0
   -0.1988   73.8362   23.3172 C   0  0  0  0  0  0  0  0  0  0  0  0
    0.5634   74.9105   23.6712 C   0  0  0  0  0  0  0  0  0  0  0  0
    1.5315   74.8037   24.6520 C   0  0  0  0  0  0  0  0  0  0  0  0
    1.6962   73.5895   25.2508 C   0  0  0  0  0  0  0  0  0  0  0  0
    0.9254   70.7155   27.8265 H   0  0  0  0  0  0  0  0  0  0  0  0
    3.3919   71.5871   26.0119 H   0  0  0  0  0  0  0  0  0  0  0  0
    2.8100   69.8682   26.3407 H   0  0  0  0  0  0  0  0  0  0  0  0
    0.5874   70.3565   25.3392 H   0  0  0  0  0  0  0  0  0  0  0  0
   -0.5900   71.7446   23.6918 H   0  0  0  0  0  0  0  0  0  0  0  0
   -0.9460   73.9610   22.5452 H   0  0  0  0  0  0  0  0  0  0  0  0
    0.4247   75.8837   23.1847 H   0  0  0  0  0  0  0  0  0  0  0  0
    2.1582   75.6399   24.9601 H   0  0  0  0  0  0  0  0  0  0  0  0
    2.4698   73.5139   26.0310 H   0  0  0  0  0  0  0  0  0  0  0  0
  1  3  2  0
  1  7  1  0
  2 23  3  0
  3  4  1  0
  3 20  1  0
  4  5  2  0
  4  8  1  0
  5  6  1  0
  6  7  2  0
  6 18  1  0
  7 24  1  0
  8  9  1  0
  9 10  1  0
  9 12  2  0
 10 11  1  0
 11 13  2  0
 11 17  1  0
 13 14  1  0
 14 15  2  0
 15 16  1  0
 15 23  1  0
 16 17  2  0
 16 22  1  0
 18 19  1  0
 20 21  1  0
  1 25  1  0
  5 26  1  0
  8 27  1  0
  8 28  1  0
 10 29  1  0
 17 30  1  0
 19 31  1  0
 19 32  1  0
 19 33  1  0
 21 34  1  0
 21 35  1  0
 21 36  1  0
 22 37  1  0
 22 38  1  0
 39 40  1  0
 40 41  1  0
 41 42  1  0
 42 43  2  0
 43 44  1  0
 44 45  2  0
 45 46  1  0
 46 47  2  0
 41 39  1  0
 47 42  1  0
 39 48  1  6
 40 49  1  0
 40 50  1  0
 41 51  1  1
 43 52  1  0
 44 53  1  0
 45 54  1  0
 46 55  1  0
 47 56  1  0
 14 39  1  0
M  END
>  <attachment_point>  (492) 
29

>  <score>  (492) 
<NA>

$$$$
2gmx
     RDKit          3D

 58 60  0  0  0  0  0  0  0  0999 V2000
    0.6680  149.6310   52.1780 C   0  0  0  0  0  0  0  0  0  0  0  0
    3.0090  140.6200   56.4870 N   0  0  0  0  0  0  0  0  0  0  0  0
    1.9620  149.2640   52.6280 C   0  0  0  0  0  0  0  0  0  0  0  0
    2.4660  149.8330   53.8590 C   0  0  0  0  0  0  0  0  0  0  0  0
    1.6570  150.7410   54.6000 C   0  0  0  0  0  0  0  0  0  0  0  0
    0.3580  151.1130   54.1650 C   0  0  0  0  0  0  0  0  0  0  0  0
   -0.1340  150.5380   52.9220 C   0  0  0  0  0  0  0  0  0  0  0  0
    3.8340  149.4930   54.3900 C   0  0  0  0  0  0  0  0  0  0  0  0
    3.7760  148.3010   55.3550 C   0  0  0  0  0  0  0  0  0  0  0  0
    3.6080  147.1180   54.7070 N   0  0  0  0  0  0  0  0  0  0  0  0
    3.5230  145.8440   55.1920 C   0  0  0  0  0  0  0  0  0  0  0  0
    3.8880  148.4710   56.5680 O   0  0  0  0  0  0  0  0  0  0  0  0
    3.0190  144.9720   54.2890 N   0  0  0  0  0  0  0  0  0  0  0  0
    2.8790  143.6460   54.6100 C   0  0  0  0  0  0  0  0  0  0  0  0
    3.2540  143.1490   55.8980 C   0  0  0  0  0  0  0  0  0  0  0  0
    3.7840  144.0620   56.8580 C   0  0  0  0  0  0  0  0  0  0  0  0
    3.9180  145.4220   56.4980 C   0  0  0  0  0  0  0  0  0  0  0  0
   -0.4210  152.0200   54.9250 O   0  0  0  0  0  0  0  0  0  0  0  0
   -1.4550  151.4120   55.7020 C   0  0  0  0  0  0  0  0  0  0  0  0
    2.7960  148.3740   51.9370 O   0  0  0  0  0  0  0  0  0  0  0  0
    2.1840  147.2640   51.2740 C   0  0  0  0  0  0  0  0  0  0  0  0
    4.1700  143.6740   58.1190 N   0  0  0  0  0  0  0  0  0  0  0  0
    3.1040  141.7440   56.2230 C   0  0  0  0  0  0  0  0  0  0  0  0
   -1.8550  150.9620   52.2300 Br  0  0  0  0  0  0  0  0  0  0  0  0
    0.0000    0.0000    0.0000 H   0  0  0  0  0  0  0  0  0  0  0  0
    0.0000    0.0000    0.0000 H   0  0  0  0  0  0  0  0  0  0  0  0
    0.0000    0.0000    0.0000 H   0  0  0  0  0  0  0  0  0  0  0  0
    0.0000    0.0000    0.0000 H   0  0  0  0  0  0  0  0  0  0  0  0
    0.0000    0.0000    0.0000 H   0  0  0  0  0  0  0  0  0  0  0  0
    0.0000    0.0000    0.0000 H   0  0  0  0  0  0  0  0  0  0  0  0
    0.0000    0.0000    0.0000 H   0  0  0  0  0  0  0  0  0  0  0  0
    0.0000    0.0000    0.0000 H   0  0  0  0  0  0  0  0  0  0  0  0
    0.0000    0.0000    0.0000 H   0  0  0  0  0  0  0  0  0  0  0  0
    0.0000    0.0000    0.0000 H   0  0  0  0  0  0  0  0  0  0  0  0
    0.0000    0.0000    0.0000 H   0  0  0  0  0  0  0  0  0  0  0  0
    0.0000    0.0000    0.0000 H   0  0  0  0  0  0  0  0  0  0  0  0
    0.0000    0.0000    0.0000 H   0  0  0  0  0  0  0  0  0  0  0  0
    0.0000    0.0000    0.0000 H   0  0  0  0  0  0  0  0  0  0  0  0
    1.4315   71.4214   27.1523 C   0  0  0  0  0  0  0  0  0  0  0  0
    1.2896   70.3105   27.9615 C   0  0  0  0  0  0  0  0  0  0  0  0
    1.2737   69.0500   27.3857 C   0  0  0  0  0  0  0  0  0  0  0  0
    1.3954   68.8651   26.0247 C   0  0  0  0  0  0  0  0  0  0  0  0
    1.3752   67.4849   25.4225 C   0  0  0  0  0  0  0  0  0  0  0  0
    2.5490   66.6697   25.9292 C   0  0  0  0  0  0  0  0  0  0  0  0
    0.0754   66.7864   25.7178 C   0  0  0  0  0  0  0  0  0  0  0  0
    1.5350   69.9969   25.2506 C   0  0  0  0  0  0  0  0  0  0  0  0
    1.5559   71.2702   25.7810 C   0  0  0  0  0  0  0  0  0  0  0  0
    1.1962   70.4740   29.0198 H   0  0  0  0  0  0  0  0  0  0  0  0
    1.1606   68.1966   28.0513 H   0  0  0  0  0  0  0  0  0  0  0  0
    1.4860   67.5524   24.3222 H   0  0  0  0  0  0  0  0  0  0  0  0
    2.3321   66.2079   26.9191 H   0  0  0  0  0  0  0  0  0  0  0  0
    3.4502   67.3366   26.0153 H   0  0  0  0  0  0  0  0  0  0  0  0
    2.7376   65.8803   25.1719 H   0  0  0  0  0  0  0  0  0  0  0  0
   -0.0102   65.9205   25.0281 H   0  0  0  0  0  0  0  0  0  0  0  0
   -0.7540   67.4843   25.4352 H   0  0  0  0  0  0  0  0  0  0  0  0
    0.0007   66.4456   26.7591 H   0  0  0  0  0  0  0  0  0  0  0  0
    1.6311   69.8581   24.1784 H   0  0  0  0  0  0  0  0  0  0  0  0
    1.6674   72.1580   25.1536 H   0  0  0  0  0  0  0  0  0  0  0  0
  1  3  2  0
  1  7  1  0
  2 23  3  0
  3  4  1  0
  3 20  1  0
  4  5  2  0
  4  8  1  0
  5  6  1  0
  6  7  2  0
  6 18  1  0
  7 24  1  0
  8  9  1  0
  9 10  1  0
  9 12  2  0
 10 11  1  0
 11 13  2  0
 11 17  1  0
 13 14  1  0
 14 15  2  0
 15 16  1  0
 15 23  1  0
 16 17  2  0
 16 22  1  0
 18 19  1  0
 20 21  1  0
  1 25  1  0
  5 26  1  0
  8 27  1  0
  8 28  1  0
 10 29  1  0
 17 30  1  0
 19 31  1  0
 19 32  1  0
 19 33  1  0
 21 34  1  0
 21 35  1  0
 21 36  1  0
 22 37  1  0
 22 38  1  0
 39 40  2  0
 40 41  1  0
 41 42  2  0
 42 43  1  0
 43 44  1  0
 43 45  1  0
 42 46  1  0
 46 47  2  0
 47 39  1  0
 40 48  1  0
 41 49  1  0
 43 50  1  0
 44 51  1  0
 44 52  1  0
 44 53  1  0
 45 54  1  0
 45 55  1  0
 45 56  1  0
 46 57  1  0
 47 58  1  0
 14 39  1  0
M  END
>  <attachment_point>  (493) 
29

>  <score>  (493) 
<NA>

$$$$
2gmx
     RDKit          3D

 51 53  0  0  0  0  0  0  0  0999 V2000
    0.6680  149.6310   52.1780 C   0  0  0  0  0  0  0  0  0  0  0  0
    3.0090  140.6200   56.4870 N   0  0  0  0  0  0  0  0  0  0  0  0
    1.9620  149.2640   52.6280 C   0  0  0  0  0  0  0  0  0  0  0  0
    2.4660  149.8330   53.8590 C   0  0  0  0  0  0  0  0  0  0  0  0
    1.6570  150.7410   54.6000 C   0  0  0  0  0  0  0  0  0  0  0  0
    0.3580  151.1130   54.1650 C   0  0  0  0  0  0  0  0  0  0  0  0
   -0.1340  150.5380   52.9220 C   0  0  0  0  0  0  0  0  0  0  0  0
    3.8340  149.4930   54.3900 C   0  0  0  0  0  0  0  0  0  0  0  0
    3.7760  148.3010   55.3550 C   0  0  0  0  0  0  0  0  0  0  0  0
    3.6080  147.1180   54.7070 N   0  0  0  0  0  0  0  0  0  0  0  0
    3.5230  145.8440   55.1920 C   0  0  0  0  0  0  0  0  0  0  0  0
    3.8880  148.4710   56.5680 O   0  0  0  0  0  0  0  0  0  0  0  0
    3.0190  144.9720   54.2890 N   0  0  0  0  0  0  0  0  0  0  0  0
    2.8790  143.6460   54.6100 C   0  0  0  0  0  0  0  0  0  0  0  0
    3.2540  143.1490   55.8980 C   0  0  0  0  0  0  0  0  0  0  0  0
    3.7840  144.0620   56.8580 C   0  0  0  0  0  0  0  0  0  0  0  0
    3.9180  145.4220   56.4980 C   0  0  0  0  0  0  0  0  0  0  0  0
   -0.4210  152.0200   54.9250 O   0  0  0  0  0  0  0  0  0  0  0  0
   -1.4550  151.4120   55.7020 C   0  0  0  0  0  0  0  0  0  0  0  0
    2.7960  148.3740   51.9370 O   0  0  0  0  0  0  0  0  0  0  0  0
    2.1840  147.2640   51.2740 C   0  0  0  0  0  0  0  0  0  0  0  0
    4.1700  143.6740   58.1190 N   0  0  0  0  0  0  0  0  0  0  0  0
    3.1040  141.7440   56.2230 C   0  0  0  0  0  0  0  0  0  0  0  0
   -1.8550  150.9620   52.2300 Br  0  0  0  0  0  0  0  0  0  0  0  0
    0.0000    0.0000    0.0000 H   0  0  0  0  0  0  0  0  0  0  0  0
    0.0000    0.0000    0.0000 H   0  0  0  0  0  0  0  0  0  0  0  0
    0.0000    0.0000    0.0000 H   0  0  0  0  0  0  0  0  0  0  0  0
    0.0000    0.0000    0.0000 H   0  0  0  0  0  0  0  0  0  0  0  0
    0.0000    0.0000    0.0000 H   0  0  0  0  0  0  0  0  0  0  0  0
    0.0000    0.0000    0.0000 H   0  0  0  0  0  0  0  0  0  0  0  0
    0.0000    0.0000    0.0000 H   0  0  0  0  0  0  0  0  0  0  0  0
    0.0000    0.0000    0.0000 H   0  0  0  0  0  0  0  0  0  0  0  0
    0.0000    0.0000    0.0000 H   0  0  0  0  0  0  0  0  0  0  0  0
    0.0000    0.0000    0.0000 H   0  0  0  0  0  0  0  0  0  0  0  0
    0.0000    0.0000    0.0000 H   0  0  0  0  0  0  0  0  0  0  0  0
    0.0000    0.0000    0.0000 H   0  0  0  0  0  0  0  0  0  0  0  0
    0.0000    0.0000    0.0000 H   0  0  0  0  0  0  0  0  0  0  0  0
    0.0000    0.0000    0.0000 H   0  0  0  0  0  0  0  0  0  0  0  0
    1.4314   71.4169   27.1506 C   0  0  0  0  0  0  0  0  0  0  0  0
    2.5644   70.8081   26.6568 C   0  0  0  0  0  0  0  0  0  0  0  0
    2.4629   69.5156   26.1828 C   0  0  0  0  0  0  0  0  0  0  0  0
    1.2783   68.8095   26.1825 C   0  0  0  0  0  0  0  0  0  0  0  0
    1.1959   67.4067   25.6616 C   0  0  0  0  0  0  0  0  0  0  0  0
    0.8741   67.3559   24.3384 F   0  0  0  0  0  0  0  0  0  0  0  0
    2.3817   66.7150   25.9119 F   0  0  0  0  0  0  0  0  0  0  0  0
    0.2126   66.6941   26.3594 F   0  0  0  0  0  0  0  0  0  0  0  0
    0.1892   69.4310   26.6711 N   0  0  0  0  0  0  0  0  0  0  0  0
    0.2629   70.6902   27.1387 C   0  0  0  0  0  0  0  0  0  0  0  0
    3.4857   71.3650   26.6599 H   0  0  0  0  0  0  0  0  0  0  0  0
    3.3371   69.0192   25.7915 H   0  0  0  0  0  0  0  0  0  0  0  0
   -0.6254   71.1933   27.5358 H   0  0  0  0  0  0  0  0  0  0  0  0
  1  3  2  0
  1  7  1  0
  2 23  3  0
  3  4  1  0
  3 20  1  0
  4  5  2  0
  4  8  1  0
  5  6  1  0
  6  7  2  0
  6 18  1  0
  7 24  1  0
  8  9  1  0
  9 10  1  0
  9 12  2  0
 10 11  1  0
 11 13  2  0
 11 17  1  0
 13 14  1  0
 14 15  2  0
 15 16  1  0
 15 23  1  0
 16 17  2  0
 16 22  1  0
 18 19  1  0
 20 21  1  0
  1 25  1  0
  5 26  1  0
  8 27  1  0
  8 28  1  0
 10 29  1  0
 17 30  1  0
 19 31  1  0
 19 32  1  0
 19 33  1  0
 21 34  1  0
 21 35  1  0
 21 36  1  0
 22 37  1  0
 22 38  1  0
 39 40  2  0
 40 41  1  0
 41 42  2  0
 42 43  1  0
 43 44  1  0
 43 45  1  0
 43 46  1  0
 42 47  1  0
 47 48  2  0
 48 39  1  0
 40 49  1  0
 41 50  1  0
 48 51  1  0
 14 39  1  0
M  END
>  <attachment_point>  (494) 
29

>  <score>  (494) 
<NA>

$$$$
2gmx
     RDKit          3D

 53 55  0  0  0  0  0  0  0  0999 V2000
    0.6680  149.6310   52.1780 C   0  0  0  0  0  0  0  0  0  0  0  0
    3.0090  140.6200   56.4870 N   0  0  0  0  0  0  0  0  0  0  0  0
    1.9620  149.2640   52.6280 C   0  0  0  0  0  0  0  0  0  0  0  0
    2.4660  149.8330   53.8590 C   0  0  0  0  0  0  0  0  0  0  0  0
    1.6570  150.7410   54.6000 C   0  0  0  0  0  0  0  0  0  0  0  0
    0.3580  151.1130   54.1650 C   0  0  0  0  0  0  0  0  0  0  0  0
   -0.1340  150.5380   52.9220 C   0  0  0  0  0  0  0  0  0  0  0  0
    3.8340  149.4930   54.3900 C   0  0  0  0  0  0  0  0  0  0  0  0
    3.7760  148.3010   55.3550 C   0  0  0  0  0  0  0  0  0  0  0  0
    3.6080  147.1180   54.7070 N   0  0  0  0  0  0  0  0  0  0  0  0
    3.5230  145.8440   55.1920 C   0  0  0  0  0  0  0  0  0  0  0  0
    3.8880  148.4710   56.5680 O   0  0  0  0  0  0  0  0  0  0  0  0
    3.0190  144.9720   54.2890 N   0  0  0  0  0  0  0  0  0  0  0  0
    2.8790  143.6460   54.6100 C   0  0  0  0  0  0  0  0  0  0  0  0
    3.2540  143.1490   55.8980 C   0  0  0  0  0  0  0  0  0  0  0  0
    3.7840  144.0620   56.8580 C   0  0  0  0  0  0  0  0  0  0  0  0
    3.9180  145.4220   56.4980 C   0  0  0  0  0  0  0  0  0  0  0  0
   -0.4210  152.0200   54.9250 O   0  0  0  0  0  0  0  0  0  0  0  0
   -1.4550  151.4120   55.7020 C   0  0  0  0  0  0  0  0  0  0  0  0
    2.7960  148.3740   51.9370 O   0  0  0  0  0  0  0  0  0  0  0  0
    2.1840  147.2640   51.2740 C   0  0  0  0  0  0  0  0  0  0  0  0
    4.1700  143.6740   58.1190 N   0  0  0  0  0  0  0  0  0  0  0  0
    3.1040  141.7440   56.2230 C   0  0  0  0  0  0  0  0  0  0  0  0
   -1.8550  150.9620   52.2300 Br  0  0  0  0  0  0  0  0  0  0  0  0
    0.0000    0.0000    0.0000 H   0  0  0  0  0  0  0  0  0  0  0  0
    0.0000    0.0000    0.0000 H   0  0  0  0  0  0  0  0  0  0  0  0
    0.0000    0.0000    0.0000 H   0  0  0  0  0  0  0  0  0  0  0  0
    0.0000    0.0000    0.0000 H   0  0  0  0  0  0  0  0  0  0  0  0
    0.0000    0.0000    0.0000 H   0  0  0  0  0  0  0  0  0  0  0  0
    0.0000    0.0000    0.0000 H   0  0  0  0  0  0  0  0  0  0  0  0
    0.0000    0.0000    0.0000 H   0  0  0  0  0  0  0  0  0  0  0  0
    0.0000    0.0000    0.0000 H   0  0  0  0  0  0  0  0  0  0  0  0
    0.0000    0.0000    0.0000 H   0  0  0  0  0  0  0  0  0  0  0  0
    0.0000    0.0000    0.0000 H   0  0  0  0  0  0  0  0  0  0  0  0
    0.0000    0.0000    0.0000 H   0  0  0  0  0  0  0  0  0  0  0  0
    0.0000    0.0000    0.0000 H   0  0  0  0  0  0  0  0  0  0  0  0
    0.0000    0.0000    0.0000 H   0  0  0  0  0  0  0  0  0  0  0  0
    0.0000    0.0000    0.0000 H   0  0  0  0  0  0  0  0  0  0  0  0
    1.4303   71.3618   27.1297 C   0  0  0  0  0  0  0  0  0  0  0  0
    2.0064   70.3960   27.8471 C   0  0  0  0  0  0  0  0  0  0  0  0
    1.9626   69.0852   27.3168 C   0  0  0  0  0  0  0  0  0  0  0  0
    1.3574   68.8242   26.1248 C   0  0  0  0  0  0  0  0  0  0  0  0
    1.3495   67.5139   25.6598 O   0  0  0  0  0  0  0  0  0  0  0  0
    1.9474   66.4543   26.3852 C   0  0  0  0  0  0  0  0  0  0  0  0
    0.7724   69.8432   25.4093 C   0  0  0  0  0  0  0  0  0  0  0  0
    0.1671   69.6161   24.2289 F   0  0  0  0  0  0  0  0  0  0  0  0
    0.8159   71.1503   25.9379 C   0  0  0  0  0  0  0  0  0  0  0  0
    2.4913   70.5896   28.7968 H   0  0  0  0  0  0  0  0  0  0  0  0
    2.4218   68.3066   27.8853 H   0  0  0  0  0  0  0  0  0  0  0  0
    1.6913   65.4709   25.9548 H   0  0  0  0  0  0  0  0  0  0  0  0
    3.0438   66.6121   26.3961 H   0  0  0  0  0  0  0  0  0  0  0  0
    1.5534   66.5204   27.4257 H   0  0  0  0  0  0  0  0  0  0  0  0
    0.3736   71.9819   25.4179 H   0  0  0  0  0  0  0  0  0  0  0  0
  1  3  2  0
  1  7  1  0
  2 23  3  0
  3  4  1  0
  3 20  1  0
  4  5  2  0
  4  8  1  0
  5  6  1  0
  6  7  2  0
  6 18  1  0
  7 24  1  0
  8  9  1  0
  9 10  1  0
  9 12  2  0
 10 11  1  0
 11 13  2  0
 11 17  1  0
 13 14  1  0
 14 15  2  0
 15 16  1  0
 15 23  1  0
 16 17  2  0
 16 22  1  0
 18 19  1  0
 20 21  1  0
  1 25  1  0
  5 26  1  0
  8 27  1  0
  8 28  1  0
 10 29  1  0
 17 30  1  0
 19 31  1  0
 19 32  1  0
 19 33  1  0
 21 34  1  0
 21 35  1  0
 21 36  1  0
 22 37  1  0
 22 38  1  0
 39 40  2  0
 40 41  1  0
 41 42  2  0
 42 43  1  0
 43 44  1  0
 42 45  1  0
 45 46  1  0
 45 47  2  0
 47 39  1  0
 40 48  1  0
 41 49  1  0
 44 50  1  0
 44 51  1  0
 44 52  1  0
 47 53  1  0
 14 39  1  0
M  END
>  <attachment_point>  (495) 
29

>  <score>  (495) 
<NA>

$$$$
2gmx
     RDKit          3D

 54 57  0  0  0  0  0  0  0  0999 V2000
    0.6680  149.6310   52.1780 C   0  0  0  0  0  0  0  0  0  0  0  0
    3.0090  140.6200   56.4870 N   0  0  0  0  0  0  0  0  0  0  0  0
    1.9620  149.2640   52.6280 C   0  0  0  0  0  0  0  0  0  0  0  0
    2.4660  149.8330   53.8590 C   0  0  0  0  0  0  0  0  0  0  0  0
    1.6570  150.7410   54.6000 C   0  0  0  0  0  0  0  0  0  0  0  0
    0.3580  151.1130   54.1650 C   0  0  0  0  0  0  0  0  0  0  0  0
   -0.1340  150.5380   52.9220 C   0  0  0  0  0  0  0  0  0  0  0  0
    3.8340  149.4930   54.3900 C   0  0  0  0  0  0  0  0  0  0  0  0
    3.7760  148.3010   55.3550 C   0  0  0  0  0  0  0  0  0  0  0  0
    3.6080  147.1180   54.7070 N   0  0  0  0  0  0  0  0  0  0  0  0
    3.5230  145.8440   55.1920 C   0  0  0  0  0  0  0  0  0  0  0  0
    3.8880  148.4710   56.5680 O   0  0  0  0  0  0  0  0  0  0  0  0
    3.0190  144.9720   54.2890 N   0  0  0  0  0  0  0  0  0  0  0  0
    2.8790  143.6460   54.6100 C   0  0  0  0  0  0  0  0  0  0  0  0
    3.2540  143.1490   55.8980 C   0  0  0  0  0  0  0  0  0  0  0  0
    3.7840  144.0620   56.8580 C   0  0  0  0  0  0  0  0  0  0  0  0
    3.9180  145.4220   56.4980 C   0  0  0  0  0  0  0  0  0  0  0  0
   -0.4210  152.0200   54.9250 O   0  0  0  0  0  0  0  0  0  0  0  0
   -1.4550  151.4120   55.7020 C   0  0  0  0  0  0  0  0  0  0  0  0
    2.7960  148.3740   51.9370 O   0  0  0  0  0  0  0  0  0  0  0  0
    2.1840  147.2640   51.2740 C   0  0  0  0  0  0  0  0  0  0  0  0
    4.1700  143.6740   58.1190 N   0  0  0  0  0  0  0  0  0  0  0  0
    3.1040  141.7440   56.2230 C   0  0  0  0  0  0  0  0  0  0  0  0
   -1.8550  150.9620   52.2300 Br  0  0  0  0  0  0  0  0  0  0  0  0
    0.0000    0.0000    0.0000 H   0  0  0  0  0  0  0  0  0  0  0  0
    0.0000    0.0000    0.0000 H   0  0  0  0  0  0  0  0  0  0  0  0
    0.0000    0.0000    0.0000 H   0  0  0  0  0  0  0  0  0  0  0  0
    0.0000    0.0000    0.0000 H   0  0  0  0  0  0  0  0  0  0  0  0
    0.0000    0.0000    0.0000 H   0  0  0  0  0  0  0  0  0  0  0  0
    0.0000    0.0000    0.0000 H   0  0  0  0  0  0  0  0  0  0  0  0
    0.0000    0.0000    0.0000 H   0  0  0  0  0  0  0  0  0  0  0  0
    0.0000    0.0000    0.0000 H   0  0  0  0  0  0  0  0  0  0  0  0
    0.0000    0.0000    0.0000 H   0  0  0  0  0  0  0  0  0  0  0  0
    0.0000    0.0000    0.0000 H   0  0  0  0  0  0  0  0  0  0  0  0
    0.0000    0.0000    0.0000 H   0  0  0  0  0  0  0  0  0  0  0  0
    0.0000    0.0000    0.0000 H   0  0  0  0  0  0  0  0  0  0  0  0
    0.0000    0.0000    0.0000 H   0  0  0  0  0  0  0  0  0  0  0  0
    0.0000    0.0000    0.0000 H   0  0  0  0  0  0  0  0  0  0  0  0
    1.4308   71.3877   27.1395 C   0  0  0  0  0  0  0  0  0  0  0  0
    0.2056   70.8285   26.8829 C   0  0  0  0  0  0  0  0  0  0  0  0
    0.1263   69.5234   26.3850 C   0  0  0  0  0  0  0  0  0  0  0  0
    1.2947   68.8268   26.1631 C   0  0  0  0  0  0  0  0  0  0  0  0
    2.5084   69.4285   26.4354 C   0  0  0  0  0  0  0  0  0  0  0  0
    3.6517   68.7721   26.2279 N   0  0  0  0  0  0  0  0  0  0  0  0
    4.8497   69.3295   26.4828 C   0  0  0  0  0  0  0  0  0  0  0  0
    4.9834   70.6117   26.9741 C   0  0  0  0  0  0  0  0  0  0  0  0
    3.8270   71.3261   27.2032 C   0  0  0  0  0  0  0  0  0  0  0  0
    2.6049   70.7287   26.9322 C   0  0  0  0  0  0  0  0  0  0  0  0
   -0.7197   71.3759   27.0570 H   0  0  0  0  0  0  0  0  0  0  0  0
   -0.8262   69.0673   26.1773 H   0  0  0  0  0  0  0  0  0  0  0  0
    1.2114   67.8183   25.7775 H   0  0  0  0  0  0  0  0  0  0  0  0
    5.7183   68.7055   26.2778 H   0  0  0  0  0  0  0  0  0  0  0  0
    5.9766   71.0379   27.1719 H   0  0  0  0  0  0  0  0  0  0  0  0
    3.8986   72.3350   27.5885 H   0  0  0  0  0  0  0  0  0  0  0  0
  1  3  2  0
  1  7  1  0
  2 23  3  0
  3  4  1  0
  3 20  1  0
  4  5  2  0
  4  8  1  0
  5  6  1  0
  6  7  2  0
  6 18  1  0
  7 24  1  0
  8  9  1  0
  9 10  1  0
  9 12  2  0
 10 11  1  0
 11 13  2  0
 11 17  1  0
 13 14  1  0
 14 15  2  0
 15 16  1  0
 15 23  1  0
 16 17  2  0
 16 22  1  0
 18 19  1  0
 20 21  1  0
  1 25  1  0
  5 26  1  0
  8 27  1  0
  8 28  1  0
 10 29  1  0
 17 30  1  0
 19 31  1  0
 19 32  1  0
 19 33  1  0
 21 34  1  0
 21 35  1  0
 21 36  1  0
 22 37  1  0
 22 38  1  0
 39 40  2  0
 40 41  1  0
 41 42  2  0
 42 43  1  0
 43 44  2  0
 44 45  1  0
 45 46  2  0
 46 47  1  0
 47 48  2  0
 48 39  1  0
 48 43  1  0
 40 49  1  0
 41 50  1  0
 42 51  1  0
 45 52  1  0
 46 53  1  0
 47 54  1  0
 14 39  1  0
M  END
>  <attachment_point>  (496) 
29

>  <score>  (496) 
<NA>

$$$$
2gmx
     RDKit          3D

 57 59  0  0  0  0  0  0  0  0999 V2000
    0.6680  149.6310   52.1780 C   0  0  0  0  0  0  0  0  0  0  0  0
    3.0090  140.6200   56.4870 N   0  0  0  0  0  0  0  0  0  0  0  0
    1.9620  149.2640   52.6280 C   0  0  0  0  0  0  0  0  0  0  0  0
    2.4660  149.8330   53.8590 C   0  0  0  0  0  0  0  0  0  0  0  0
    1.6570  150.7410   54.6000 C   0  0  0  0  0  0  0  0  0  0  0  0
    0.3580  151.1130   54.1650 C   0  0  0  0  0  0  0  0  0  0  0  0
   -0.1340  150.5380   52.9220 C   0  0  0  0  0  0  0  0  0  0  0  0
    3.8340  149.4930   54.3900 C   0  0  0  0  0  0  0  0  0  0  0  0
    3.7760  148.3010   55.3550 C   0  0  0  0  0  0  0  0  0  0  0  0
    3.6080  147.1180   54.7070 N   0  0  0  0  0  0  0  0  0  0  0  0
    3.5230  145.8440   55.1920 C   0  0  0  0  0  0  0  0  0  0  0  0
    3.8880  148.4710   56.5680 O   0  0  0  0  0  0  0  0  0  0  0  0
    3.0190  144.9720   54.2890 N   0  0  0  0  0  0  0  0  0  0  0  0
    2.8790  143.6460   54.6100 C   0  0  0  0  0  0  0  0  0  0  0  0
    3.2540  143.1490   55.8980 C   0  0  0  0  0  0  0  0  0  0  0  0
    3.7840  144.0620   56.8580 C   0  0  0  0  0  0  0  0  0  0  0  0
    3.9180  145.4220   56.4980 C   0  0  0  0  0  0  0  0  0  0  0  0
   -0.4210  152.0200   54.9250 O   0  0  0  0  0  0  0  0  0  0  0  0
   -1.4550  151.4120   55.7020 C   0  0  0  0  0  0  0  0  0  0  0  0
    2.7960  148.3740   51.9370 O   0  0  0  0  0  0  0  0  0  0  0  0
    2.1840  147.2640   51.2740 C   0  0  0  0  0  0  0  0  0  0  0  0
    4.1700  143.6740   58.1190 N   0  0  0  0  0  0  0  0  0  0  0  0
    3.1040  141.7440   56.2230 C   0  0  0  0  0  0  0  0  0  0  0  0
   -1.8550  150.9620   52.2300 Br  0  0  0  0  0  0  0  0  0  0  0  0
    0.0000    0.0000    0.0000 H   0  0  0  0  0  0  0  0  0  0  0  0
    0.0000    0.0000    0.0000 H   0  0  0  0  0  0  0  0  0  0  0  0
    0.0000    0.0000    0.0000 H   0  0  0  0  0  0  0  0  0  0  0  0
    0.0000    0.0000    0.0000 H   0  0  0  0  0  0  0  0  0  0  0  0
    0.0000    0.0000    0.0000 H   0  0  0  0  0  0  0  0  0  0  0  0
    0.0000    0.0000    0.0000 H   0  0  0  0  0  0  0  0  0  0  0  0
    0.0000    0.0000    0.0000 H   0  0  0  0  0  0  0  0  0  0  0  0
    0.0000    0.0000    0.0000 H   0  0  0  0  0  0  0  0  0  0  0  0
    0.0000    0.0000    0.0000 H   0  0  0  0  0  0  0  0  0  0  0  0
    0.0000    0.0000    0.0000 H   0  0  0  0  0  0  0  0  0  0  0  0
    0.0000    0.0000    0.0000 H   0  0  0  0  0  0  0  0  0  0  0  0
    0.0000    0.0000    0.0000 H   0  0  0  0  0  0  0  0  0  0  0  0
    0.0000    0.0000    0.0000 H   0  0  0  0  0  0  0  0  0  0  0  0
    0.0000    0.0000    0.0000 H   0  0  0  0  0  0  0  0  0  0  0  0
    1.4307   71.3850   27.1385 N   0  0  0  0  0  0  0  0  0  0  0  0
    0.0120   71.1206   27.0148 C   0  0  0  0  0  0  0  0  0  0  0  0
    2.0180   70.6548   28.2471 C   0  0  0  0  0  0  0  0  0  0  0  0
    2.1168   69.2173   27.9781 C   0  0  0  0  0  0  0  0  0  0  0  0
    1.0602   68.4059   28.3329 C   0  0  0  0  0  0  0  0  0  0  0  0
    1.0588   67.0345   28.1195 C   0  0  0  0  0  0  0  0  0  0  0  0
    2.1754   66.4848   27.5251 C   0  0  0  0  0  0  0  0  0  0  0  0
    3.2360   67.2901   27.1675 C   0  0  0  0  0  0  0  0  0  0  0  0
    3.2313   68.6518   27.3820 C   0  0  0  0  0  0  0  0  0  0  0  0
   -0.4877   70.9565   27.9882 H   0  0  0  0  0  0  0  0  0  0  0  0
   -0.5200   71.9645   26.5119 H   0  0  0  0  0  0  0  0  0  0  0  0
   -0.0933   70.2327   26.3867 H   0  0  0  0  0  0  0  0  0  0  0  0
    3.0046   71.0332   28.5269 H   0  0  0  0  0  0  0  0  0  0  0  0
    1.3569   70.8049   29.1283 H   0  0  0  0  0  0  0  0  0  0  0  0
    0.1562   68.7960   28.8058 H   0  0  0  0  0  0  0  0  0  0  0  0
    0.2058   66.4175   28.4119 H   0  0  0  0  0  0  0  0  0  0  0  0
    2.2168   65.4261   27.3409 H   0  0  0  0  0  0  0  0  0  0  0  0
    4.1221   66.8676   26.6979 H   0  0  0  0  0  0  0  0  0  0  0  0
    4.0736   69.2856   27.0972 H   0  0  0  0  0  0  0  0  0  0  0  0
  1  3  2  0
  1  7  1  0
  2 23  3  0
  3  4  1  0
  3 20  1  0
  4  5  2  0
  4  8  1  0
  5  6  1  0
  6  7  2  0
  6 18  1  0
  7 24  1  0
  8  9  1  0
  9 10  1  0
  9 12  2  0
 10 11  1  0
 11 13  2  0
 11 17  1  0
 13 14  1  0
 14 15  2  0
 15 16  1  0
 15 23  1  0
 16 17  2  0
 16 22  1  0
 18 19  1  0
 20 21  1  0
  1 25  1  0
  5 26  1  0
  8 27  1  0
  8 28  1  0
 10 29  1  0
 17 30  1  0
 19 31  1  0
 19 32  1  0
 19 33  1  0
 21 34  1  0
 21 35  1  0
 21 36  1  0
 22 37  1  0
 22 38  1  0
 39 40  1  0
 39 41  1  0
 41 42  1  0
 42 43  2  0
 43 44  1  0
 44 45  2  0
 45 46  1  0
 46 47  2  0
 47 42  1  0
 40 48  1  0
 40 49  1  0
 40 50  1  0
 41 51  1  0
 41 52  1  0
 43 53  1  0
 44 54  1  0
 45 55  1  0
 46 56  1  0
 47 57  1  0
 14 39  1  0
M  END
>  <attachment_point>  (497) 
29

>  <score>  (497) 
<NA>

$$$$
2gmx
     RDKit          3D

 47 48  0  0  0  0  0  0  0  0999 V2000
    0.6680  149.6310   52.1780 C   0  0  0  0  0  0  0  0  0  0  0  0
    3.0090  140.6200   56.4870 N   0  0  0  0  0  0  0  0  0  0  0  0
    1.9620  149.2640   52.6280 C   0  0  0  0  0  0  0  0  0  0  0  0
    2.4660  149.8330   53.8590 C   0  0  0  0  0  0  0  0  0  0  0  0
    1.6570  150.7410   54.6000 C   0  0  0  0  0  0  0  0  0  0  0  0
    0.3580  151.1130   54.1650 C   0  0  0  0  0  0  0  0  0  0  0  0
   -0.1340  150.5380   52.9220 C   0  0  0  0  0  0  0  0  0  0  0  0
    3.8340  149.4930   54.3900 C   0  0  0  0  0  0  0  0  0  0  0  0
    3.7760  148.3010   55.3550 C   0  0  0  0  0  0  0  0  0  0  0  0
    3.6080  147.1180   54.7070 N   0  0  0  0  0  0  0  0  0  0  0  0
    3.5230  145.8440   55.1920 C   0  0  0  0  0  0  0  0  0  0  0  0
    3.8880  148.4710   56.5680 O   0  0  0  0  0  0  0  0  0  0  0  0
    3.0190  144.9720   54.2890 N   0  0  0  0  0  0  0  0  0  0  0  0
    2.8790  143.6460   54.6100 C   0  0  0  0  0  0  0  0  0  0  0  0
    3.2540  143.1490   55.8980 C   0  0  0  0  0  0  0  0  0  0  0  0
    3.7840  144.0620   56.8580 C   0  0  0  0  0  0  0  0  0  0  0  0
    3.9180  145.4220   56.4980 C   0  0  0  0  0  0  0  0  0  0  0  0
   -0.4210  152.0200   54.9250 O   0  0  0  0  0  0  0  0  0  0  0  0
   -1.4550  151.4120   55.7020 C   0  0  0  0  0  0  0  0  0  0  0  0
    2.7960  148.3740   51.9370 O   0  0  0  0  0  0  0  0  0  0  0  0
    2.1840  147.2640   51.2740 C   0  0  0  0  0  0  0  0  0  0  0  0
    4.1700  143.6740   58.1190 N   0  0  0  0  0  0  0  0  0  0  0  0
    3.1040  141.7440   56.2230 C   0  0  0  0  0  0  0  0  0  0  0  0
   -1.8550  150.9620   52.2300 Br  0  0  0  0  0  0  0  0  0  0  0  0
    0.0000    0.0000    0.0000 H   0  0  0  0  0  0  0  0  0  0  0  0
    0.0000    0.0000    0.0000 H   0  0  0  0  0  0  0  0  0  0  0  0
    0.0000    0.0000    0.0000 H   0  0  0  0  0  0  0  0  0  0  0  0
    0.0000    0.0000    0.0000 H   0  0  0  0  0  0  0  0  0  0  0  0
    0.0000    0.0000    0.0000 H   0  0  0  0  0  0  0  0  0  0  0  0
    0.0000    0.0000    0.0000 H   0  0  0  0  0  0  0  0  0  0  0  0
    0.0000    0.0000    0.0000 H   0  0  0  0  0  0  0  0  0  0  0  0
    0.0000    0.0000    0.0000 H   0  0  0  0  0  0  0  0  0  0  0  0
    0.0000    0.0000    0.0000 H   0  0  0  0  0  0  0  0  0  0  0  0
    0.0000    0.0000    0.0000 H   0  0  0  0  0  0  0  0  0  0  0  0
    0.0000    0.0000    0.0000 H   0  0  0  0  0  0  0  0  0  0  0  0
    0.0000    0.0000    0.0000 H   0  0  0  0  0  0  0  0  0  0  0  0
    0.0000    0.0000    0.0000 H   0  0  0  0  0  0  0  0  0  0  0  0
    0.0000    0.0000    0.0000 H   0  0  0  0  0  0  0  0  0  0  0  0
    1.4286   71.2791   27.0982 C   0  0  2  0  0  0  0  0  0  0  0  0
    0.0106   71.1189   27.4853 C   0  0  0  0  0  0  0  0  0  0  0  0
    2.4167   70.7718   27.9295 N   0  0  0  0  0  0  0  0  0  0  0  0
    1.6560   71.6380   26.1204 H   0  0  0  0  0  0  0  0  0  0  0  0
   -0.6162   71.7809   26.8613 H   0  0  0  0  0  0  0  0  0  0  0  0
   -0.2155   71.4183   28.5487 H   0  0  0  0  0  0  0  0  0  0  0  0
   -0.2730   70.0784   27.3943 H   0  0  0  0  0  0  0  0  0  0  0  0
    2.1834   70.9124   28.9515 H   0  0  0  0  0  0  0  0  0  0  0  0
    3.3340   71.2749   27.7402 H   0  0  0  0  0  0  0  0  0  0  0  0
  1  3  2  0
  1  7  1  0
  2 23  3  0
  3  4  1  0
  3 20  1  0
  4  5  2  0
  4  8  1  0
  5  6  1  0
  6  7  2  0
  6 18  1  0
  7 24  1  0
  8  9  1  0
  9 10  1  0
  9 12  2  0
 10 11  1  0
 11 13  2  0
 11 17  1  0
 13 14  1  0
 14 15  2  0
 15 16  1  0
 15 23  1  0
 16 17  2  0
 16 22  1  0
 18 19  1  0
 20 21  1  0
  1 25  1  0
  5 26  1  0
  8 27  1  0
  8 28  1  0
 10 29  1  0
 17 30  1  0
 19 31  1  0
 19 32  1  0
 19 33  1  0
 21 34  1  0
 21 35  1  0
 21 36  1  0
 22 37  1  0
 22 38  1  0
 39 40  1  0
 39 41  1  0
 39 42  1  1
 40 43  1  0
 40 44  1  0
 40 45  1  0
 41 46  1  0
 41 47  1  0
 14 39  1  0
M  END
>  <attachment_point>  (498) 
29

>  <score>  (498) 
<NA>

$$$$
2gmx
     RDKit          3D

 58 60  0  0  0  0  0  0  0  0999 V2000
    0.6680  149.6310   52.1780 C   0  0  0  0  0  0  0  0  0  0  0  0
    3.0090  140.6200   56.4870 N   0  0  0  0  0  0  0  0  0  0  0  0
    1.9620  149.2640   52.6280 C   0  0  0  0  0  0  0  0  0  0  0  0
    2.4660  149.8330   53.8590 C   0  0  0  0  0  0  0  0  0  0  0  0
    1.6570  150.7410   54.6000 C   0  0  0  0  0  0  0  0  0  0  0  0
    0.3580  151.1130   54.1650 C   0  0  0  0  0  0  0  0  0  0  0  0
   -0.1340  150.5380   52.9220 C   0  0  0  0  0  0  0  0  0  0  0  0
    3.8340  149.4930   54.3900 C   0  0  0  0  0  0  0  0  0  0  0  0
    3.7760  148.3010   55.3550 C   0  0  0  0  0  0  0  0  0  0  0  0
    3.6080  147.1180   54.7070 N   0  0  0  0  0  0  0  0  0  0  0  0
    3.5230  145.8440   55.1920 C   0  0  0  0  0  0  0  0  0  0  0  0
    3.8880  148.4710   56.5680 O   0  0  0  0  0  0  0  0  0  0  0  0
    3.0190  144.9720   54.2890 N   0  0  0  0  0  0  0  0  0  0  0  0
    2.8790  143.6460   54.6100 C   0  0  0  0  0  0  0  0  0  0  0  0
    3.2540  143.1490   55.8980 C   0  0  0  0  0  0  0  0  0  0  0  0
    3.7840  144.0620   56.8580 C   0  0  0  0  0  0  0  0  0  0  0  0
    3.9180  145.4220   56.4980 C   0  0  0  0  0  0  0  0  0  0  0  0
   -0.4210  152.0200   54.9250 O   0  0  0  0  0  0  0  0  0  0  0  0
   -1.4550  151.4120   55.7020 C   0  0  0  0  0  0  0  0  0  0  0  0
    2.7960  148.3740   51.9370 O   0  0  0  0  0  0  0  0  0  0  0  0
    2.1840  147.2640   51.2740 C   0  0  0  0  0  0  0  0  0  0  0  0
    4.1700  143.6740   58.1190 N   0  0  0  0  0  0  0  0  0  0  0  0
    3.1040  141.7440   56.2230 C   0  0  0  0  0  0  0  0  0  0  0  0
   -1.8550  150.9620   52.2300 Br  0  0  0  0  0  0  0  0  0  0  0  0
    0.0000    0.0000    0.0000 H   0  0  0  0  0  0  0  0  0  0  0  0
    0.0000    0.0000    0.0000 H   0  0  0  0  0  0  0  0  0  0  0  0
    0.0000    0.0000    0.0000 H   0  0  0  0  0  0  0  0  0  0  0  0
    0.0000    0.0000    0.0000 H   0  0  0  0  0  0  0  0  0  0  0  0
    0.0000    0.0000    0.0000 H   0  0  0  0  0  0  0  0  0  0  0  0
    0.0000    0.0000    0.0000 H   0  0  0  0  0  0  0  0  0  0  0  0
    0.0000    0.0000    0.0000 H   0  0  0  0  0  0  0  0  0  0  0  0
    0.0000    0.0000    0.0000 H   0  0  0  0  0  0  0  0  0  0  0  0
    0.0000    0.0000    0.0000 H   0  0  0  0  0  0  0  0  0  0  0  0
    0.0000    0.0000    0.0000 H   0  0  0  0  0  0  0  0  0  0  0  0
    0.0000    0.0000    0.0000 H   0  0  0  0  0  0  0  0  0  0  0  0
    0.0000    0.0000    0.0000 H   0  0  0  0  0  0  0  0  0  0  0  0
    0.0000    0.0000    0.0000 H   0  0  0  0  0  0  0  0  0  0  0  0
    0.0000    0.0000    0.0000 H   0  0  0  0  0  0  0  0  0  0  0  0
    1.4305   71.3736   27.1342 C   0  0  0  0  0  0  0  0  0  0  0  0
    2.1413   70.4072   27.7759 C   0  0  0  0  0  0  0  0  0  0  0  0
    2.0863   69.1111   27.2429 C   0  0  0  0  0  0  0  0  0  0  0  0
    1.3288   68.8632   26.1084 C   0  0  0  0  0  0  0  0  0  0  0  0
    1.2705   67.5687   25.5714 O   0  0  0  0  0  0  0  0  0  0  0  0
    0.4881   67.3699   24.4195 C   0  0  0  0  0  0  0  0  0  0  0  0
   -0.6550   66.4237   24.7445 C   0  0  0  0  0  0  0  0  0  0  0  0
    1.3058   66.8682   23.2516 C   0  0  0  0  0  0  0  0  0  0  0  0
    0.6619   69.8876   25.5476 N   0  0  0  0  0  0  0  0  0  0  0  0
    0.6854   71.1525   26.0261 C   0  0  0  0  0  0  0  0  0  0  0  0
    2.7254   70.5990   28.6512 H   0  0  0  0  0  0  0  0  0  0  0  0
    2.6371   68.3168   27.7243 H   0  0  0  0  0  0  0  0  0  0  0  0
    0.0293   68.3310   24.1242 H   0  0  0  0  0  0  0  0  0  0  0  0
   -1.5056   67.0060   25.1953 H   0  0  0  0  0  0  0  0  0  0  0  0
   -1.0558   65.9805   23.8160 H   0  0  0  0  0  0  0  0  0  0  0  0
   -0.3750   65.6747   25.5062 H   0  0  0  0  0  0  0  0  0  0  0  0
    1.4422   67.6603   22.4742 H   0  0  0  0  0  0  0  0  0  0  0  0
    0.8256   66.0042   22.7502 H   0  0  0  0  0  0  0  0  0  0  0  0
    2.3169   66.5776   23.6125 H   0  0  0  0  0  0  0  0  0  0  0  0
    0.1351   71.9478   25.5458 H   0  0  0  0  0  0  0  0  0  0  0  0
  1  3  2  0
  1  7  1  0
  2 23  3  0
  3  4  1  0
  3 20  1  0
  4  5  2  0
  4  8  1  0
  5  6  1  0
  6  7  2  0
  6 18  1  0
  7 24  1  0
  8  9  1  0
  9 10  1  0
  9 12  2  0
 10 11  1  0
 11 13  2  0
 11 17  1  0
 13 14  1  0
 14 15  2  0
 15 16  1  0
 15 23  1  0
 16 17  2  0
 16 22  1  0
 18 19  1  0
 20 21  1  0
  1 25  1  0
  5 26  1  0
  8 27  1  0
  8 28  1  0
 10 29  1  0
 17 30  1  0
 19 31  1  0
 19 32  1  0
 19 33  1  0
 21 34  1  0
 21 35  1  0
 21 36  1  0
 22 37  1  0
 22 38  1  0
 39 40  2  0
 40 41  1  0
 41 42  2  0
 42 43  1  0
 43 44  1  0
 44 45  1  0
 44 46  1  0
 42 47  1  0
 47 48  2  0
 48 39  1  0
 40 49  1  0
 41 50  1  0
 44 51  1  0
 45 52  1  0
 45 53  1  0
 45 54  1  0
 46 55  1  0
 46 56  1  0
 46 57  1  0
 48 58  1  0
 14 39  1  0
M  END
>  <attachment_point>  (499) 
29

>  <score>  (499) 
<NA>

$$$$
2gmx
     RDKit          3D

 54 57  0  0  0  0  0  0  0  0999 V2000
    0.6680  149.6310   52.1780 C   0  0  0  0  0  0  0  0  0  0  0  0
    3.0090  140.6200   56.4870 N   0  0  0  0  0  0  0  0  0  0  0  0
    1.9620  149.2640   52.6280 C   0  0  0  0  0  0  0  0  0  0  0  0
    2.4660  149.8330   53.8590 C   0  0  0  0  0  0  0  0  0  0  0  0
    1.6570  150.7410   54.6000 C   0  0  0  0  0  0  0  0  0  0  0  0
    0.3580  151.1130   54.1650 C   0  0  0  0  0  0  0  0  0  0  0  0
   -0.1340  150.5380   52.9220 C   0  0  0  0  0  0  0  0  0  0  0  0
    3.8340  149.4930   54.3900 C   0  0  0  0  0  0  0  0  0  0  0  0
    3.7760  148.3010   55.3550 C   0  0  0  0  0  0  0  0  0  0  0  0
    3.6080  147.1180   54.7070 N   0  0  0  0  0  0  0  0  0  0  0  0
    3.5230  145.8440   55.1920 C   0  0  0  0  0  0  0  0  0  0  0  0
    3.8880  148.4710   56.5680 O   0  0  0  0  0  0  0  0  0  0  0  0
    3.0190  144.9720   54.2890 N   0  0  0  0  0  0  0  0  0  0  0  0
    2.8790  143.6460   54.6100 C   0  0  0  0  0  0  0  0  0  0  0  0
    3.2540  143.1490   55.8980 C   0  0  0  0  0  0  0  0  0  0  0  0
    3.7840  144.0620   56.8580 C   0  0  0  0  0  0  0  0  0  0  0  0
    3.9180  145.4220   56.4980 C   0  0  0  0  0  0  0  0  0  0  0  0
   -0.4210  152.0200   54.9250 O   0  0  0  0  0  0  0  0  0  0  0  0
   -1.4550  151.4120   55.7020 C   0  0  0  0  0  0  0  0  0  0  0  0
    2.7960  148.3740   51.9370 O   0  0  0  0  0  0  0  0  0  0  0  0
    2.1840  147.2640   51.2740 C   0  0  0  0  0  0  0  0  0  0  0  0
    4.1700  143.6740   58.1190 N   0  0  0  0  0  0  0  0  0  0  0  0
    3.1040  141.7440   56.2230 C   0  0  0  0  0  0  0  0  0  0  0  0
   -1.8550  150.9620   52.2300 Br  0  0  0  0  0  0  0  0  0  0  0  0
    0.0000    0.0000    0.0000 H   0  0  0  0  0  0  0  0  0  0  0  0
    0.0000    0.0000    0.0000 H   0  0  0  0  0  0  0  0  0  0  0  0
    0.0000    0.0000    0.0000 H   0  0  0  0  0  0  0  0  0  0  0  0
    0.0000    0.0000    0.0000 H   0  0  0  0  0  0  0  0  0  0  0  0
    0.0000    0.0000    0.0000 H   0  0  0  0  0  0  0  0  0  0  0  0
    0.0000    0.0000    0.0000 H   0  0  0  0  0  0  0  0  0  0  0  0
    0.0000    0.0000    0.0000 H   0  0  0  0  0  0  0  0  0  0  0  0
    0.0000    0.0000    0.0000 H   0  0  0  0  0  0  0  0  0  0  0  0
    0.0000    0.0000    0.0000 H   0  0  0  0  0  0  0  0  0  0  0  0
    0.0000    0.0000    0.0000 H   0  0  0  0  0  0  0  0  0  0  0  0
    0.0000    0.0000    0.0000 H   0  0  0  0  0  0  0  0  0  0  0  0
    0.0000    0.0000    0.0000 H   0  0  0  0  0  0  0  0  0  0  0  0
    0.0000    0.0000    0.0000 H   0  0  0  0  0  0  0  0  0  0  0  0
    0.0000    0.0000    0.0000 H   0  0  0  0  0  0  0  0  0  0  0  0
    1.4304   71.3702   27.1329 C   0  0  0  0  0  0  0  0  0  0  0  0
    2.1637   71.1651   26.0078 C   0  0  0  0  0  0  0  0  0  0  0  0
    2.1613   69.9138   25.4999 N   0  0  0  0  0  0  0  0  0  0  0  0
    1.4685   68.9035   26.0703 C   0  0  0  0  0  0  0  0  0  0  0  0
    0.7352   69.1525   27.2132 C   0  0  0  0  0  0  0  0  0  0  0  0
    0.0106   68.1624   27.8374 C   0  0  0  0  0  0  0  0  0  0  0  0
   -0.7088   68.4463   28.9748 C   0  0  0  0  0  0  0  0  0  0  0  0
   -0.7549   69.6979   29.5520 C   0  0  0  0  0  0  0  0  0  0  0  0
   -0.0328   70.6972   28.9351 C   0  0  0  0  0  0  0  0  0  0  0  0
    0.6952   70.4320   27.7931 C   0  0  0  0  0  0  0  0  0  0  0  0
    2.7222   71.9841   25.5497 H   0  0  0  0  0  0  0  0  0  0  0  0
    1.5052   67.9138   25.6137 H   0  0  0  0  0  0  0  0  0  0  0  0
    0.0347   67.1638   27.3950 H   0  0  0  0  0  0  0  0  0  0  0  0
   -1.2738   67.6315   29.4439 H   0  0  0  0  0  0  0  0  0  0  0  0
   -1.3401   69.8709   30.4535 H   0  0  0  0  0  0  0  0  0  0  0  0
   -0.0448   71.6954   29.3602 H   0  0  0  0  0  0  0  0  0  0  0  0
  1  3  2  0
  1  7  1  0
  2 23  3  0
  3  4  1  0
  3 20  1  0
  4  5  2  0
  4  8  1  0
  5  6  1  0
  6  7  2  0
  6 18  1  0
  7 24  1  0
  8  9  1  0
  9 10  1  0
  9 12  2  0
 10 11  1  0
 11 13  2  0
 11 17  1  0
 13 14  1  0
 14 15  2  0
 15 16  1  0
 15 23  1  0
 16 17  2  0
 16 22  1  0
 18 19  1  0
 20 21  1  0
  1 25  1  0
  5 26  1  0
  8 27  1  0
  8 28  1  0
 10 29  1  0
 17 30  1  0
 19 31  1  0
 19 32  1  0
 19 33  1  0
 21 34  1  0
 21 35  1  0
 21 36  1  0
 22 37  1  0
 22 38  1  0
 39 40  2  0
 40 41  1  0
 41 42  2  0
 42 43  1  0
 43 44  2  0
 44 45  1  0
 45 46  2  0
 46 47  1  0
 47 48  2  0
 48 39  1  0
 48 43  1  0
 40 49  1  0
 42 50  1  0
 44 51  1  0
 45 52  1  0
 46 53  1  0
 47 54  1  0
 14 39  1  0
M  END
>  <attachment_point>  (500) 
29

>  <score>  (500) 
<NA>

$$$$
2gmx
     RDKit          3D

 51 53  0  0  0  0  0  0  0  0999 V2000
    0.6680  149.6310   52.1780 C   0  0  0  0  0  0  0  0  0  0  0  0
    3.0090  140.6200   56.4870 N   0  0  0  0  0  0  0  0  0  0  0  0
    1.9620  149.2640   52.6280 C   0  0  0  0  0  0  0  0  0  0  0  0
    2.4660  149.8330   53.8590 C   0  0  0  0  0  0  0  0  0  0  0  0
    1.6570  150.7410   54.6000 C   0  0  0  0  0  0  0  0  0  0  0  0
    0.3580  151.1130   54.1650 C   0  0  0  0  0  0  0  0  0  0  0  0
   -0.1340  150.5380   52.9220 C   0  0  0  0  0  0  0  0  0  0  0  0
    3.8340  149.4930   54.3900 C   0  0  0  0  0  0  0  0  0  0  0  0
    3.7760  148.3010   55.3550 C   0  0  0  0  0  0  0  0  0  0  0  0
    3.6080  147.1180   54.7070 N   0  0  0  0  0  0  0  0  0  0  0  0
    3.5230  145.8440   55.1920 C   0  0  0  0  0  0  0  0  0  0  0  0
    3.8880  148.4710   56.5680 O   0  0  0  0  0  0  0  0  0  0  0  0
    3.0190  144.9720   54.2890 N   0  0  0  0  0  0  0  0  0  0  0  0
    2.8790  143.6460   54.6100 C   0  0  0  0  0  0  0  0  0  0  0  0
    3.2540  143.1490   55.8980 C   0  0  0  0  0  0  0  0  0  0  0  0
    3.7840  144.0620   56.8580 C   0  0  0  0  0  0  0  0  0  0  0  0
    3.9180  145.4220   56.4980 C   0  0  0  0  0  0  0  0  0  0  0  0
   -0.4210  152.0200   54.9250 O   0  0  0  0  0  0  0  0  0  0  0  0
   -1.4550  151.4120   55.7020 C   0  0  0  0  0  0  0  0  0  0  0  0
    2.7960  148.3740   51.9370 O   0  0  0  0  0  0  0  0  0  0  0  0
    2.1840  147.2640   51.2740 C   0  0  0  0  0  0  0  0  0  0  0  0
    4.1700  143.6740   58.1190 N   0  0  0  0  0  0  0  0  0  0  0  0
    3.1040  141.7440   56.2230 C   0  0  0  0  0  0  0  0  0  0  0  0
   -1.8550  150.9620   52.2300 Br  0  0  0  0  0  0  0  0  0  0  0  0
    0.0000    0.0000    0.0000 H   0  0  0  0  0  0  0  0  0  0  0  0
    0.0000    0.0000    0.0000 H   0  0  0  0  0  0  0  0  0  0  0  0
    0.0000    0.0000    0.0000 H   0  0  0  0  0  0  0  0  0  0  0  0
    0.0000    0.0000    0.0000 H   0  0  0  0  0  0  0  0  0  0  0  0
    0.0000    0.0000    0.0000 H   0  0  0  0  0  0  0  0  0  0  0  0
    0.0000    0.0000    0.0000 H   0  0  0  0  0  0  0  0  0  0  0  0
    0.0000    0.0000    0.0000 H   0  0  0  0  0  0  0  0  0  0  0  0
    0.0000    0.0000    0.0000 H   0  0  0  0  0  0  0  0  0  0  0  0
    0.0000    0.0000    0.0000 H   0  0  0  0  0  0  0  0  0  0  0  0
    0.0000    0.0000    0.0000 H   0  0  0  0  0  0  0  0  0  0  0  0
    0.0000    0.0000    0.0000 H   0  0  0  0  0  0  0  0  0  0  0  0
    0.0000    0.0000    0.0000 H   0  0  0  0  0  0  0  0  0  0  0  0
    0.0000    0.0000    0.0000 H   0  0  0  0  0  0  0  0  0  0  0  0
    0.0000    0.0000    0.0000 H   0  0  0  0  0  0  0  0  0  0  0  0
    1.4303   71.3656   27.1311 C   0  0  0  0  0  0  0  0  0  0  0  0
    0.6133   71.1798   26.0597 C   0  0  0  0  0  0  0  0  0  0  0  0
    0.5022   69.9070   25.4705 C   0  0  0  0  0  0  0  0  0  0  0  0
    1.2451   68.9042   26.0281 C   0  0  0  0  0  0  0  0  0  0  0  0
    1.2117   67.5166   25.4937 C   0  0  0  0  0  0  0  0  0  0  0  0
    2.0449   69.1669   27.1056 C   0  0  0  0  0  0  0  0  0  0  0  0
    2.1414   70.4176   27.6691 N   0  0  0  0  0  0  0  0  0  0  0  0
    0.0589   71.9913   25.6659 H   0  0  0  0  0  0  0  0  0  0  0  0
   -0.1263   69.7173   24.6297 H   0  0  0  0  0  0  0  0  0  0  0  0
    0.8980   66.8639   26.3347 H   0  0  0  0  0  0  0  0  0  0  0  0
    2.2636   67.2052   25.2449 H   0  0  0  0  0  0  0  0  0  0  0  0
    0.6225   67.4117   24.5870 H   0  0  0  0  0  0  0  0  0  0  0  0
    2.6289   68.3560   27.5360 H   0  0  0  0  0  0  0  0  0  0  0  0
  1  3  2  0
  1  7  1  0
  2 23  3  0
  3  4  1  0
  3 20  1  0
  4  5  2  0
  4  8  1  0
  5  6  1  0
  6  7  2  0
  6 18  1  0
  7 24  1  0
  8  9  1  0
  9 10  1  0
  9 12  2  0
 10 11  1  0
 11 13  2  0
 11 17  1  0
 13 14  1  0
 14 15  2  0
 15 16  1  0
 15 23  1  0
 16 17  2  0
 16 22  1  0
 18 19  1  0
 20 21  1  0
  1 25  1  0
  5 26  1  0
  8 27  1  0
  8 28  1  0
 10 29  1  0
 17 30  1  0
 19 31  1  0
 19 32  1  0
 19 33  1  0
 21 34  1  0
 21 35  1  0
 21 36  1  0
 22 37  1  0
 22 38  1  0
 39 40  2  0
 40 41  1  0
 41 42  2  0
 42 43  1  0
 42 44  1  0
 44 45  2  0
 45 39  1  0
 40 46  1  0
 41 47  1  0
 43 48  1  0
 43 49  1  0
 43 50  1  0
 44 51  1  0
 14 39  1  0
M  END
>  <attachment_point>  (501) 
29

>  <score>  (501) 
<NA>

$$$$
2gmx
     RDKit          3D

 59 61  0  0  0  0  0  0  0  0999 V2000
    0.6680  149.6310   52.1780 C   0  0  0  0  0  0  0  0  0  0  0  0
    3.0090  140.6200   56.4870 N   0  0  0  0  0  0  0  0  0  0  0  0
    1.9620  149.2640   52.6280 C   0  0  0  0  0  0  0  0  0  0  0  0
    2.4660  149.8330   53.8590 C   0  0  0  0  0  0  0  0  0  0  0  0
    1.6570  150.7410   54.6000 C   0  0  0  0  0  0  0  0  0  0  0  0
    0.3580  151.1130   54.1650 C   0  0  0  0  0  0  0  0  0  0  0  0
   -0.1340  150.5380   52.9220 C   0  0  0  0  0  0  0  0  0  0  0  0
    3.8340  149.4930   54.3900 C   0  0  0  0  0  0  0  0  0  0  0  0
    3.7760  148.3010   55.3550 C   0  0  0  0  0  0  0  0  0  0  0  0
    3.6080  147.1180   54.7070 N   0  0  0  0  0  0  0  0  0  0  0  0
    3.5230  145.8440   55.1920 C   0  0  0  0  0  0  0  0  0  0  0  0
    3.8880  148.4710   56.5680 O   0  0  0  0  0  0  0  0  0  0  0  0
    3.0190  144.9720   54.2890 N   0  0  0  0  0  0  0  0  0  0  0  0
    2.8790  143.6460   54.6100 C   0  0  0  0  0  0  0  0  0  0  0  0
    3.2540  143.1490   55.8980 C   0  0  0  0  0  0  0  0  0  0  0  0
    3.7840  144.0620   56.8580 C   0  0  0  0  0  0  0  0  0  0  0  0
    3.9180  145.4220   56.4980 C   0  0  0  0  0  0  0  0  0  0  0  0
   -0.4210  152.0200   54.9250 O   0  0  0  0  0  0  0  0  0  0  0  0
   -1.4550  151.4120   55.7020 C   0  0  0  0  0  0  0  0  0  0  0  0
    2.7960  148.3740   51.9370 O   0  0  0  0  0  0  0  0  0  0  0  0
    2.1840  147.2640   51.2740 C   0  0  0  0  0  0  0  0  0  0  0  0
    4.1700  143.6740   58.1190 N   0  0  0  0  0  0  0  0  0  0  0  0
    3.1040  141.7440   56.2230 C   0  0  0  0  0  0  0  0  0  0  0  0
   -1.8550  150.9620   52.2300 Br  0  0  0  0  0  0  0  0  0  0  0  0
    0.0000    0.0000    0.0000 H   0  0  0  0  0  0  0  0  0  0  0  0
    0.0000    0.0000    0.0000 H   0  0  0  0  0  0  0  0  0  0  0  0
    0.0000    0.0000    0.0000 H   0  0  0  0  0  0  0  0  0  0  0  0
    0.0000    0.0000    0.0000 H   0  0  0  0  0  0  0  0  0  0  0  0
    0.0000    0.0000    0.0000 H   0  0  0  0  0  0  0  0  0  0  0  0
    0.0000    0.0000    0.0000 H   0  0  0  0  0  0  0  0  0  0  0  0
    0.0000    0.0000    0.0000 H   0  0  0  0  0  0  0  0  0  0  0  0
    0.0000    0.0000    0.0000 H   0  0  0  0  0  0  0  0  0  0  0  0
    0.0000    0.0000    0.0000 H   0  0  0  0  0  0  0  0  0  0  0  0
    0.0000    0.0000    0.0000 H   0  0  0  0  0  0  0  0  0  0  0  0
    0.0000    0.0000    0.0000 H   0  0  0  0  0  0  0  0  0  0  0  0
    0.0000    0.0000    0.0000 H   0  0  0  0  0  0  0  0  0  0  0  0
    0.0000    0.0000    0.0000 H   0  0  0  0  0  0  0  0  0  0  0  0
    0.0000    0.0000    0.0000 H   0  0  0  0  0  0  0  0  0  0  0  0
    1.4269   71.1934   27.0656 B   0  0  0  0  0  0  0  0  0  0  0  0
    0.1127   71.3032   26.4087 O   0  0  0  0  0  0  0  0  0  0  0  0
   -0.6184   70.3648   27.1668 C   0  0  0  0  0  0  0  0  0  0  0  0
   -0.0774   69.0079   26.7947 C   0  0  0  0  0  0  0  0  0  0  0  0
   -2.0870   70.5010   27.0110 C   0  0  0  0  0  0  0  0  0  0  0  0
   -0.1220   70.7062   28.5652 C   0  0  0  0  0  0  0  0  0  0  0  0
   -0.6862   69.7899   29.5994 C   0  0  0  0  0  0  0  0  0  0  0  0
   -0.3124   72.1656   28.8925 C   0  0  0  0  0  0  0  0  0  0  0  0
    1.2598   70.5202   28.3686 O   0  0  0  0  0  0  0  0  0  0  0  0
    1.0163   69.0333   27.0579 H   0  0  0  0  0  0  0  0  0  0  0  0
   -0.1287   68.8504   25.6876 H   0  0  0  0  0  0  0  0  0  0  0  0
   -0.6059   68.1721   27.2621 H   0  0  0  0  0  0  0  0  0  0  0  0
   -2.5247   71.1713   27.7646 H   0  0  0  0  0  0  0  0  0  0  0  0
   -2.3752   70.7464   25.9706 H   0  0  0  0  0  0  0  0  0  0  0  0
   -2.5409   69.4849   27.2033 H   0  0  0  0  0  0  0  0  0  0  0  0
   -0.8638   68.7841   29.1908 H   0  0  0  0  0  0  0  0  0  0  0  0
   -1.6864   70.1896   29.8890 H   0  0  0  0  0  0  0  0  0  0  0  0
   -0.0472   69.6762   30.4881 H   0  0  0  0  0  0  0  0  0  0  0  0
   -1.3528   72.4658   29.0216 H   0  0  0  0  0  0  0  0  0  0  0  0
    0.2288   72.7436   28.0993 H   0  0  0  0  0  0  0  0  0  0  0  0
    0.2118   72.3555   29.8461 H   0  0  0  0  0  0  0  0  0  0  0  0
  1  3  2  0
  1  7  1  0
  2 23  3  0
  3  4  1  0
  3 20  1  0
  4  5  2  0
  4  8  1  0
  5  6  1  0
  6  7  2  0
  6 18  1  0
  7 24  1  0
  8  9  1  0
  9 10  1  0
  9 12  2  0
 10 11  1  0
 11 13  2  0
 11 17  1  0
 13 14  1  0
 14 15  2  0
 15 16  1  0
 15 23  1  0
 16 17  2  0
 16 22  1  0
 18 19  1  0
 20 21  1  0
  1 25  1  0
  5 26  1  0
  8 27  1  0
  8 28  1  0
 10 29  1  0
 17 30  1  0
 19 31  1  0
 19 32  1  0
 19 33  1  0
 21 34  1  0
 21 35  1  0
 21 36  1  0
 22 37  1  0
 22 38  1  0
 39 40  1  0
 40 41  1  0
 41 42  1  0
 41 43  1  0
 41 44  1  0
 44 45  1  0
 44 46  1  0
 44 47  1  0
 47 39  1  0
 42 48  1  0
 42 49  1  0
 42 50  1  0
 43 51  1  0
 43 52  1  0
 43 53  1  0
 45 54  1  0
 45 55  1  0
 45 56  1  0
 46 57  1  0
 46 58  1  0
 46 59  1  0
 14 39  1  0
M  END
>  <attachment_point>  (502) 
29

>  <score>  (502) 
<NA>

$$$$
2gmx
     RDKit          3D

 59 61  0  0  0  0  0  0  0  0999 V2000
    0.6680  149.6310   52.1780 C   0  0  0  0  0  0  0  0  0  0  0  0
    3.0090  140.6200   56.4870 N   0  0  0  0  0  0  0  0  0  0  0  0
    1.9620  149.2640   52.6280 C   0  0  0  0  0  0  0  0  0  0  0  0
    2.4660  149.8330   53.8590 C   0  0  0  0  0  0  0  0  0  0  0  0
    1.6570  150.7410   54.6000 C   0  0  0  0  0  0  0  0  0  0  0  0
    0.3580  151.1130   54.1650 C   0  0  0  0  0  0  0  0  0  0  0  0
   -0.1340  150.5380   52.9220 C   0  0  0  0  0  0  0  0  0  0  0  0
    3.8340  149.4930   54.3900 C   0  0  0  0  0  0  0  0  0  0  0  0
    3.7760  148.3010   55.3550 C   0  0  0  0  0  0  0  0  0  0  0  0
    3.6080  147.1180   54.7070 N   0  0  0  0  0  0  0  0  0  0  0  0
    3.5230  145.8440   55.1920 C   0  0  0  0  0  0  0  0  0  0  0  0
    3.8880  148.4710   56.5680 O   0  0  0  0  0  0  0  0  0  0  0  0
    3.0190  144.9720   54.2890 N   0  0  0  0  0  0  0  0  0  0  0  0
    2.8790  143.6460   54.6100 C   0  0  0  0  0  0  0  0  0  0  0  0
    3.2540  143.1490   55.8980 C   0  0  0  0  0  0  0  0  0  0  0  0
    3.7840  144.0620   56.8580 C   0  0  0  0  0  0  0  0  0  0  0  0
    3.9180  145.4220   56.4980 C   0  0  0  0  0  0  0  0  0  0  0  0
   -0.4210  152.0200   54.9250 O   0  0  0  0  0  0  0  0  0  0  0  0
   -1.4550  151.4120   55.7020 C   0  0  0  0  0  0  0  0  0  0  0  0
    2.7960  148.3740   51.9370 O   0  0  0  0  0  0  0  0  0  0  0  0
    2.1840  147.2640   51.2740 C   0  0  0  0  0  0  0  0  0  0  0  0
    4.1700  143.6740   58.1190 N   0  0  0  0  0  0  0  0  0  0  0  0
    3.1040  141.7440   56.2230 C   0  0  0  0  0  0  0  0  0  0  0  0
   -1.8550  150.9620   52.2300 Br  0  0  0  0  0  0  0  0  0  0  0  0
    0.0000    0.0000    0.0000 H   0  0  0  0  0  0  0  0  0  0  0  0
    0.0000    0.0000    0.0000 H   0  0  0  0  0  0  0  0  0  0  0  0
    0.0000    0.0000    0.0000 H   0  0  0  0  0  0  0  0  0  0  0  0
    0.0000    0.0000    0.0000 H   0  0  0  0  0  0  0  0  0  0  0  0
    0.0000    0.0000    0.0000 H   0  0  0  0  0  0  0  0  0  0  0  0
    0.0000    0.0000    0.0000 H   0  0  0  0  0  0  0  0  0  0  0  0
    0.0000    0.0000    0.0000 H   0  0  0  0  0  0  0  0  0  0  0  0
    0.0000    0.0000    0.0000 H   0  0  0  0  0  0  0  0  0  0  0  0
    0.0000    0.0000    0.0000 H   0  0  0  0  0  0  0  0  0  0  0  0
    0.0000    0.0000    0.0000 H   0  0  0  0  0  0  0  0  0  0  0  0
    0.0000    0.0000    0.0000 H   0  0  0  0  0  0  0  0  0  0  0  0
    0.0000    0.0000    0.0000 H   0  0  0  0  0  0  0  0  0  0  0  0
    0.0000    0.0000    0.0000 H   0  0  0  0  0  0  0  0  0  0  0  0
    0.0000    0.0000    0.0000 H   0  0  0  0  0  0  0  0  0  0  0  0
    1.4304   71.3694   27.1326 C   0  0  0  0  0  0  0  0  0  0  0  0
    2.1904   71.0726   26.0758 C   0  0  0  0  0  0  0  0  0  0  0  0
    2.1420   69.7641   25.6056 C   0  0  0  0  0  0  0  0  0  0  0  0
    1.3353   68.7942   26.2070 C   0  0  0  0  0  0  0  0  0  0  0  0
    1.3330   67.5082   25.6889 O   0  0  0  0  0  0  0  0  0  0  0  0
    0.6087   66.4171   26.1399 C   0  0  0  0  0  0  0  0  0  0  0  0
   -0.2583   65.8319   25.0230 C   0  0  0  0  0  0  0  0  0  0  0  0
    1.6497   65.3357   26.4782 C   0  0  0  0  0  0  0  0  0  0  0  0
    0.5692   69.1524   27.2960 C   0  0  0  0  0  0  0  0  0  0  0  0
    0.6247   70.4843   27.7670 C   0  0  0  0  0  0  0  0  0  0  0  0
    2.8459   71.7731   25.5518 H   0  0  0  0  0  0  0  0  0  0  0  0
    2.7224   69.4388   24.7587 H   0  0  0  0  0  0  0  0  0  0  0  0
   -0.0169   66.6497   27.0048 H   0  0  0  0  0  0  0  0  0  0  0  0
   -0.6991   66.6770   24.4820 H   0  0  0  0  0  0  0  0  0  0  0  0
   -1.0175   65.1899   25.5373 H   0  0  0  0  0  0  0  0  0  0  0  0
    0.3169   65.1741   24.3646 H   0  0  0  0  0  0  0  0  0  0  0  0
    1.1678   64.6445   27.1751 H   0  0  0  0  0  0  0  0  0  0  0  0
    2.4833   65.8867   26.9870 H   0  0  0  0  0  0  0  0  0  0  0  0
    1.9550   64.8932   25.5178 H   0  0  0  0  0  0  0  0  0  0  0  0
   -0.0748   68.4523   27.8061 H   0  0  0  0  0  0  0  0  0  0  0  0
    0.0369   70.7811   28.6115 H   0  0  0  0  0  0  0  0  0  0  0  0
  1  3  2  0
  1  7  1  0
  2 23  3  0
  3  4  1  0
  3 20  1  0
  4  5  2  0
  4  8  1  0
  5  6  1  0
  6  7  2  0
  6 18  1  0
  7 24  1  0
  8  9  1  0
  9 10  1  0
  9 12  2  0
 10 11  1  0
 11 13  2  0
 11 17  1  0
 13 14  1  0
 14 15  2  0
 15 16  1  0
 15 23  1  0
 16 17  2  0
 16 22  1  0
 18 19  1  0
 20 21  1  0
  1 25  1  0
  5 26  1  0
  8 27  1  0
  8 28  1  0
 10 29  1  0
 17 30  1  0
 19 31  1  0
 19 32  1  0
 19 33  1  0
 21 34  1  0
 21 35  1  0
 21 36  1  0
 22 37  1  0
 22 38  1  0
 39 40  2  0
 40 41  1  0
 41 42  2  0
 42 43  1  0
 43 44  1  0
 44 45  1  0
 44 46  1  0
 42 47  1  0
 47 48  2  0
 48 39  1  0
 40 49  1  0
 41 50  1  0
 44 51  1  0
 45 52  1  0
 45 53  1  0
 45 54  1  0
 46 55  1  0
 46 56  1  0
 46 57  1  0
 47 58  1  0
 48 59  1  0
 14 39  1  0
M  END
>  <attachment_point>  (503) 
29

>  <score>  (503) 
<NA>

$$$$
2gmx
     RDKit          3D

 55 57  0  0  0  0  0  0  0  0999 V2000
    0.6680  149.6310   52.1780 C   0  0  0  0  0  0  0  0  0  0  0  0
    3.0090  140.6200   56.4870 N   0  0  0  0  0  0  0  0  0  0  0  0
    1.9620  149.2640   52.6280 C   0  0  0  0  0  0  0  0  0  0  0  0
    2.4660  149.8330   53.8590 C   0  0  0  0  0  0  0  0  0  0  0  0
    1.6570  150.7410   54.6000 C   0  0  0  0  0  0  0  0  0  0  0  0
    0.3580  151.1130   54.1650 C   0  0  0  0  0  0  0  0  0  0  0  0
   -0.1340  150.5380   52.9220 C   0  0  0  0  0  0  0  0  0  0  0  0
    3.8340  149.4930   54.3900 C   0  0  0  0  0  0  0  0  0  0  0  0
    3.7760  148.3010   55.3550 C   0  0  0  0  0  0  0  0  0  0  0  0
    3.6080  147.1180   54.7070 N   0  0  0  0  0  0  0  0  0  0  0  0
    3.5230  145.8440   55.1920 C   0  0  0  0  0  0  0  0  0  0  0  0
    3.8880  148.4710   56.5680 O   0  0  0  0  0  0  0  0  0  0  0  0
    3.0190  144.9720   54.2890 N   0  0  0  0  0  0  0  0  0  0  0  0
    2.8790  143.6460   54.6100 C   0  0  0  0  0  0  0  0  0  0  0  0
    3.2540  143.1490   55.8980 C   0  0  0  0  0  0  0  0  0  0  0  0
    3.7840  144.0620   56.8580 C   0  0  0  0  0  0  0  0  0  0  0  0
    3.9180  145.4220   56.4980 C   0  0  0  0  0  0  0  0  0  0  0  0
   -0.4210  152.0200   54.9250 O   0  0  0  0  0  0  0  0  0  0  0  0
   -1.4550  151.4120   55.7020 C   0  0  0  0  0  0  0  0  0  0  0  0
    2.7960  148.3740   51.9370 O   0  0  0  0  0  0  0  0  0  0  0  0
    2.1840  147.2640   51.2740 C   0  0  0  0  0  0  0  0  0  0  0  0
    4.1700  143.6740   58.1190 N   0  0  0  0  0  0  0  0  0  0  0  0
    3.1040  141.7440   56.2230 C   0  0  0  0  0  0  0  0  0  0  0  0
   -1.8550  150.9620   52.2300 Br  0  0  0  0  0  0  0  0  0  0  0  0
    0.0000    0.0000    0.0000 H   0  0  0  0  0  0  0  0  0  0  0  0
    0.0000    0.0000    0.0000 H   0  0  0  0  0  0  0  0  0  0  0  0
    0.0000    0.0000    0.0000 H   0  0  0  0  0  0  0  0  0  0  0  0
    0.0000    0.0000    0.0000 H   0  0  0  0  0  0  0  0  0  0  0  0
    0.0000    0.0000    0.0000 H   0  0  0  0  0  0  0  0  0  0  0  0
    0.0000    0.0000    0.0000 H   0  0  0  0  0  0  0  0  0  0  0  0
    0.0000    0.0000    0.0000 H   0  0  0  0  0  0  0  0  0  0  0  0
    0.0000    0.0000    0.0000 H   0  0  0  0  0  0  0  0  0  0  0  0
    0.0000    0.0000    0.0000 H   0  0  0  0  0  0  0  0  0  0  0  0
    0.0000    0.0000    0.0000 H   0  0  0  0  0  0  0  0  0  0  0  0
    0.0000    0.0000    0.0000 H   0  0  0  0  0  0  0  0  0  0  0  0
    0.0000    0.0000    0.0000 H   0  0  0  0  0  0  0  0  0  0  0  0
    0.0000    0.0000    0.0000 H   0  0  0  0  0  0  0  0  0  0  0  0
    0.0000    0.0000    0.0000 H   0  0  0  0  0  0  0  0  0  0  0  0
    1.4294   71.3175   27.1128 N   0  0  0  0  0  0  0  0  0  0  0  0
    1.3161   70.4008   28.1157 C   0  0  0  0  0  0  0  0  0  0  0  0
    1.2422   70.6857   29.3577 O   0  0  0  0  0  0  0  0  0  0  0  0
    1.2715   68.9830   27.8079 N   0  0  0  0  0  0  0  0  0  0  0  0
    1.1558   67.9942   28.7961 C   0  0  0  0  0  0  0  0  0  0  0  0
   -0.1157   67.5852   29.1765 C   0  0  0  0  0  0  0  0  0  0  0  0
   -0.3295   66.6190   30.1403 C   0  0  0  0  0  0  0  0  0  0  0  0
    0.7497   66.0462   30.7398 C   0  0  0  0  0  0  0  0  0  0  0  0
    0.4617   64.8225   31.9600 Cl  0  0  0  0  0  0  0  0  0  0  0  0
    2.0221   66.4424   30.3725 C   0  0  0  0  0  0  0  0  0  0  0  0
    2.2248   67.3953   29.4217 C   0  0  0  0  0  0  0  0  0  0  0  0
    1.4942   71.2813   26.1645 H   0  0  0  0  0  0  0  0  0  0  0  0
    1.3328   68.7698   26.7938 H   0  0  0  0  0  0  0  0  0  0  0  0
   -0.9704   68.0486   28.6917 H   0  0  0  0  0  0  0  0  0  0  0  0
   -1.3655   66.3568   30.3788 H   0  0  0  0  0  0  0  0  0  0  0  0
    2.8495   65.9532   30.8824 H   0  0  0  0  0  0  0  0  0  0  0  0
    3.2086   67.7064   29.1329 H   0  0  0  0  0  0  0  0  0  0  0  0
  1  3  2  0
  1  7  1  0
  2 23  3  0
  3  4  1  0
  3 20  1  0
  4  5  2  0
  4  8  1  0
  5  6  1  0
  6  7  2  0
  6 18  1  0
  7 24  1  0
  8  9  1  0
  9 10  1  0
  9 12  2  0
 10 11  1  0
 11 13  2  0
 11 17  1  0
 13 14  1  0
 14 15  2  0
 15 16  1  0
 15 23  1  0
 16 17  2  0
 16 22  1  0
 18 19  1  0
 20 21  1  0
  1 25  1  0
  5 26  1  0
  8 27  1  0
  8 28  1  0
 10 29  1  0
 17 30  1  0
 19 31  1  0
 19 32  1  0
 19 33  1  0
 21 34  1  0
 21 35  1  0
 21 36  1  0
 22 37  1  0
 22 38  1  0
 39 40  1  0
 40 41  2  0
 40 42  1  0
 42 43  1  0
 43 44  2  0
 44 45  1  0
 45 46  2  0
 46 47  1  0
 46 48  1  0
 48 49  2  0
 49 43  1  0
 39 50  1  0
 42 51  1  0
 44 52  1  0
 45 53  1  0
 48 54  1  0
 49 55  1  0
 14 39  1  0
M  END
>  <attachment_point>  (504) 
29

>  <score>  (504) 
<NA>

$$$$
2gmx
     RDKit          3D

 55 57  0  0  0  0  0  0  0  0999 V2000
    0.6680  149.6310   52.1780 C   0  0  0  0  0  0  0  0  0  0  0  0
    3.0090  140.6200   56.4870 N   0  0  0  0  0  0  0  0  0  0  0  0
    1.9620  149.2640   52.6280 C   0  0  0  0  0  0  0  0  0  0  0  0
    2.4660  149.8330   53.8590 C   0  0  0  0  0  0  0  0  0  0  0  0
    1.6570  150.7410   54.6000 C   0  0  0  0  0  0  0  0  0  0  0  0
    0.3580  151.1130   54.1650 C   0  0  0  0  0  0  0  0  0  0  0  0
   -0.1340  150.5380   52.9220 C   0  0  0  0  0  0  0  0  0  0  0  0
    3.8340  149.4930   54.3900 C   0  0  0  0  0  0  0  0  0  0  0  0
    3.7760  148.3010   55.3550 C   0  0  0  0  0  0  0  0  0  0  0  0
    3.6080  147.1180   54.7070 N   0  0  0  0  0  0  0  0  0  0  0  0
    3.5230  145.8440   55.1920 C   0  0  0  0  0  0  0  0  0  0  0  0
    3.8880  148.4710   56.5680 O   0  0  0  0  0  0  0  0  0  0  0  0
    3.0190  144.9720   54.2890 N   0  0  0  0  0  0  0  0  0  0  0  0
    2.8790  143.6460   54.6100 C   0  0  0  0  0  0  0  0  0  0  0  0
    3.2540  143.1490   55.8980 C   0  0  0  0  0  0  0  0  0  0  0  0
    3.7840  144.0620   56.8580 C   0  0  0  0  0  0  0  0  0  0  0  0
    3.9180  145.4220   56.4980 C   0  0  0  0  0  0  0  0  0  0  0  0
   -0.4210  152.0200   54.9250 O   0  0  0  0  0  0  0  0  0  0  0  0
   -1.4550  151.4120   55.7020 C   0  0  0  0  0  0  0  0  0  0  0  0
    2.7960  148.3740   51.9370 O   0  0  0  0  0  0  0  0  0  0  0  0
    2.1840  147.2640   51.2740 C   0  0  0  0  0  0  0  0  0  0  0  0
    4.1700  143.6740   58.1190 N   0  0  0  0  0  0  0  0  0  0  0  0
    3.1040  141.7440   56.2230 C   0  0  0  0  0  0  0  0  0  0  0  0
   -1.8550  150.9620   52.2300 Br  0  0  0  0  0  0  0  0  0  0  0  0
    0.0000    0.0000    0.0000 H   0  0  0  0  0  0  0  0  0  0  0  0
    0.0000    0.0000    0.0000 H   0  0  0  0  0  0  0  0  0  0  0  0
    0.0000    0.0000    0.0000 H   0  0  0  0  0  0  0  0  0  0  0  0
    0.0000    0.0000    0.0000 H   0  0  0  0  0  0  0  0  0  0  0  0
    0.0000    0.0000    0.0000 H   0  0  0  0  0  0  0  0  0  0  0  0
    0.0000    0.0000    0.0000 H   0  0  0  0  0  0  0  0  0  0  0  0
    0.0000    0.0000    0.0000 H   0  0  0  0  0  0  0  0  0  0  0  0
    0.0000    0.0000    0.0000 H   0  0  0  0  0  0  0  0  0  0  0  0
    0.0000    0.0000    0.0000 H   0  0  0  0  0  0  0  0  0  0  0  0
    0.0000    0.0000    0.0000 H   0  0  0  0  0  0  0  0  0  0  0  0
    0.0000    0.0000    0.0000 H   0  0  0  0  0  0  0  0  0  0  0  0
    0.0000    0.0000    0.0000 H   0  0  0  0  0  0  0  0  0  0  0  0
    0.0000    0.0000    0.0000 H   0  0  0  0  0  0  0  0  0  0  0  0
    0.0000    0.0000    0.0000 H   0  0  0  0  0  0  0  0  0  0  0  0
    1.4317   71.4318   27.1563 C   0  0  0  0  0  0  0  0  0  0  0  0
    2.0531   71.1582   25.9355 C   0  0  0  0  0  0  0  0  0  0  0  0
    2.0445   69.8902   25.4234 C   0  0  0  0  0  0  0  0  0  0  0  0
    1.4044   68.8921   26.1485 C   0  0  0  0  0  0  0  0  0  0  0  0
    1.3632   67.4996   25.6426 C   0  0  0  0  0  0  0  0  0  0  0  0
    0.7899   69.1575   27.3534 C   0  0  0  0  0  0  0  0  0  0  0  0
    0.1182   68.0596   28.0934 C   0  0  0  0  0  0  0  0  0  0  0  0
    0.7908   70.4298   27.8810 C   0  0  0  0  0  0  0  0  0  0  0  0
    2.5543   71.9607   25.3765 H   0  0  0  0  0  0  0  0  0  0  0  0
    2.5118   69.6340   24.4845 H   0  0  0  0  0  0  0  0  0  0  0  0
    1.1925   66.7823   26.4612 H   0  0  0  0  0  0  0  0  0  0  0  0
    2.2575   67.2411   25.0429 H   0  0  0  0  0  0  0  0  0  0  0  0
    0.4573   67.4297   24.9745 H   0  0  0  0  0  0  0  0  0  0  0  0
   -0.3407   68.4182   29.0356 H   0  0  0  0  0  0  0  0  0  0  0  0
    0.8670   67.2815   28.4125 H   0  0  0  0  0  0  0  0  0  0  0  0
   -0.6242   67.5246   27.4507 H   0  0  0  0  0  0  0  0  0  0  0  0
    0.3093   70.6401   28.8261 H   0  0  0  0  0  0  0  0  0  0  0  0
  1  3  2  0
  1  7  1  0
  2 23  3  0
  3  4  1  0
  3 20  1  0
  4  5  2  0
  4  8  1  0
  5  6  1  0
  6  7  2  0
  6 18  1  0
  7 24  1  0
  8  9  1  0
  9 10  1  0
  9 12  2  0
 10 11  1  0
 11 13  2  0
 11 17  1  0
 13 14  1  0
 14 15  2  0
 15 16  1  0
 15 23  1  0
 16 17  2  0
 16 22  1  0
 18 19  1  0
 20 21  1  0
  1 25  1  0
  5 26  1  0
  8 27  1  0
  8 28  1  0
 10 29  1  0
 17 30  1  0
 19 31  1  0
 19 32  1  0
 19 33  1  0
 21 34  1  0
 21 35  1  0
 21 36  1  0
 22 37  1  0
 22 38  1  0
 39 40  2  0
 40 41  1  0
 41 42  2  0
 42 43  1  0
 42 44  1  0
 44 45  1  0
 44 46  2  0
 46 39  1  0
 40 47  1  0
 41 48  1  0
 43 49  1  0
 43 50  1  0
 43 51  1  0
 45 52  1  0
 45 53  1  0
 45 54  1  0
 46 55  1  0
 14 39  1  0
M  END
>  <attachment_point>  (505) 
29

>  <score>  (505) 
<NA>

$$$$
2gmx
     RDKit          3D

 57 59  0  0  0  0  0  0  0  0999 V2000
    0.6680  149.6310   52.1780 C   0  0  0  0  0  0  0  0  0  0  0  0
    3.0090  140.6200   56.4870 N   0  0  0  0  0  0  0  0  0  0  0  0
    1.9620  149.2640   52.6280 C   0  0  0  0  0  0  0  0  0  0  0  0
    2.4660  149.8330   53.8590 C   0  0  0  0  0  0  0  0  0  0  0  0
    1.6570  150.7410   54.6000 C   0  0  0  0  0  0  0  0  0  0  0  0
    0.3580  151.1130   54.1650 C   0  0  0  0  0  0  0  0  0  0  0  0
   -0.1340  150.5380   52.9220 C   0  0  0  0  0  0  0  0  0  0  0  0
    3.8340  149.4930   54.3900 C   0  0  0  0  0  0  0  0  0  0  0  0
    3.7760  148.3010   55.3550 C   0  0  0  0  0  0  0  0  0  0  0  0
    3.6080  147.1180   54.7070 N   0  0  0  0  0  0  0  0  0  0  0  0
    3.5230  145.8440   55.1920 C   0  0  0  0  0  0  0  0  0  0  0  0
    3.8880  148.4710   56.5680 O   0  0  0  0  0  0  0  0  0  0  0  0
    3.0190  144.9720   54.2890 N   0  0  0  0  0  0  0  0  0  0  0  0
    2.8790  143.6460   54.6100 C   0  0  0  0  0  0  0  0  0  0  0  0
    3.2540  143.1490   55.8980 C   0  0  0  0  0  0  0  0  0  0  0  0
    3.7840  144.0620   56.8580 C   0  0  0  0  0  0  0  0  0  0  0  0
    3.9180  145.4220   56.4980 C   0  0  0  0  0  0  0  0  0  0  0  0
   -0.4210  152.0200   54.9250 O   0  0  0  0  0  0  0  0  0  0  0  0
   -1.4550  151.4120   55.7020 C   0  0  0  0  0  0  0  0  0  0  0  0
    2.7960  148.3740   51.9370 O   0  0  0  0  0  0  0  0  0  0  0  0
    2.1840  147.2640   51.2740 C   0  0  0  0  0  0  0  0  0  0  0  0
    4.1700  143.6740   58.1190 N   0  0  0  0  0  0  0  0  0  0  0  0
    3.1040  141.7440   56.2230 C   0  0  0  0  0  0  0  0  0  0  0  0
   -1.8550  150.9620   52.2300 Br  0  0  0  0  0  0  0  0  0  0  0  0
    0.0000    0.0000    0.0000 H   0  0  0  0  0  0  0  0  0  0  0  0
    0.0000    0.0000    0.0000 H   0  0  0  0  0  0  0  0  0  0  0  0
    0.0000    0.0000    0.0000 H   0  0  0  0  0  0  0  0  0  0  0  0
    0.0000    0.0000    0.0000 H   0  0  0  0  0  0  0  0  0  0  0  0
    0.0000    0.0000    0.0000 H   0  0  0  0  0  0  0  0  0  0  0  0
    0.0000    0.0000    0.0000 H   0  0  0  0  0  0  0  0  0  0  0  0
    0.0000    0.0000    0.0000 H   0  0  0  0  0  0  0  0  0  0  0  0
    0.0000    0.0000    0.0000 H   0  0  0  0  0  0  0  0  0  0  0  0
    0.0000    0.0000    0.0000 H   0  0  0  0  0  0  0  0  0  0  0  0
    0.0000    0.0000    0.0000 H   0  0  0  0  0  0  0  0  0  0  0  0
    0.0000    0.0000    0.0000 H   0  0  0  0  0  0  0  0  0  0  0  0
    0.0000    0.0000    0.0000 H   0  0  0  0  0  0  0  0  0  0  0  0
    0.0000    0.0000    0.0000 H   0  0  0  0  0  0  0  0  0  0  0  0
    0.0000    0.0000    0.0000 H   0  0  0  0  0  0  0  0  0  0  0  0
    1.4317   71.4346   27.1573 C   0  0  0  0  0  0  0  0  0  0  0  0
    0.2276   70.8565   26.7867 C   0  0  0  0  0  0  0  0  0  0  0  0
    0.2006   69.5714   26.2981 C   0  0  0  0  0  0  0  0  0  0  0  0
    1.3917   68.8619   26.1810 C   0  0  0  0  0  0  0  0  0  0  0  0
    1.3619   67.5655   25.6879 O   0  0  0  0  0  0  0  0  0  0  0  0
    2.5744   66.8638   25.5764 C   0  0  0  0  0  0  0  0  0  0  0  0
    2.5797   69.4694   26.5607 C   0  0  0  0  0  0  0  0  0  0  0  0
    2.6188   70.7588   27.0525 C   0  0  0  0  0  0  0  0  0  0  0  0
    3.8378   71.3110   27.4153 O   0  0  0  0  0  0  0  0  0  0  0  0
    5.0652   70.6731   27.3299 C   0  0  0  0  0  0  0  0  0  0  0  0
   -0.7100   71.4261   26.8830 H   0  0  0  0  0  0  0  0  0  0  0  0
   -0.7304   69.0897   25.9984 H   0  0  0  0  0  0  0  0  0  0  0  0
    2.3396   65.8350   25.2294 H   0  0  0  0  0  0  0  0  0  0  0  0
    3.1366   66.8389   26.5405 H   0  0  0  0  0  0  0  0  0  0  0  0
    3.2580   67.3369   24.8190 H   0  0  0  0  0  0  0  0  0  0  0  0
    3.4820   68.9114   26.4643 H   0  0  0  0  0  0  0  0  0  0  0  0
    5.0367   69.5957   27.5939 H   0  0  0  0  0  0  0  0  0  0  0  0
    5.5364   70.8110   26.3181 H   0  0  0  0  0  0  0  0  0  0  0  0
    5.7639   71.1968   28.0453 H   0  0  0  0  0  0  0  0  0  0  0  0
  1  3  2  0
  1  7  1  0
  2 23  3  0
  3  4  1  0
  3 20  1  0
  4  5  2  0
  4  8  1  0
  5  6  1  0
  6  7  2  0
  6 18  1  0
  7 24  1  0
  8  9  1  0
  9 10  1  0
  9 12  2  0
 10 11  1  0
 11 13  2  0
 11 17  1  0
 13 14  1  0
 14 15  2  0
 15 16  1  0
 15 23  1  0
 16 17  2  0
 16 22  1  0
 18 19  1  0
 20 21  1  0
  1 25  1  0
  5 26  1  0
  8 27  1  0
  8 28  1  0
 10 29  1  0
 17 30  1  0
 19 31  1  0
 19 32  1  0
 19 33  1  0
 21 34  1  0
 21 35  1  0
 21 36  1  0
 22 37  1  0
 22 38  1  0
 39 40  2  0
 40 41  1  0
 41 42  2  0
 42 43  1  0
 43 44  1  0
 42 45  1  0
 45 46  2  0
 46 47  1  0
 47 48  1  0
 46 39  1  0
 40 49  1  0
 41 50  1  0
 44 51  1  0
 44 52  1  0
 44 53  1  0
 45 54  1  0
 48 55  1  0
 48 56  1  0
 48 57  1  0
 14 39  1  0
M  END
>  <attachment_point>  (506) 
29

>  <score>  (506) 
<NA>

$$$$
2gmx
     RDKit          3D

 59 60  0  0  0  0  0  0  0  0999 V2000
    0.6680  149.6310   52.1780 C   0  0  0  0  0  0  0  0  0  0  0  0
    3.0090  140.6200   56.4870 N   0  0  0  0  0  0  0  0  0  0  0  0
    1.9620  149.2640   52.6280 C   0  0  0  0  0  0  0  0  0  0  0  0
    2.4660  149.8330   53.8590 C   0  0  0  0  0  0  0  0  0  0  0  0
    1.6570  150.7410   54.6000 C   0  0  0  0  0  0  0  0  0  0  0  0
    0.3580  151.1130   54.1650 C   0  0  0  0  0  0  0  0  0  0  0  0
   -0.1340  150.5380   52.9220 C   0  0  0  0  0  0  0  0  0  0  0  0
    3.8340  149.4930   54.3900 C   0  0  0  0  0  0  0  0  0  0  0  0
    3.7760  148.3010   55.3550 C   0  0  0  0  0  0  0  0  0  0  0  0
    3.6080  147.1180   54.7070 N   0  0  0  0  0  0  0  0  0  0  0  0
    3.5230  145.8440   55.1920 C   0  0  0  0  0  0  0  0  0  0  0  0
    3.8880  148.4710   56.5680 O   0  0  0  0  0  0  0  0  0  0  0  0
    3.0190  144.9720   54.2890 N   0  0  0  0  0  0  0  0  0  0  0  0
    2.8790  143.6460   54.6100 C   0  0  0  0  0  0  0  0  0  0  0  0
    3.2540  143.1490   55.8980 C   0  0  0  0  0  0  0  0  0  0  0  0
    3.7840  144.0620   56.8580 C   0  0  0  0  0  0  0  0  0  0  0  0
    3.9180  145.4220   56.4980 C   0  0  0  0  0  0  0  0  0  0  0  0
   -0.4210  152.0200   54.9250 O   0  0  0  0  0  0  0  0  0  0  0  0
   -1.4550  151.4120   55.7020 C   0  0  0  0  0  0  0  0  0  0  0  0
    2.7960  148.3740   51.9370 O   0  0  0  0  0  0  0  0  0  0  0  0
    2.1840  147.2640   51.2740 C   0  0  0  0  0  0  0  0  0  0  0  0
    4.1700  143.6740   58.1190 N   0  0  0  0  0  0  0  0  0  0  0  0
    3.1040  141.7440   56.2230 C   0  0  0  0  0  0  0  0  0  0  0  0
   -1.8550  150.9620   52.2300 Br  0  0  0  0  0  0  0  0  0  0  0  0
    0.0000    0.0000    0.0000 H   0  0  0  0  0  0  0  0  0  0  0  0
    0.0000    0.0000    0.0000 H   0  0  0  0  0  0  0  0  0  0  0  0
    0.0000    0.0000    0.0000 H   0  0  0  0  0  0  0  0  0  0  0  0
    0.0000    0.0000    0.0000 H   0  0  0  0  0  0  0  0  0  0  0  0
    0.0000    0.0000    0.0000 H   0  0  0  0  0  0  0  0  0  0  0  0
    0.0000    0.0000    0.0000 H   0  0  0  0  0  0  0  0  0  0  0  0
    0.0000    0.0000    0.0000 H   0  0  0  0  0  0  0  0  0  0  0  0
    0.0000    0.0000    0.0000 H   0  0  0  0  0  0  0  0  0  0  0  0
    0.0000    0.0000    0.0000 H   0  0  0  0  0  0  0  0  0  0  0  0
    0.0000    0.0000    0.0000 H   0  0  0  0  0  0  0  0  0  0  0  0
    0.0000    0.0000    0.0000 H   0  0  0  0  0  0  0  0  0  0  0  0
    0.0000    0.0000    0.0000 H   0  0  0  0  0  0  0  0  0  0  0  0
    0.0000    0.0000    0.0000 H   0  0  0  0  0  0  0  0  0  0  0  0
    0.0000    0.0000    0.0000 H   0  0  0  0  0  0  0  0  0  0  0  0
    1.4309   71.3927   27.1414 C   0  0  0  0  0  0  0  0  0  0  0  0
    0.0179   70.8884   27.2248 C   0  0  0  0  0  0  0  0  0  0  0  0
   -0.1729   69.5594   26.7400 N   0  0  0  0  0  0  0  0  0  0  0  0
    0.4569   68.5532   27.5434 C   0  0  0  0  0  0  0  0  0  0  0  0
    0.1668   67.1638   27.0845 C   0  0  0  0  0  0  0  0  0  0  0  0
   -1.4840   69.2440   26.2932 C   0  0  0  0  0  0  0  0  0  0  0  0
   -1.9525   69.9498   25.0723 C   0  0  0  0  0  0  0  0  0  0  0  0
    1.8414   71.5043   26.1398 H   0  0  0  0  0  0  0  0  0  0  0  0
    2.1234   70.8119   27.8207 H   0  0  0  0  0  0  0  0  0  0  0  0
   -0.6802   71.6043   26.8007 H   0  0  0  0  0  0  0  0  0  0  0  0
   -0.2214   70.8550   28.3279 H   0  0  0  0  0  0  0  0  0  0  0  0
    1.5864   68.6954   27.4597 H   0  0  0  0  0  0  0  0  0  0  0  0
    0.1066   68.6879   28.5892 H   0  0  0  0  0  0  0  0  0  0  0  0
    0.9155   66.4753   27.5893 H   0  0  0  0  0  0  0  0  0  0  0  0
    0.3597   67.0317   25.9874 H   0  0  0  0  0  0  0  0  0  0  0  0
   -0.8395   66.7802   27.3801 H   0  0  0  0  0  0  0  0  0  0  0  0
   -2.1986   69.4682   27.1229 H   0  0  0  0  0  0  0  0  0  0  0  0
   -1.5823   68.1407   26.1221 H   0  0  0  0  0  0  0  0  0  0  0  0
   -2.6856   70.7671   25.3321 H   0  0  0  0  0  0  0  0  0  0  0  0
   -2.5521   69.2109   24.4618 H   0  0  0  0  0  0  0  0  0  0  0  0
   -1.1670   70.2960   24.3960 H   0  0  0  0  0  0  0  0  0  0  0  0
  1  3  2  0
  1  7  1  0
  2 23  3  0
  3  4  1  0
  3 20  1  0
  4  5  2  0
  4  8  1  0
  5  6  1  0
  6  7  2  0
  6 18  1  0
  7 24  1  0
  8  9  1  0
  9 10  1  0
  9 12  2  0
 10 11  1  0
 11 13  2  0
 11 17  1  0
 13 14  1  0
 14 15  2  0
 15 16  1  0
 15 23  1  0
 16 17  2  0
 16 22  1  0
 18 19  1  0
 20 21  1  0
  1 25  1  0
  5 26  1  0
  8 27  1  0
  8 28  1  0
 10 29  1  0
 17 30  1  0
 19 31  1  0
 19 32  1  0
 19 33  1  0
 21 34  1  0
 21 35  1  0
 21 36  1  0
 22 37  1  0
 22 38  1  0
 39 40  1  0
 40 41  1  0
 41 42  1  0
 42 43  1  0
 41 44  1  0
 44 45  1  0
 39 46  1  0
 39 47  1  0
 40 48  1  0
 40 49  1  0
 42 50  1  0
 42 51  1  0
 43 52  1  0
 43 53  1  0
 43 54  1  0
 44 55  1  0
 44 56  1  0
 45 57  1  0
 45 58  1  0
 45 59  1  0
 14 39  1  0
M  END
>  <attachment_point>  (507) 
29

>  <score>  (507) 
<NA>

$$$$
2gmx
     RDKit          3D

 53 56  0  0  0  0  0  0  0  0999 V2000
    0.6680  149.6310   52.1780 C   0  0  0  0  0  0  0  0  0  0  0  0
    3.0090  140.6200   56.4870 N   0  0  0  0  0  0  0  0  0  0  0  0
    1.9620  149.2640   52.6280 C   0  0  0  0  0  0  0  0  0  0  0  0
    2.4660  149.8330   53.8590 C   0  0  0  0  0  0  0  0  0  0  0  0
    1.6570  150.7410   54.6000 C   0  0  0  0  0  0  0  0  0  0  0  0
    0.3580  151.1130   54.1650 C   0  0  0  0  0  0  0  0  0  0  0  0
   -0.1340  150.5380   52.9220 C   0  0  0  0  0  0  0  0  0  0  0  0
    3.8340  149.4930   54.3900 C   0  0  0  0  0  0  0  0  0  0  0  0
    3.7760  148.3010   55.3550 C   0  0  0  0  0  0  0  0  0  0  0  0
    3.6080  147.1180   54.7070 N   0  0  0  0  0  0  0  0  0  0  0  0
    3.5230  145.8440   55.1920 C   0  0  0  0  0  0  0  0  0  0  0  0
    3.8880  148.4710   56.5680 O   0  0  0  0  0  0  0  0  0  0  0  0
    3.0190  144.9720   54.2890 N   0  0  0  0  0  0  0  0  0  0  0  0
    2.8790  143.6460   54.6100 C   0  0  0  0  0  0  0  0  0  0  0  0
    3.2540  143.1490   55.8980 C   0  0  0  0  0  0  0  0  0  0  0  0
    3.7840  144.0620   56.8580 C   0  0  0  0  0  0  0  0  0  0  0  0
    3.9180  145.4220   56.4980 C   0  0  0  0  0  0  0  0  0  0  0  0
   -0.4210  152.0200   54.9250 O   0  0  0  0  0  0  0  0  0  0  0  0
   -1.4550  151.4120   55.7020 C   0  0  0  0  0  0  0  0  0  0  0  0
    2.7960  148.3740   51.9370 O   0  0  0  0  0  0  0  0  0  0  0  0
    2.1840  147.2640   51.2740 C   0  0  0  0  0  0  0  0  0  0  0  0
    4.1700  143.6740   58.1190 N   0  0  0  0  0  0  0  0  0  0  0  0
    3.1040  141.7440   56.2230 C   0  0  0  0  0  0  0  0  0  0  0  0
   -1.8550  150.9620   52.2300 Br  0  0  0  0  0  0  0  0  0  0  0  0
    0.0000    0.0000    0.0000 H   0  0  0  0  0  0  0  0  0  0  0  0
    0.0000    0.0000    0.0000 H   0  0  0  0  0  0  0  0  0  0  0  0
    0.0000    0.0000    0.0000 H   0  0  0  0  0  0  0  0  0  0  0  0
    0.0000    0.0000    0.0000 H   0  0  0  0  0  0  0  0  0  0  0  0
    0.0000    0.0000    0.0000 H   0  0  0  0  0  0  0  0  0  0  0  0
    0.0000    0.0000    0.0000 H   0  0  0  0  0  0  0  0  0  0  0  0
    0.0000    0.0000    0.0000 H   0  0  0  0  0  0  0  0  0  0  0  0
    0.0000    0.0000    0.0000 H   0  0  0  0  0  0  0  0  0  0  0  0
    0.0000    0.0000    0.0000 H   0  0  0  0  0  0  0  0  0  0  0  0
    0.0000    0.0000    0.0000 H   0  0  0  0  0  0  0  0  0  0  0  0
    0.0000    0.0000    0.0000 H   0  0  0  0  0  0  0  0  0  0  0  0
    0.0000    0.0000    0.0000 H   0  0  0  0  0  0  0  0  0  0  0  0
    0.0000    0.0000    0.0000 H   0  0  0  0  0  0  0  0  0  0  0  0
    0.0000    0.0000    0.0000 H   0  0  0  0  0  0  0  0  0  0  0  0
    1.4395   71.8230   27.3050 N   0  0  0  0  0  0  0  0  0  0  0  0
    1.4395   71.8230   27.3050 C   0  0  0  0  0  0  0  0  0  0  0  0
    1.4395   71.8230   27.3050 O   0  0  0  0  0  0  0  0  0  0  0  0
    1.4395   71.8230   27.3050 C   0  0  0  0  0  0  0  0  0  0  0  0
    1.4395   71.8230   27.3050 C   0  0  0  0  0  0  0  0  0  0  0  0
    1.4395   71.8230   27.3050 C   0  0  0  0  0  0  0  0  0  0  0  0
    1.4395   71.8230   27.3050 C   0  0  0  0  0  0  0  0  0  0  0  0
    1.4395   71.8230   27.3050 C   0  0  0  0  0  0  0  0  0  0  0  0
    1.4395   71.8230   27.3050 C   0  0  0  0  0  0  0  0  0  0  0  0
    1.4395   71.8230   27.3050 C   0  0  0  0  0  0  0  0  0  0  0  0
    1.4395   71.8230   27.3050 O   0  0  0  0  0  0  0  0  0  0  0  0
    1.4395   71.8230   27.3050 H   0  0  0  0  0  0  0  0  0  0  0  0
    1.4395   71.8230   27.3050 H   0  0  0  0  0  0  0  0  0  0  0  0
    1.4395   71.8230   27.3050 H   0  0  0  0  0  0  0  0  0  0  0  0
    1.4395   71.8230   27.3050 H   0  0  0  0  0  0  0  0  0  0  0  0
  1  3  2  0
  1  7  1  0
  2 23  3  0
  3  4  1  0
  3 20  1  0
  4  5  2  0
  4  8  1  0
  5  6  1  0
  6  7  2  0
  6 18  1  0
  7 24  1  0
  8  9  1  0
  9 10  1  0
  9 12  2  0
 10 11  1  0
 11 13  2  0
 11 17  1  0
 13 14  1  0
 14 15  2  0
 15 16  1  0
 15 23  1  0
 16 17  2  0
 16 22  1  0
 18 19  1  0
 20 21  1  0
  1 25  1  0
  5 26  1  0
  8 27  1  0
  8 28  1  0
 10 29  1  0
 17 30  1  0
 19 31  1  0
 19 32  1  0
 19 33  1  0
 21 34  1  0
 21 35  1  0
 21 36  1  0
 22 37  1  0
 22 38  1  0
 39 48  1  0
 39 40  1  0
 40 41  2  0
 40 42  1  0
 42 47  2  0
 42 43  1  0
 43 44  2  0
 44 45  1  0
 45 46  2  0
 46 47  1  0
 47 48  1  0
 48 49  2  0
 43 50  1  0
 44 51  1  0
 45 52  1  0
 46 53  1  0
 14 39  1  0
M  END
>  <attachment_point>  (508) 
29

>  <score>  (508) 
<NA>

$$$$
