CAT-4j
  PyMOL3.0          3D                             0

 20 22  0  0  1  0  0  0  0  0999 V2000
   11.7106   -2.3098    1.2658 C   0  0  0  0  0  0  0  0  0  0  0  0
   13.0313   -2.6523    0.7225 N   0  0  0  0  0  0  0  0  0  0  0  0
   14.2010   -2.6281    1.3773 C   0  0  0  0  0  0  0  0  0  0  0  0
   14.3777   -2.3568    2.6732 N   0  0  0  0  0  0  0  0  0  0  0  0
   15.2217   -2.9197    0.5738 N   0  3  0  0  0  0  0  0  0  0  0  0
   14.7965   -3.2519   -0.7875 C   0  0  2  0  0  0  0  0  0  0  0  0
   15.3794   -2.2443   -1.7949 C   0  0  0  0  0  0  0  0  0  0  0  0
   15.9522   -2.6550   -3.0208 C   0  0  0  0  0  0  0  0  0  0  0  0
   16.4340   -1.6937   -3.9273 C   0  0  0  0  0  0  0  0  0  0  0  0
   16.3364   -0.3224   -3.6308 C   0  0  0  0  0  0  0  0  0  0  0  0
   15.7943    0.1250   -2.4073 C   0  0  0  0  0  0  0  0  0  0  0  0
   15.6711    1.5693   -2.0915 C   0  0  0  0  0  0  0  0  0  0  0  0
   15.3832    2.0354   -0.7903 C   0  0  0  0  0  0  0  0  0  0  0  0
   15.3534    3.4188   -0.5357 C   0  0  0  0  0  0  0  0  0  0  0  0
   15.5968    4.3049   -1.5946 C   0  0  0  0  0  0  0  0  0  0  0  0
   15.8275    3.8920   -2.8511 N   0  0  0  0  0  0  0  0  0  0  0  0
   15.8598    2.5642   -3.0762 C   0  0  0  0  0  0  0  0  0  0  0  0
   15.3327   -0.8573   -1.5012 C   0  0  0  0  0  0  0  0  0  0  0  0
   13.2767   -3.0094   -0.6368 C   0  0  0  0  0  0  0  0  0  0  0  0
   12.3981   -3.0674   -1.5055 O   0  0  0  0  0  0  0  0  0  0  0  0
  1  2  1  0  0  0  0
  2  3  1  0  0  0  0
  2 19  1  0  0  0  0
  3  4  1  0  0  0  0
  3  5  2  0  0  0  0
  5  6  1  0  0  0  0
  6  7  1  0  0  0  0
  6 19  1  0  0  0  0
  7  8  2  0  0  0  0
  7 18  1  0  0  0  0
  8  9  1  0  0  0  0
  9 10  2  0  0  0  0
 10 11  1  0  0  0  0
 11 12  1  0  0  0  0
 11 18  2  0  0  0  0
 12 13  2  0  0  0  0
 12 17  1  0  0  0  0
 13 14  1  0  0  0  0
 14 15  2  0  0  0  0
 15 16  1  0  0  0  0
 16 17  2  0  0  0  0
 19 20  2  0  0  0  0
M  END
$$$$
